MODEL 1
REMARK VINA RESULT:      -7.6      0.000      0.000
REMARK  Name = 
REMARK  8 active torsions:
REMARK  status: ('A' for Active; 'I' for Inactive)
REMARK    1  A    between atoms: C_1  and  C_2
REMARK    2  A    between atoms: C_2  and  C_6
REMARK    3  A    between atoms: C_3  and  C_4
REMARK    4  A    between atoms: C_10  and  N_11
REMARK    5  A    between atoms: C_16  and  C_17
REMARK    6  A    between atoms: C_17  and  N_18
REMARK    7  A    between atoms: C_21  and  O_22
REMARK    8  A    between atoms: C_25  and  C_26
REMARK                            x       y       z     vdW  Elec       q    Type
REMARK                         _______ _______ _______ _____ _____    ______ ____
ROOT
ATOM      1  N   UNL     1      -0.449  11.415  18.612  0.00  0.00    +0.000 N 
ATOM      2  C   UNL     1       0.335  10.735  19.681  0.00  0.00    +0.000 C 
ATOM      3  C   UNL     1      -0.364  11.185  20.929  0.00  0.00    +0.000 A 
ATOM      4  C   UNL     1      -0.975  12.405  20.635  0.00  0.00    +0.000 A 
ATOM      5  C   UNL     1      -1.857  13.026  21.493  0.00  0.00    +0.000 A 
ATOM      6  C   UNL     1      -2.112  12.419  22.729  0.00  0.00    +0.000 A 
ATOM      7  C   UNL     1      -1.481  11.192  23.044  0.00  0.00    +0.000 A 
ATOM      8  C   UNL     1      -0.611  10.543  22.139  0.00  0.00    +0.000 A 
ATOM      9  C   UNL     1      -0.867  12.642  19.181  0.00  0.00    +0.000 C 
ATOM     10  O   UNL     1      -1.285  13.640  18.619  0.00  0.00    +0.000 OA
ENDROOT
BRANCH   1  15
ATOM     11  C   UNL     1      -3.884  10.815  17.617  0.00  0.00    +0.000 A 
ATOM     12  C   UNL     1      -3.595  10.334  16.331  0.00  0.00    +0.000 A 
ATOM     13  C   UNL     1      -2.355   9.769  16.025  0.00  0.00    +0.000 A 
ATOM     14  C   UNL     1      -1.338   9.809  16.961  0.00  0.00    +0.000 A 
ATOM     15  C   UNL     1      -1.532  10.548  18.138  0.00  0.00    +0.000 A 
ATOM     16  C   UNL     1      -2.828  10.883  18.534  0.00  0.00    +0.000 A 
BRANCH  11  18
ATOM     17  C   UNL     1      -5.765  12.500  17.138  0.00  0.00    +0.000 C 
ATOM     18  C   UNL     1      -5.231  11.352  17.962  0.00  0.00    +0.000 C 
ATOM     19  C   UNL     1      -5.914  10.825  18.996  0.00  0.00    +0.000 C 
BRANCH  19  20
ATOM     20  C   UNL     1      -7.266  11.233  19.475  0.00  0.00    +0.000 C 
ATOM     21  F   UNL     1      -7.135  12.183  20.442  0.00  0.00    +0.000 F 
ENDBRANCH  19  20
ENDBRANCH  11  18
ENDBRANCH   1  15
BRANCH   8  22
ATOM     22  C   UNL     1      -0.090   9.169  22.477  0.00  0.00    +0.000 C 
ATOM     23  F   UNL     1       1.214   8.970  22.138  0.00  0.00    +0.000 F 
ATOM     24  F   UNL     1      -0.169   8.899  23.808  0.00  0.00    +0.000 F 
ATOM     25  F   UNL     1      -0.789   8.180  21.851  0.00  0.00    +0.000 F 
ENDBRANCH   8  22
BRANCH   6  26
ATOM     26  C   UNL     1      -3.089  13.068  23.688  0.00  0.00    +0.000 C 
BRANCH  26  27
ATOM     27  N   UNL     1      -4.486  12.667  23.466  0.00  0.00    +0.000 NA
ATOM     28  C   UNL     1      -5.231  13.732  22.777  0.00  0.00    +0.000 C 
ATOM     29  C   UNL     1      -6.567  13.898  23.494  0.00  0.00    +0.000 C 
ATOM     30  C   UNL     1      -6.657  12.722  24.445  0.00  0.00    +0.000 C 
ATOM     31  C   UNL     1      -5.203  12.367  24.719  0.00  0.00    +0.000 C 
BRANCH  30  32
ATOM     32  O   UNL     1      -7.349  11.646  23.823  0.00  0.00    +0.000 OA
ATOM     33  H   UNL     1      -6.729  11.250  23.187  0.00  0.00    +0.000 HD
ENDBRANCH  30  32
ENDBRANCH  26  27
ENDBRANCH   6  26
TORSDOF 7
ENDMDL
MODEL 2
REMARK VINA RESULT:      -7.6      8.974     11.718
REMARK  Name = 
REMARK  8 active torsions:
REMARK  status: ('A' for Active; 'I' for Inactive)
REMARK    1  A    between atoms: C_1  and  C_2
REMARK    2  A    between atoms: C_2  and  C_6
REMARK    3  A    between atoms: C_3  and  C_4
REMARK    4  A    between atoms: C_10  and  N_11
REMARK    5  A    between atoms: C_16  and  C_17
REMARK    6  A    between atoms: C_17  and  N_18
REMARK    7  A    between atoms: C_21  and  O_22
REMARK    8  A    between atoms: C_25  and  C_26
REMARK                            x       y       z     vdW  Elec       q    Type
REMARK                         _______ _______ _______ _____ _____    ______ ____
ROOT
ATOM      1  N   UNL     1       6.287   5.783  15.429  0.00  0.00    +0.000 N 
ATOM      2  C   UNL     1       5.061   6.526  15.835  0.00  0.00    +0.000 C 
ATOM      3  C   UNL     1       4.281   5.481  16.575  0.00  0.00    +0.000 A 
ATOM      4  C   UNL     1       4.689   4.241  16.080  0.00  0.00    +0.000 A 
ATOM      5  C   UNL     1       4.315   3.045  16.654  0.00  0.00    +0.000 A 
ATOM      6  C   UNL     1       3.452   3.086  17.757  0.00  0.00    +0.000 A 
ATOM      7  C   UNL     1       3.016   4.337  18.254  0.00  0.00    +0.000 A 
ATOM      8  C   UNL     1       3.441   5.559  17.683  0.00  0.00    +0.000 A 
ATOM      9  C   UNL     1       5.857   4.453  15.200  0.00  0.00    +0.000 C 
ATOM     10  O   UNL     1       6.426   3.561  14.596  0.00  0.00    +0.000 OA
ENDROOT
BRANCH   1  15
ATOM     11  C   UNL     1       8.025   7.650  18.006  0.00  0.00    +0.000 A 
ATOM     12  C   UNL     1       7.849   6.708  19.030  0.00  0.00    +0.000 A 
ATOM     13  C   UNL     1       7.638   5.357  18.750  0.00  0.00    +0.000 A 
ATOM     14  C   UNL     1       7.453   4.952  17.441  0.00  0.00    +0.000 A 
ATOM     15  C   UNL     1       7.336   5.931  16.441  0.00  0.00    +0.000 A 
ATOM     16  C   UNL     1       7.793   7.226  16.691  0.00  0.00    +0.000 A 
BRANCH  11  18
ATOM     17  C   UNL     1       7.731  10.130  17.397  0.00  0.00    +0.000 C 
ATOM     18  C   UNL     1       8.323   9.079  18.307  0.00  0.00    +0.000 C 
ATOM     19  C   UNL     1       9.117   9.390  19.349  0.00  0.00    +0.000 C 
BRANCH  19  20
ATOM     20  C   UNL     1       9.514  10.757  19.794  0.00  0.00    +0.000 C 
ATOM     21  F   UNL     1      10.728  11.071  19.262  0.00  0.00    +0.000 F 
ENDBRANCH  19  20
ENDBRANCH  11  18
ENDBRANCH   1  15
BRANCH   8  22
ATOM     22  C   UNL     1       3.058   6.855  18.351  0.00  0.00    +0.000 C 
ATOM     23  F   UNL     1       3.959   7.861  18.172  0.00  0.00    +0.000 F 
ATOM     24  F   UNL     1       1.871   7.340  17.897  0.00  0.00    +0.000 F 
ATOM     25  F   UNL     1       2.917   6.722  19.700  0.00  0.00    +0.000 F 
ENDBRANCH   8  22
BRANCH   6  26
ATOM     26  C   UNL     1       3.035   1.790  18.421  0.00  0.00    +0.000 C 
BRANCH  26  27
ATOM     27  N   UNL     1       2.251   1.984  19.650  0.00  0.00    +0.000 NA
ATOM     28  C   UNL     1       1.022   2.743  19.370  0.00  0.00    +0.000 C 
ATOM     29  C   UNL     1       0.886   3.814  20.449  0.00  0.00    +0.000 C 
ATOM     30  C   UNL     1       1.934   3.469  21.486  0.00  0.00    +0.000 C 
ATOM     31  C   UNL     1       2.992   2.716  20.693  0.00  0.00    +0.000 C 
BRANCH  30  32
ATOM     32  O   UNL     1       1.364   2.652  22.501  0.00  0.00    +0.000 OA
ATOM     33  H   UNL     1       1.044   1.846  22.061  0.00  0.00    +0.000 HD
ENDBRANCH  30  32
ENDBRANCH  26  27
ENDBRANCH   6  26
TORSDOF 7
ENDMDL
MODEL 3
REMARK VINA RESULT:      -7.6      0.872      1.335
REMARK  Name = 
REMARK  8 active torsions:
REMARK  status: ('A' for Active; 'I' for Inactive)
REMARK    1  A    between atoms: C_1  and  C_2
REMARK    2  A    between atoms: C_2  and  C_6
REMARK    3  A    between atoms: C_3  and  C_4
REMARK    4  A    between atoms: C_10  and  N_11
REMARK    5  A    between atoms: C_16  and  C_17
REMARK    6  A    between atoms: C_17  and  N_18
REMARK    7  A    between atoms: C_21  and  O_22
REMARK    8  A    between atoms: C_25  and  C_26
REMARK                            x       y       z     vdW  Elec       q    Type
REMARK                         _______ _______ _______ _____ _____    ______ ____
ROOT
ATOM      1  N   UNL     1      -0.400  11.446  18.657  0.00  0.00    +0.000 N 
ATOM      2  C   UNL     1       0.373  10.808  19.759  0.00  0.00    +0.000 C 
ATOM      3  C   UNL     1      -0.368  11.267  20.979  0.00  0.00    +0.000 A 
ATOM      4  C   UNL     1      -1.001  12.466  20.645  0.00  0.00    +0.000 A 
ATOM      5  C   UNL     1      -1.918  13.083  21.467  0.00  0.00    +0.000 A 
ATOM      6  C   UNL     1      -2.190  12.495  22.710  0.00  0.00    +0.000 A 
ATOM      7  C   UNL     1      -1.537  11.291  23.066  0.00  0.00    +0.000 A 
ATOM      8  C   UNL     1      -0.630  10.644  22.197  0.00  0.00    +0.000 A 
ATOM      9  C   UNL     1      -0.862  12.675  19.189  0.00  0.00    +0.000 C 
ATOM     10  O   UNL     1      -1.289  13.650  18.596  0.00  0.00    +0.000 OA
ENDROOT
BRANCH   1  15
ATOM     11  C   UNL     1      -3.770  10.760  17.504  0.00  0.00    +0.000 A 
ATOM     12  C   UNL     1      -3.404  10.204  16.268  0.00  0.00    +0.000 A 
ATOM     13  C   UNL     1      -2.147   9.631  16.070  0.00  0.00    +0.000 A 
ATOM     14  C   UNL     1      -1.185   9.735  17.059  0.00  0.00    +0.000 A 
ATOM     15  C   UNL     1      -1.450  10.543  18.176  0.00  0.00    +0.000 A 
ATOM     16  C   UNL     1      -2.768  10.892  18.474  0.00  0.00    +0.000 A 
BRANCH  11  18
ATOM     17  C   UNL     1      -6.033  10.575  18.707  0.00  0.00    +0.000 C 
ATOM     18  C   UNL     1      -5.136  11.307  17.737  0.00  0.00    +0.000 C 
ATOM     19  C   UNL     1      -5.538  12.405  17.070  0.00  0.00    +0.000 C 
BRANCH  19  20
ATOM     20  C   UNL     1      -6.859  13.087  17.181  0.00  0.00    +0.000 C 
ATOM     21  F   UNL     1      -6.900  14.139  16.318  0.00  0.00    +0.000 F 
ENDBRANCH  19  20
ENDBRANCH  11  18
ENDBRANCH   1  15
BRANCH   8  22
ATOM     22  C   UNL     1      -0.085   9.291  22.577  0.00  0.00    +0.000 C 
ATOM     23  F   UNL     1      -0.720   8.247  21.977  0.00  0.00    +0.000 F 
ATOM     24  F   UNL     1       1.230   9.154  22.255  0.00  0.00    +0.000 F 
ATOM     25  F   UNL     1      -0.170   9.055  23.916  0.00  0.00    +0.000 F 
ENDBRANCH   8  22
BRANCH   6  26
ATOM     26  C   UNL     1      -3.205  13.140  23.630  0.00  0.00    +0.000 C 
BRANCH  26  27
ATOM     27  N   UNL     1      -4.583  12.680  23.400  0.00  0.00    +0.000 NA
ATOM     28  C   UNL     1      -5.340  13.670  22.619  0.00  0.00    +0.000 C 
ATOM     29  C   UNL     1      -6.700  13.844  23.288  0.00  0.00    +0.000 C 
ATOM     30  C   UNL     1      -6.781  12.735  24.317  0.00  0.00    +0.000 C 
ATOM     31  C   UNL     1      -5.325  12.447  24.653  0.00  0.00    +0.000 C 
BRANCH  30  32
ATOM     32  O   UNL     1      -7.422  11.596  23.755  0.00  0.00    +0.000 OA
ATOM     33  H   UNL     1      -6.800  10.855  23.849  0.00  0.00    +0.000 HD
ENDBRANCH  30  32
ENDBRANCH  26  27
ENDBRANCH   6  26
TORSDOF 7
ENDMDL
MODEL 4
REMARK VINA RESULT:      -7.5      1.176      1.439
REMARK  Name = 
REMARK  8 active torsions:
REMARK  status: ('A' for Active; 'I' for Inactive)
REMARK    1  A    between atoms: C_1  and  C_2
REMARK    2  A    between atoms: C_2  and  C_6
REMARK    3  A    between atoms: C_3  and  C_4
REMARK    4  A    between atoms: C_10  and  N_11
REMARK    5  A    between atoms: C_16  and  C_17
REMARK    6  A    between atoms: C_17  and  N_18
REMARK    7  A    between atoms: C_21  and  O_22
REMARK    8  A    between atoms: C_25  and  C_26
REMARK                            x       y       z     vdW  Elec       q    Type
REMARK                         _______ _______ _______ _____ _____    ______ ____
ROOT
ATOM      1  N   UNL     1      -0.171  11.162  18.458  0.00  0.00    +0.000 N 
ATOM      2  C   UNL     1       0.528  10.444  19.560  0.00  0.00    +0.000 C 
ATOM      3  C   UNL     1       0.028  11.158  20.779  0.00  0.00    +0.000 A 
ATOM      4  C   UNL     1      -0.337  12.444  20.376  0.00  0.00    +0.000 A 
ATOM      5  C   UNL     1      -1.009  13.324  21.198  0.00  0.00    +0.000 A 
ATOM      6  C   UNL     1      -1.296  12.915  22.506  0.00  0.00    +0.000 A 
ATOM      7  C   UNL     1      -0.912  11.621  22.930  0.00  0.00    +0.000 A 
ATOM      8  C   UNL     1      -0.262  10.711  22.066  0.00  0.00    +0.000 A 
ATOM      9  C   UNL     1      -0.285  12.502  18.901  0.00  0.00    +0.000 C 
ATOM     10  O   UNL     1      -0.526  13.503  18.249  0.00  0.00    +0.000 OA
ENDROOT
BRANCH   1  15
ATOM     11  C   UNL     1      -3.765  11.173  17.969  0.00  0.00    +0.000 A 
ATOM     12  C   UNL     1      -3.746  10.695  16.649  0.00  0.00    +0.000 A 
ATOM     13  C   UNL     1      -2.676   9.943  16.161  0.00  0.00    +0.000 A 
ATOM     14  C   UNL     1      -1.544   9.782  16.939  0.00  0.00    +0.000 A 
ATOM     15  C   UNL     1      -1.441  10.503  18.139  0.00  0.00    +0.000 A 
ATOM     16  C   UNL     1      -2.592  11.034  18.723  0.00  0.00    +0.000 A 
BRANCH  11  18
ATOM     17  C   UNL     1      -4.748  12.703  19.784  0.00  0.00    +0.000 C 
ATOM     18  C   UNL     1      -4.939  11.913  18.511  0.00  0.00    +0.000 C 
ATOM     19  C   UNL     1      -6.124  11.840  17.877  0.00  0.00    +0.000 C 
BRANCH  19  20
ATOM     20  C   UNL     1      -7.394  12.514  18.274  0.00  0.00    +0.000 C 
ATOM     21  F   UNL     1      -7.902  11.905  19.381  0.00  0.00    +0.000 F 
ENDBRANCH  19  20
ENDBRANCH  11  18
ENDBRANCH   1  15
BRANCH   8  22
ATOM     22  C   UNL     1      -0.014   9.300  22.534  0.00  0.00    +0.000 C 
ATOM     23  F   UNL     1      -0.181   9.121  23.874  0.00  0.00    +0.000 F 
ATOM     24  F   UNL     1      -0.846   8.403  21.938  0.00  0.00    +0.000 F 
ATOM     25  F   UNL     1       1.252   8.877  22.260  0.00  0.00    +0.000 F 
ENDBRANCH   8  22
BRANCH   6  26
ATOM     26  C   UNL     1      -2.048  13.852  23.429  0.00  0.00    +0.000 C 
BRANCH  26  27
ATOM     27  N   UNL     1      -3.414  14.155  22.976  0.00  0.00    +0.000 NA
ATOM     28  C   UNL     1      -3.770  15.548  23.286  0.00  0.00    +0.000 C 
ATOM     29  C   UNL     1      -5.171  15.542  23.888  0.00  0.00    +0.000 C 
ATOM     30  C   UNL     1      -5.693  14.137  23.670  0.00  0.00    +0.000 C 
ATOM     31  C   UNL     1      -4.430  13.290  23.603  0.00  0.00    +0.000 C 
BRANCH  30  32
ATOM     32  O   UNL     1      -6.427  14.074  22.454  0.00  0.00    +0.000 OA
ATOM     33  H   UNL     1      -6.192  13.230  22.032  0.00  0.00    +0.000 HD
ENDBRANCH  30  32
ENDBRANCH  26  27
ENDBRANCH   6  26
TORSDOF 7
ENDMDL
MODEL 5
REMARK VINA RESULT:      -7.4      4.574      7.987
REMARK  Name = 
REMARK  8 active torsions:
REMARK  status: ('A' for Active; 'I' for Inactive)
REMARK    1  A    between atoms: C_1  and  C_2
REMARK    2  A    between atoms: C_2  and  C_6
REMARK    3  A    between atoms: C_3  and  C_4
REMARK    4  A    between atoms: C_10  and  N_11
REMARK    5  A    between atoms: C_16  and  C_17
REMARK    6  A    between atoms: C_17  and  N_18
REMARK    7  A    between atoms: C_21  and  O_22
REMARK    8  A    between atoms: C_25  and  C_26
REMARK                            x       y       z     vdW  Elec       q    Type
REMARK                         _______ _______ _______ _____ _____    ______ ____
ROOT
ATOM      1  N   UNL     1       0.479   8.355  21.324  0.00  0.00    +0.000 N 
ATOM      2  C   UNL     1      -0.721   8.641  20.488  0.00  0.00    +0.000 C 
ATOM      3  C   UNL     1      -0.566  10.103  20.191  0.00  0.00    +0.000 A 
ATOM      4  C   UNL     1       0.198  10.649  21.225  0.00  0.00    +0.000 A 
ATOM      5  C   UNL     1       0.691  11.935  21.192  0.00  0.00    +0.000 A 
ATOM      6  C   UNL     1       0.372  12.735  20.087  0.00  0.00    +0.000 A 
ATOM      7  C   UNL     1      -0.419  12.197  19.044  0.00  0.00    +0.000 A 
ATOM      8  C   UNL     1      -0.884  10.862  19.069  0.00  0.00    +0.000 A 
ATOM      9  C   UNL     1       0.713   9.543  22.058  0.00  0.00    +0.000 C 
ATOM     10  O   UNL     1       1.395   9.701  23.056  0.00  0.00    +0.000 OA
ENDROOT
BRANCH   1  15
ATOM     11  C   UNL     1       2.175   5.899  19.264  0.00  0.00    +0.000 A 
ATOM     12  C   UNL     1       2.259   6.692  18.109  0.00  0.00    +0.000 A 
ATOM     13  C   UNL     1       2.229   8.085  18.177  0.00  0.00    +0.000 A 
ATOM     14  C   UNL     1       1.970   8.704  19.386  0.00  0.00    +0.000 A 
ATOM     15  C   UNL     1       1.596   7.912  20.484  0.00  0.00    +0.000 A 
ATOM     16  C   UNL     1       1.871   6.544  20.470  0.00  0.00    +0.000 A 
BRANCH  11  18
ATOM     17  C   UNL     1       1.347   3.601  20.064  0.00  0.00    +0.000 C 
ATOM     18  C   UNL     1       2.279   4.414  19.197  0.00  0.00    +0.000 C 
ATOM     19  C   UNL     1       3.202   3.845  18.398  0.00  0.00    +0.000 C 
BRANCH  19  20
ATOM     20  C   UNL     1       3.441   2.386  18.206  0.00  0.00    +0.000 C 
ATOM     21  F   UNL     1       2.460   1.866  17.417  0.00  0.00    +0.000 F 
ENDBRANCH  19  20
ENDBRANCH  11  18
ENDBRANCH   1  15
BRANCH   8  22
ATOM     22  C   UNL     1      -1.595  10.308  17.860  0.00  0.00    +0.000 C 
ATOM     23  F   UNL     1      -2.753   9.652  18.147  0.00  0.00    +0.000 F 
ATOM     24  F   UNL     1      -1.934  11.279  16.969  0.00  0.00    +0.000 F 
ATOM     25  F   UNL     1      -0.827   9.418  17.170  0.00  0.00    +0.000 F 
ENDBRANCH   8  22
BRANCH   6  26
ATOM     26  C   UNL     1       0.912  14.148  20.012  0.00  0.00    +0.000 C 
BRANCH  26  27
ATOM     27  N   UNL     1       1.784  14.384  18.852  0.00  0.00    +0.000 NA
ATOM     28  C   UNL     1       3.055  13.656  18.997  0.00  0.00    +0.000 C 
ATOM     29  C   UNL     1       4.181  14.615  18.625  0.00  0.00    +0.000 C 
ATOM     30  C   UNL     1       3.493  15.821  18.021  0.00  0.00    +0.000 C 
ATOM     31  C   UNL     1       2.113  15.809  18.662  0.00  0.00    +0.000 C 
BRANCH  30  32
ATOM     32  O   UNL     1       3.412  15.679  16.608  0.00  0.00    +0.000 OA
ATOM     33  H   UNL     1       3.673  16.536  16.228  0.00  0.00    +0.000 HD
ENDBRANCH  30  32
ENDBRANCH  26  27
ENDBRANCH   6  26
TORSDOF 7
ENDMDL
MODEL 6
REMARK VINA RESULT:      -7.4      3.348      5.158
REMARK  Name = 
REMARK  8 active torsions:
REMARK  status: ('A' for Active; 'I' for Inactive)
REMARK    1  A    between atoms: C_1  and  C_2
REMARK    2  A    between atoms: C_2  and  C_6
REMARK    3  A    between atoms: C_3  and  C_4
REMARK    4  A    between atoms: C_10  and  N_11
REMARK    5  A    between atoms: C_16  and  C_17
REMARK    6  A    between atoms: C_17  and  N_18
REMARK    7  A    between atoms: C_21  and  O_22
REMARK    8  A    between atoms: C_25  and  C_26
REMARK                            x       y       z     vdW  Elec       q    Type
REMARK                         _______ _______ _______ _____ _____    ______ ____
ROOT
ATOM      1  N   UNL     1       0.797  11.333  19.221  0.00  0.00    +0.000 N 
ATOM      2  C   UNL     1      -0.249  10.579  18.475  0.00  0.00    +0.000 C 
ATOM      3  C   UNL     1      -1.518  11.130  19.054  0.00  0.00    +0.000 A 
ATOM      4  C   UNL     1      -1.213  11.591  20.336  0.00  0.00    +0.000 A 
ATOM      5  C   UNL     1      -2.096  12.325  21.097  0.00  0.00    +0.000 A 
ATOM      6  C   UNL     1      -3.369  12.579  20.569  0.00  0.00    +0.000 A 
ATOM      7  C   UNL     1      -3.694  12.097  19.279  0.00  0.00    +0.000 A 
ATOM      8  C   UNL     1      -2.765  11.381  18.489  0.00  0.00    +0.000 A 
ATOM      9  C   UNL     1       0.254  11.547  20.511  0.00  0.00    +0.000 C 
ATOM     10  O   UNL     1       0.829  11.864  21.538  0.00  0.00    +0.000 OA
ENDROOT
BRANCH   1  15
ATOM     11  C   UNL     1       0.788  14.930  18.756  0.00  0.00    +0.000 A 
ATOM     12  C   UNL     1       2.182  15.094  18.766  0.00  0.00    +0.000 A 
ATOM     13  C   UNL     1       3.042  14.047  18.429  0.00  0.00    +0.000 A 
ATOM     14  C   UNL     1       2.527  12.781  18.218  0.00  0.00    +0.000 A 
ATOM     15  C   UNL     1       1.171  12.550  18.494  0.00  0.00    +0.000 A 
ATOM     16  C   UNL     1       0.292  13.631  18.581  0.00  0.00    +0.000 A 
BRANCH  11  18
ATOM     17  C   UNL     1      -1.227  15.846  20.062  0.00  0.00    +0.000 C 
ATOM     18  C   UNL     1      -0.131  16.066  19.046  0.00  0.00    +0.000 C 
ATOM     19  C   UNL     1       0.021  17.231  18.388  0.00  0.00    +0.000 C 
BRANCH  19  20
ATOM     20  C   UNL     1      -0.799  18.466  18.554  0.00  0.00    +0.000 C 
ATOM     21  F   UNL     1      -1.928  18.363  17.799  0.00  0.00    +0.000 F 
ENDBRANCH  19  20
ENDBRANCH  11  18
ENDBRANCH   1  15
BRANCH   8  22
ATOM     22  C   UNL     1      -3.125  11.027  17.069  0.00  0.00    +0.000 C 
ATOM     23  F   UNL     1      -3.284   9.692  16.852  0.00  0.00    +0.000 F 
ATOM     24  F   UNL     1      -4.291  11.605  16.672  0.00  0.00    +0.000 F 
ATOM     25  F   UNL     1      -2.180  11.437  16.176  0.00  0.00    +0.000 F 
ENDBRANCH   8  22
BRANCH   6  26
ATOM     26  C   UNL     1      -4.358  13.396  21.374  0.00  0.00    +0.000 C 
BRANCH  26  27
ATOM     27  N   UNL     1      -5.416  12.590  22.001  0.00  0.00    +0.000 NA
ATOM     28  C   UNL     1      -6.691  12.754  21.285  0.00  0.00    +0.000 C 
ATOM     29  C   UNL     1      -7.782  12.965  22.329  0.00  0.00    +0.000 C 
ATOM     30  C   UNL     1      -7.125  12.658  23.659  0.00  0.00    +0.000 C 
ATOM     31  C   UNL     1      -5.653  12.952  23.410  0.00  0.00    +0.000 C 
BRANCH  30  32
ATOM     32  O   UNL     1      -7.334  11.294  24.002  0.00  0.00    +0.000 OA
ATOM     33  H   UNL     1      -7.021  10.768  23.245  0.00  0.00    +0.000 HD
ENDBRANCH  30  32
ENDBRANCH  26  27
ENDBRANCH   6  26
TORSDOF 7
ENDMDL
MODEL 7
REMARK VINA RESULT:      -7.4      4.780      8.163
REMARK  Name = 
REMARK  8 active torsions:
REMARK  status: ('A' for Active; 'I' for Inactive)
REMARK    1  A    between atoms: C_1  and  C_2
REMARK    2  A    between atoms: C_2  and  C_6
REMARK    3  A    between atoms: C_3  and  C_4
REMARK    4  A    between atoms: C_10  and  N_11
REMARK    5  A    between atoms: C_16  and  C_17
REMARK    6  A    between atoms: C_17  and  N_18
REMARK    7  A    between atoms: C_21  and  O_22
REMARK    8  A    between atoms: C_25  and  C_26
REMARK                            x       y       z     vdW  Elec       q    Type
REMARK                         _______ _______ _______ _____ _____    ______ ____
ROOT
ATOM      1  N   UNL     1       0.724   8.314  21.247  0.00  0.00    +0.000 N 
ATOM      2  C   UNL     1      -0.504   8.694  20.493  0.00  0.00    +0.000 C 
ATOM      3  C   UNL     1      -0.275  10.150  20.219  0.00  0.00    +0.000 A 
ATOM      4  C   UNL     1       0.582  10.622  21.215  0.00  0.00    +0.000 A 
ATOM      5  C   UNL     1       1.153  11.876  21.178  0.00  0.00    +0.000 A 
ATOM      6  C   UNL     1       0.819  12.722  20.113  0.00  0.00    +0.000 A 
ATOM      7  C   UNL     1      -0.066  12.259  19.110  0.00  0.00    +0.000 A 
ATOM      8  C   UNL     1      -0.612  10.956  19.134  0.00  0.00    +0.000 A 
ATOM      9  C   UNL     1       1.077   9.466  21.990  0.00  0.00    +0.000 C 
ATOM     10  O   UNL     1       1.826   9.556  22.947  0.00  0.00    +0.000 OA
ENDROOT
BRANCH   1  15
ATOM     11  C   UNL     1       2.211   5.757  19.148  0.00  0.00    +0.000 A 
ATOM     12  C   UNL     1       2.198   6.501  17.959  0.00  0.00    +0.000 A 
ATOM     13  C   UNL     1       2.186   7.896  17.972  0.00  0.00    +0.000 A 
ATOM     14  C   UNL     1       2.040   8.567  19.172  0.00  0.00    +0.000 A 
ATOM     15  C   UNL     1       1.759   7.824  20.330  0.00  0.00    +0.000 A 
ATOM     16  C   UNL     1       2.021   6.454  20.348  0.00  0.00    +0.000 A 
BRANCH  11  18
ATOM     17  C   UNL     1       2.151   3.541  20.449  0.00  0.00    +0.000 C 
ATOM     18  C   UNL     1       2.297   4.269  19.134  0.00  0.00    +0.000 C 
ATOM     19  C   UNL     1       2.523   3.625  17.974  0.00  0.00    +0.000 C 
BRANCH  19  20
ATOM     20  C   UNL     1       2.634   2.151  17.775  0.00  0.00    +0.000 C 
ATOM     21  F   UNL     1       3.838   1.721  18.244  0.00  0.00    +0.000 F 
ENDBRANCH  19  20
ENDBRANCH  11  18
ENDBRANCH   1  15
BRANCH   8  22
ATOM     22  C   UNL     1      -1.427  10.477  17.960  0.00  0.00    +0.000 C 
ATOM     23  F   UNL     1      -0.805   9.535  17.198  0.00  0.00    +0.000 F 
ATOM     24  F   UNL     1      -2.607   9.919  18.343  0.00  0.00    +0.000 F 
ATOM     25  F   UNL     1      -1.751  11.489  17.106  0.00  0.00    +0.000 F 
ENDBRANCH   8  22
BRANCH   6  26
ATOM     26  C   UNL     1       1.442  14.100  20.035  0.00  0.00    +0.000 C 
BRANCH  26  27
ATOM     27  N   UNL     1       2.801  14.101  19.475  0.00  0.00    +0.000 NA
ATOM     28  C   UNL     1       3.672  15.023  20.221  0.00  0.00    +0.000 C 
ATOM     29  C   UNL     1       4.458  15.841  19.201  0.00  0.00    +0.000 C 
ATOM     30  C   UNL     1       4.192  15.176  17.867  0.00  0.00    +0.000 C 
ATOM     31  C   UNL     1       2.837  14.511  18.059  0.00  0.00    +0.000 C 
BRANCH  30  32
ATOM     32  O   UNL     1       5.208  14.220  17.589  0.00  0.00    +0.000 OA
ATOM     33  H   UNL     1       5.097  13.502  18.236  0.00  0.00    +0.000 HD
ENDBRANCH  30  32
ENDBRANCH  26  27
ENDBRANCH   6  26
TORSDOF 7
ENDMDL
MODEL 8
REMARK VINA RESULT:      -7.4      7.857     10.680
REMARK  Name = 
REMARK  8 active torsions:
REMARK  status: ('A' for Active; 'I' for Inactive)
REMARK    1  A    between atoms: C_1  and  C_2
REMARK    2  A    between atoms: C_2  and  C_6
REMARK    3  A    between atoms: C_3  and  C_4
REMARK    4  A    between atoms: C_10  and  N_11
REMARK    5  A    between atoms: C_16  and  C_17
REMARK    6  A    between atoms: C_17  and  N_18
REMARK    7  A    between atoms: C_21  and  O_22
REMARK    8  A    between atoms: C_25  and  C_26
REMARK                            x       y       z     vdW  Elec       q    Type
REMARK                         _______ _______ _______ _____ _____    ______ ____
ROOT
ATOM      1  N   UNL     1       6.405   4.262  18.006  0.00  0.00    +0.000 N 
ATOM      2  C   UNL     1       5.250   3.328  17.885  0.00  0.00    +0.000 C 
ATOM      3  C   UNL     1       4.135   4.111  18.510  0.00  0.00    +0.000 A 
ATOM      4  C   UNL     1       4.720   5.010  19.404  0.00  0.00    +0.000 A 
ATOM      5  C   UNL     1       4.012   6.015  20.026  0.00  0.00    +0.000 A 
ATOM      6  C   UNL     1       2.636   6.104  19.776  0.00  0.00    +0.000 A 
ATOM      7  C   UNL     1       2.031   5.185  18.887  0.00  0.00    +0.000 A 
ATOM      8  C   UNL     1       2.775   4.184  18.221  0.00  0.00    +0.000 A 
ATOM      9  C   UNL     1       6.184   4.971  19.211  0.00  0.00    +0.000 C 
ATOM     10  O   UNL     1       6.976   5.628  19.865  0.00  0.00    +0.000 OA
ENDROOT
BRANCH   1  15
ATOM     11  C   UNL     1       5.984   4.857  14.453  0.00  0.00    +0.000 A 
ATOM     12  C   UNL     1       5.182   6.001  14.579  0.00  0.00    +0.000 A 
ATOM     13  C   UNL     1       5.220   6.797  15.725  0.00  0.00    +0.000 A 
ATOM     14  C   UNL     1       5.953   6.381  16.821  0.00  0.00    +0.000 A 
ATOM     15  C   UNL     1       6.519   5.096  16.806  0.00  0.00    +0.000 A 
ATOM     16  C   UNL     1       6.685   4.432  15.589  0.00  0.00    +0.000 A 
BRANCH  11  18
ATOM     17  C   UNL     1       7.322   3.829  12.515  0.00  0.00    +0.000 C 
ATOM     18  C   UNL     1       5.995   4.048  13.201  0.00  0.00    +0.000 C 
ATOM     19  C   UNL     1       4.839   3.563  12.710  0.00  0.00    +0.000 C 
BRANCH  19  20
ATOM     20  C   UNL     1       4.666   2.737  11.481  0.00  0.00    +0.000 C 
ATOM     21  F   UNL     1       3.514   3.099  10.851  0.00  0.00    +0.000 F 
ENDBRANCH  19  20
ENDBRANCH  11  18
ENDBRANCH   1  15
BRANCH   8  22
ATOM     22  C   UNL     1       2.096   3.335  17.177  0.00  0.00    +0.000 C 
ATOM     23  F   UNL     1       2.724   3.331  15.969  0.00  0.00    +0.000 F 
ATOM     24  F   UNL     1       2.008   2.029  17.550  0.00  0.00    +0.000 F 
ATOM     25  F   UNL     1       0.819   3.741  16.928  0.00  0.00    +0.000 F 
ENDBRANCH   8  22
BRANCH   6  26
ATOM     26  C   UNL     1       1.832   7.208  20.432  0.00  0.00    +0.000 C 
BRANCH  26  27
ATOM     27  N   UNL     1       1.929   8.499  19.736  0.00  0.00    +0.000 NA
ATOM     28  C   UNL     1       0.835   9.395  20.144  0.00  0.00    +0.000 C 
ATOM     29  C   UNL     1       0.260  10.026  18.879  0.00  0.00    +0.000 C 
ATOM     30  C   UNL     1       1.229   9.657  17.775  0.00  0.00    +0.000 C 
ATOM     31  C   UNL     1       1.865   8.366  18.269  0.00  0.00    +0.000 C 
BRANCH  30  32
ATOM     32  O   UNL     1       2.196  10.687  17.613  0.00  0.00    +0.000 OA
ATOM     33  H   UNL     1       2.961  10.436  18.159  0.00  0.00    +0.000 HD
ENDBRANCH  30  32
ENDBRANCH  26  27
ENDBRANCH   6  26
TORSDOF 7
ENDMDL
MODEL 9
REMARK VINA RESULT:      -7.3      4.352      7.706
REMARK  Name = 
REMARK  8 active torsions:
REMARK  status: ('A' for Active; 'I' for Inactive)
REMARK    1  A    between atoms: C_1  and  C_2
REMARK    2  A    between atoms: C_2  and  C_6
REMARK    3  A    between atoms: C_3  and  C_4
REMARK    4  A    between atoms: C_10  and  N_11
REMARK    5  A    between atoms: C_16  and  C_17
REMARK    6  A    between atoms: C_17  and  N_18
REMARK    7  A    between atoms: C_21  and  O_22
REMARK    8  A    between atoms: C_25  and  C_26
REMARK                            x       y       z     vdW  Elec       q    Type
REMARK                         _______ _______ _______ _____ _____    ______ ____
ROOT
ATOM      1  N   UNL     1      -0.001   9.182  20.994  0.00  0.00    +0.000 N 
ATOM      2  C   UNL     1      -1.146   9.172  20.040  0.00  0.00    +0.000 C 
ATOM      3  C   UNL     1      -1.131  10.572  19.505  0.00  0.00    +0.000 A 
ATOM      4  C   UNL     1      -0.531  11.374  20.478  0.00  0.00    +0.000 A 
ATOM      5  C   UNL     1      -0.185  12.689  20.255  0.00  0.00    +0.000 A 
ATOM      6  C   UNL     1      -0.492  13.249  19.008  0.00  0.00    +0.000 A 
ATOM      7  C   UNL     1      -1.119  12.450  18.023  0.00  0.00    +0.000 A 
ATOM      8  C   UNL     1      -1.431  11.090  18.248  0.00  0.00    +0.000 A 
ATOM      9  C   UNL     1       0.030  10.494  21.524  0.00  0.00    +0.000 C 
ATOM     10  O   UNL     1       0.597  10.900  22.525  0.00  0.00    +0.000 OA
ENDROOT
BRANCH   1  15
ATOM     11  C   UNL     1       2.206   6.639  19.647  0.00  0.00    +0.000 A 
ATOM     12  C   UNL     1       2.248   7.143  18.339  0.00  0.00    +0.000 A 
ATOM     13  C   UNL     1       1.995   8.488  18.067  0.00  0.00    +0.000 A 
ATOM     14  C   UNL     1       1.554   9.319  19.081  0.00  0.00    +0.000 A 
ATOM     15  C   UNL     1       1.230   8.752  20.324  0.00  0.00    +0.000 A 
ATOM     16  C   UNL     1       1.717   7.486  20.651  0.00  0.00    +0.000 A 
BRANCH  11  18
ATOM     17  C   UNL     1       3.922   4.728  19.562  0.00  0.00    +0.000 C 
ATOM     18  C   UNL     1       2.546   5.219  19.946  0.00  0.00    +0.000 C 
ATOM     19  C   UNL     1       1.627   4.418  20.518  0.00  0.00    +0.000 C 
BRANCH  19  20
ATOM     20  C   UNL     1       1.795   2.984  20.888  0.00  0.00    +0.000 C 
ATOM     21  F   UNL     1       2.588   2.892  21.991  0.00  0.00    +0.000 F 
ENDBRANCH  19  20
ENDBRANCH  11  18
ENDBRANCH   1  15
BRANCH   8  22
ATOM     22  C   UNL     1      -1.962  10.259  17.108  0.00  0.00    +0.000 C 
ATOM     23  F   UNL     1      -3.112   9.589  17.396  0.00  0.00    +0.000 F 
ATOM     24  F   UNL     1      -2.240  11.009  16.007  0.00  0.00    +0.000 F 
ATOM     25  F   UNL     1      -1.073   9.310  16.699  0.00  0.00    +0.000 F 
ENDBRANCH   8  22
BRANCH   6  26
ATOM     26  C   UNL     1      -0.110  14.688  18.726  0.00  0.00    +0.000 C 
BRANCH  26  27
ATOM     27  N   UNL     1       1.299  14.990  19.017  0.00  0.00    +0.000 NA
ATOM     28  C   UNL     1       1.612  16.389  18.683  0.00  0.00    +0.000 C 
ATOM     29  C   UNL     1       2.932  16.396  17.918  0.00  0.00    +0.000 C 
ATOM     30  C   UNL     1       3.479  14.990  18.056  0.00  0.00    +0.000 C 
ATOM     31  C   UNL     1       2.236  14.137  18.262  0.00  0.00    +0.000 C 
BRANCH  30  32
ATOM     32  O   UNL     1       4.354  14.916  19.175  0.00  0.00    +0.000 OA
ATOM     33  H   UNL     1       5.221  14.641  18.831  0.00  0.00    +0.000 HD
ENDBRANCH  30  32
ENDBRANCH  26  27
ENDBRANCH   6  26
TORSDOF 7
ENDMDL
