MODEL 1
REMARK VINA RESULT:      -7.8      0.000      0.000
REMARK  Name = 
REMARK  3 active torsions:
REMARK  status: ('A' for Active; 'I' for Inactive)
REMARK    1  A    between atoms: C_2  and  C_3
REMARK    2  A    between atoms: C_5  and  S_6
REMARK    3  A    between atoms: S_6  and  N_9
REMARK                            x       y       z     vdW  Elec       q    Type
REMARK                         _______ _______ _______ _____ _____    ______ ____
ROOT
ATOM      1  C   UNL     1       0.182  11.069  20.002  0.00  0.00    +0.000 A 
ATOM      2  C   UNL     1       0.811  12.172  20.594  0.00  0.00    +0.000 A 
ATOM      3  C   UNL     1       0.615  13.455  20.081  0.00  0.00    +0.000 A 
ATOM      4  C   UNL     1      -0.312  13.684  19.068  0.00  0.00    +0.000 A 
ATOM      5  C   UNL     1      -1.031  12.603  18.551  0.00  0.00    +0.000 A 
ATOM      6  C   UNL     1      -0.778  11.295  19.000  0.00  0.00    +0.000 A 
ATOM      7 CL   UNL     1      -1.656  10.032  18.212  0.00  0.00    +0.000 Cl
ENDROOT
BRANCH   1   9
ATOM      8  O   UNL     1       0.134   9.281  21.493  0.00  0.00    +0.000 OA
ATOM      9  C   UNL     1       0.584   9.690  20.426  0.00  0.00    +0.000 C 
ATOM     10  N   UNL     1       1.428   8.987  19.573  0.00  0.00    +0.000 N 
ATOM     11  C   UNL     1       2.103   9.419  18.319  0.00  0.00    +0.000 C 
ATOM     12  C   UNL     1       2.618   8.136  17.662  0.00  0.00    +0.000 C 
ATOM     13  N   UNL     1       2.480   7.190  18.745  0.00  0.00    +0.000 N 
ATOM     14  C   UNL     1       1.764   7.672  19.805  0.00  0.00    +0.000 A 
ATOM     15  N   UNL     1       1.583   6.744  20.705  0.00  0.00    +0.000 NA
ATOM     16  C   UNL     1       2.233   5.630  20.185  0.00  0.00    +0.000 A 
ATOM     17  C   UNL     1       2.372   4.338  20.713  0.00  0.00    +0.000 A 
ATOM     18  C   UNL     1       3.069   3.373  19.968  0.00  0.00    +0.000 A 
ATOM     19  C   UNL     1       3.622   3.684  18.722  0.00  0.00    +0.000 A 
ATOM     20  C   UNL     1       3.504   4.964  18.176  0.00  0.00    +0.000 A 
ATOM     21  C   UNL     1       2.805   5.901  18.938  0.00  0.00    +0.000 A 
ENDBRANCH   1   9
BRANCH   3  22
ATOM     22  S   UNL     1       1.687  14.756  20.635  0.00  0.00    +0.000 S 
ATOM     23  O   UNL     1       1.027  15.996  20.276  0.00  0.00    +0.000 OA
ATOM     24  O   UNL     1       2.069  14.466  22.002  0.00  0.00    +0.000 OA
BRANCH  22  25
ATOM     25  N   UNL     1       3.066  14.603  19.650  0.00  0.00    +0.000 NA
ATOM     26  C   UNL     1       4.358  15.137  20.181  0.00  0.00    +0.000 C 
ATOM     27  C   UNL     1       4.456  16.658  20.026  0.00  0.00    +0.000 C 
ATOM     28  O   UNL     1       4.267  17.058  18.662  0.00  0.00    +0.000 OA
ATOM     29  C   UNL     1       2.999  16.613  18.154  0.00  0.00    +0.000 C 
ATOM     30  C   UNL     1       2.874  15.089  18.241  0.00  0.00    +0.000 C 
ENDBRANCH  22  25
ENDBRANCH   3  22
TORSDOF 3
ENDMDL
MODEL 2
REMARK VINA RESULT:      -7.7      5.017      8.272
REMARK  Name = 
REMARK  3 active torsions:
REMARK  status: ('A' for Active; 'I' for Inactive)
REMARK    1  A    between atoms: C_2  and  C_3
REMARK    2  A    between atoms: C_5  and  S_6
REMARK    3  A    between atoms: S_6  and  N_9
REMARK                            x       y       z     vdW  Elec       q    Type
REMARK                         _______ _______ _______ _____ _____    ______ ____
ROOT
ATOM      1  C   UNL     1       3.305   5.082  19.094  0.00  0.00    +0.000 A 
ATOM      2  C   UNL     1       4.624   5.505  18.880  0.00  0.00    +0.000 A 
ATOM      3  C   UNL     1       5.509   4.712  18.148  0.00  0.00    +0.000 A 
ATOM      4  C   UNL     1       5.067   3.562  17.500  0.00  0.00    +0.000 A 
ATOM      5  C   UNL     1       3.724   3.195  17.612  0.00  0.00    +0.000 A 
ATOM      6  C   UNL     1       2.844   3.938  18.418  0.00  0.00    +0.000 A 
ATOM      7 CL   UNL     1       1.234   3.327  18.560  0.00  0.00    +0.000 Cl
ENDROOT
BRANCH   1   9
ATOM      8  O   UNL     1       2.226   5.294  21.146  0.00  0.00    +0.000 OA
ATOM      9  C   UNL     1       2.450   5.834  20.066  0.00  0.00    +0.000 C 
ATOM     10  N   UNL     1       1.988   7.083  19.668  0.00  0.00    +0.000 N 
ATOM     11  C   UNL     1       2.118   7.783  18.360  0.00  0.00    +0.000 C 
ATOM     12  C   UNL     1       1.709   9.234  18.624  0.00  0.00    +0.000 C 
ATOM     13  N   UNL     1       1.092   9.121  19.924  0.00  0.00    +0.000 N 
ATOM     14  C   UNL     1       1.296   7.910  20.525  0.00  0.00    +0.000 A 
ATOM     15  N   UNL     1       0.808   7.901  21.735  0.00  0.00    +0.000 NA
ATOM     16  C   UNL     1       0.257   9.168  21.892  0.00  0.00    +0.000 A 
ATOM     17  C   UNL     1      -0.406   9.735  22.991  0.00  0.00    +0.000 A 
ATOM     18  C   UNL     1      -0.854  11.063  22.900  0.00  0.00    +0.000 A 
ATOM     19  C   UNL     1      -0.653  11.816  21.740  0.00  0.00    +0.000 A 
ATOM     20  C   UNL     1      -0.002  11.274  20.629  0.00  0.00    +0.000 A 
ATOM     21  C   UNL     1       0.434   9.954  20.748  0.00  0.00    +0.000 A 
ENDBRANCH   1   9
BRANCH   3  22
ATOM     22  S   UNL     1       7.236   5.114  18.197  0.00  0.00    +0.000 S 
ATOM     23  O   UNL     1       7.439   5.849  19.430  0.00  0.00    +0.000 OA
ATOM     24  O   UNL     1       7.983   3.909  17.898  0.00  0.00    +0.000 OA
BRANCH  22  25
ATOM     25  N   UNL     1       7.444   6.205  16.908  0.00  0.00    +0.000 NA
ATOM     26  C   UNL     1       6.648   7.471  16.937  0.00  0.00    +0.000 C 
ATOM     27  C   UNL     1       5.204   7.250  16.475  0.00  0.00    +0.000 C 
ATOM     28  O   UNL     1       5.159   6.655  15.171  0.00  0.00    +0.000 OA
ATOM     29  C   UNL     1       5.860   5.402  15.139  0.00  0.00    +0.000 C 
ATOM     30  C   UNL     1       7.326   5.580  15.546  0.00  0.00    +0.000 C 
ENDBRANCH  22  25
ENDBRANCH   3  22
TORSDOF 3
ENDMDL
MODEL 3
REMARK VINA RESULT:      -7.7      1.134      1.778
REMARK  Name = 
REMARK  3 active torsions:
REMARK  status: ('A' for Active; 'I' for Inactive)
REMARK    1  A    between atoms: C_2  and  C_3
REMARK    2  A    between atoms: C_5  and  S_6
REMARK    3  A    between atoms: S_6  and  N_9
REMARK                            x       y       z     vdW  Elec       q    Type
REMARK                         _______ _______ _______ _____ _____    ______ ____
ROOT
ATOM      1  C   UNL     1       0.764  11.230  19.188  0.00  0.00    +0.000 A 
ATOM      2  C   UNL     1       1.534  12.209  19.831  0.00  0.00    +0.000 A 
ATOM      3  C   UNL     1       0.951  13.410  20.239  0.00  0.00    +0.000 A 
ATOM      4  C   UNL     1      -0.425  13.602  20.146  0.00  0.00    +0.000 A 
ATOM      5  C   UNL     1      -1.217  12.582  19.613  0.00  0.00    +0.000 A 
ATOM      6  C   UNL     1      -0.630  11.404  19.118  0.00  0.00    +0.000 A 
ATOM      7 CL   UNL     1      -1.702  10.262  18.389  0.00  0.00    +0.000 Cl
ENDROOT
BRANCH   1   9
ATOM      8  O   UNL     1       1.940  10.228  17.446  0.00  0.00    +0.000 OA
ATOM      9  C   UNL     1       1.455  10.059  18.562  0.00  0.00    +0.000 C 
ATOM     10  N   UNL     1       1.497   8.880  19.299  0.00  0.00    +0.000 N 
ATOM     11  C   UNL     1       0.865   8.541  20.604  0.00  0.00    +0.000 C 
ATOM     12  C   UNL     1       1.530   7.239  21.060  0.00  0.00    +0.000 C 
ATOM     13  N   UNL     1       2.195   6.823  19.848  0.00  0.00    +0.000 N 
ATOM     14  C   UNL     1       2.207   7.780  18.872  0.00  0.00    +0.000 A 
ATOM     15  N   UNL     1       2.909   7.389  17.844  0.00  0.00    +0.000 NA
ATOM     16  C   UNL     1       3.344   6.115  18.189  0.00  0.00    +0.000 A 
ATOM     17  C   UNL     1       4.137   5.206  17.473  0.00  0.00    +0.000 A 
ATOM     18  C   UNL     1       4.457   3.973  18.065  0.00  0.00    +0.000 A 
ATOM     19  C   UNL     1       3.995   3.644  19.343  0.00  0.00    +0.000 A 
ATOM     20  C   UNL     1       3.199   4.527  20.075  0.00  0.00    +0.000 A 
ATOM     21  C   UNL     1       2.899   5.745  19.463  0.00  0.00    +0.000 A 
ENDBRANCH   1   9
BRANCH   3  22
ATOM     22  S   UNL     1       2.018  14.740  20.727  0.00  0.00    +0.000 S 
ATOM     23  O   UNL     1       1.296  15.961  20.426  0.00  0.00    +0.000 OA
ATOM     24  O   UNL     1       2.505  14.454  22.061  0.00  0.00    +0.000 OA
BRANCH  22  25
ATOM     25  N   UNL     1       3.328  14.638  19.646  0.00  0.00    +0.000 NA
ATOM     26  C   UNL     1       4.630  15.233  20.078  0.00  0.00    +0.000 C 
ATOM     27  C   UNL     1       4.649  16.755  19.906  0.00  0.00    +0.000 C 
ATOM     28  O   UNL     1       4.344  17.132  18.556  0.00  0.00    +0.000 OA
ATOM     29  C   UNL     1       3.064  16.628  18.145  0.00  0.00    +0.000 C 
ATOM     30  C   UNL     1       3.013  15.100  18.251  0.00  0.00    +0.000 C 
ENDBRANCH  22  25
ENDBRANCH   3  22
TORSDOF 3
ENDMDL
MODEL 4
REMARK VINA RESULT:      -7.6      0.999      1.292
REMARK  Name = 
REMARK  3 active torsions:
REMARK  status: ('A' for Active; 'I' for Inactive)
REMARK    1  A    between atoms: C_2  and  C_3
REMARK    2  A    between atoms: C_5  and  S_6
REMARK    3  A    between atoms: S_6  and  N_9
REMARK                            x       y       z     vdW  Elec       q    Type
REMARK                         _______ _______ _______ _____ _____    ______ ____
ROOT
ATOM      1  C   UNL     1       0.384  10.813  20.097  0.00  0.00    +0.000 A 
ATOM      2  C   UNL     1       1.090  11.859  20.707  0.00  0.00    +0.000 A 
ATOM      3  C   UNL     1       0.944  13.170  20.250  0.00  0.00    +0.000 A 
ATOM      4  C   UNL     1      -0.005  13.485  19.281  0.00  0.00    +0.000 A 
ATOM      5  C   UNL     1      -0.797  12.464  18.751  0.00  0.00    +0.000 A 
ATOM      6  C   UNL     1      -0.597  11.128  19.140  0.00  0.00    +0.000 A 
ATOM      7 CL   UNL     1      -1.566   9.943  18.338  0.00  0.00    +0.000 Cl
ENDROOT
BRANCH   1   9
ATOM      8  O   UNL     1       0.244   8.952  21.489  0.00  0.00    +0.000 OA
ATOM      9  C   UNL     1       0.729   9.401  20.453  0.00  0.00    +0.000 C 
ATOM     10  N   UNL     1       1.563   8.713  19.578  0.00  0.00    +0.000 N 
ATOM     11  C   UNL     1       2.277   9.186  18.361  0.00  0.00    +0.000 C 
ATOM     12  C   UNL     1       2.759   7.921  17.645  0.00  0.00    +0.000 C 
ATOM     13  N   UNL     1       2.566   6.925  18.673  0.00  0.00    +0.000 N 
ATOM     14  C   UNL     1       1.848   7.376  19.745  0.00  0.00    +0.000 A 
ATOM     15  N   UNL     1       1.616   6.409  20.590  0.00  0.00    +0.000 NA
ATOM     16  C   UNL     1       2.236   5.301  20.023  0.00  0.00    +0.000 A 
ATOM     17  C   UNL     1       2.319   3.978  20.483  0.00  0.00    +0.000 A 
ATOM     18  C   UNL     1       2.996   3.030  19.699  0.00  0.00    +0.000 A 
ATOM     19  C   UNL     1       3.583   3.385  18.481  0.00  0.00    +0.000 A 
ATOM     20  C   UNL     1       3.520   4.696  18.003  0.00  0.00    +0.000 A 
ATOM     21  C   UNL     1       2.841   5.616  18.802  0.00  0.00    +0.000 A 
ENDBRANCH   1   9
BRANCH   3  22
ATOM     22  S   UNL     1       2.100  14.392  20.813  0.00  0.00    +0.000 S 
ATOM     23  O   UNL     1       1.792  14.616  22.212  0.00  0.00    +0.000 OA
ATOM     24  O   UNL     1       3.422  13.985  20.382  0.00  0.00    +0.000 OA
BRANCH  22  25
ATOM     25  N   UNL     1       1.667  15.797  19.959  0.00  0.00    +0.000 NA
ATOM     26  C   UNL     1       2.453  16.131  18.731  0.00  0.00    +0.000 C 
ATOM     27  C   UNL     1       3.793  16.790  19.071  0.00  0.00    +0.000 C 
ATOM     28  O   UNL     1       3.611  17.956  19.886  0.00  0.00    +0.000 OA
ATOM     29  C   UNL     1       2.917  17.643  21.104  0.00  0.00    +0.000 C 
ATOM     30  C   UNL     1       1.545  17.026  20.816  0.00  0.00    +0.000 C 
ENDBRANCH  22  25
ENDBRANCH   3  22
TORSDOF 3
ENDMDL
MODEL 5
REMARK VINA RESULT:      -7.6      4.242      9.171
REMARK  Name = 
REMARK  3 active torsions:
REMARK  status: ('A' for Active; 'I' for Inactive)
REMARK    1  A    between atoms: C_2  and  C_3
REMARK    2  A    between atoms: C_5  and  S_6
REMARK    3  A    between atoms: S_6  and  N_9
REMARK                            x       y       z     vdW  Elec       q    Type
REMARK                         _______ _______ _______ _____ _____    ______ ____
ROOT
ATOM      1  C   UNL     1       1.598   8.892  19.962  0.00  0.00    +0.000 A 
ATOM      2  C   UNL     1       1.828   7.546  20.276  0.00  0.00    +0.000 A 
ATOM      3  C   UNL     1       2.308   6.667  19.303  0.00  0.00    +0.000 A 
ATOM      4  C   UNL     1       2.700   7.135  18.052  0.00  0.00    +0.000 A 
ATOM      5  C   UNL     1       2.583   8.498  17.770  0.00  0.00    +0.000 A 
ATOM      6  C   UNL     1       2.019   9.377  18.711  0.00  0.00    +0.000 A 
ATOM      7 CL   UNL     1       1.832  11.020  18.209  0.00  0.00    +0.000 Cl
ENDROOT
BRANCH   1   9
ATOM      8  O   UNL     1       1.361   9.844  22.074  0.00  0.00    +0.000 OA
ATOM      9  C   UNL     1       0.874   9.754  20.950  0.00  0.00    +0.000 C 
ATOM     10  N   UNL     1      -0.284  10.385  20.510  0.00  0.00    +0.000 N 
ATOM     11  C   UNL     1      -1.008  10.269  19.215  0.00  0.00    +0.000 C 
ATOM     12  C   UNL     1      -2.003  11.433  19.191  0.00  0.00    +0.000 C 
ATOM     13  N   UNL     1      -1.970  11.861  20.569  0.00  0.00    +0.000 N 
ATOM     14  C   UNL     1      -0.961  11.292  21.296  0.00  0.00    +0.000 A 
ATOM     15  N   UNL     1      -0.915  11.791  22.501  0.00  0.00    +0.000 NA
ATOM     16  C   UNL     1      -1.959  12.709  22.532  0.00  0.00    +0.000 A 
ATOM     17  C   UNL     1      -2.391  13.550  23.568  0.00  0.00    +0.000 A 
ATOM     18  C   UNL     1      -3.474  14.413  23.332  0.00  0.00    +0.000 A 
ATOM     19  C   UNL     1      -4.120  14.441  22.093  0.00  0.00    +0.000 A 
ATOM     20  C   UNL     1      -3.713  13.610  21.046  0.00  0.00    +0.000 A 
ATOM     21  C   UNL     1      -2.635  12.765  21.308  0.00  0.00    +0.000 A 
ENDBRANCH   1   9
BRANCH   3  22
ATOM     22  S   UNL     1       2.255   4.927  19.642  0.00  0.00    +0.000 S 
ATOM     23  O   UNL     1       2.698   4.775  21.014  0.00  0.00    +0.000 OA
ATOM     24  O   UNL     1       0.970   4.426  19.198  0.00  0.00    +0.000 OA
BRANCH  22  25
ATOM     25  N   UNL     1       3.462   4.272  18.637  0.00  0.00    +0.000 NA
ATOM     26  C   UNL     1       3.019   3.457  17.465  0.00  0.00    +0.000 C 
ATOM     27  C   UNL     1       2.630   2.032  17.872  0.00  0.00    +0.000 C 
ATOM     28  O   UNL     1       3.701   1.377  18.566  0.00  0.00    +0.000 OA
ATOM     29  C   UNL     1       4.095   2.111  19.736  0.00  0.00    +0.000 C 
ATOM     30  C   UNL     1       4.542   3.530  19.374  0.00  0.00    +0.000 C 
ENDBRANCH  22  25
ENDBRANCH   3  22
TORSDOF 3
ENDMDL
MODEL 6
REMARK VINA RESULT:      -7.5      1.443      2.190
REMARK  Name = 
REMARK  3 active torsions:
REMARK  status: ('A' for Active; 'I' for Inactive)
REMARK    1  A    between atoms: C_2  and  C_3
REMARK    2  A    between atoms: C_5  and  S_6
REMARK    3  A    between atoms: S_6  and  N_9
REMARK                            x       y       z     vdW  Elec       q    Type
REMARK                         _______ _______ _______ _____ _____    ______ ____
ROOT
ATOM      1  C   UNL     1       0.762  11.110  19.192  0.00  0.00    +0.000 A 
ATOM      2  C   UNL     1       1.495  12.038  19.943  0.00  0.00    +0.000 A 
ATOM      3  C   UNL     1       0.896  13.218  20.386  0.00  0.00    +0.000 A 
ATOM      4  C   UNL     1      -0.469  13.432  20.214  0.00  0.00    +0.000 A 
ATOM      5  C   UNL     1      -1.232  12.457  19.567  0.00  0.00    +0.000 A 
ATOM      6  C   UNL     1      -0.622  11.305  19.040  0.00  0.00    +0.000 A 
ATOM      7 CL   UNL     1      -1.653  10.223  18.172  0.00  0.00    +0.000 Cl
ENDROOT
BRANCH   1   9
ATOM      8  O   UNL     1       1.949  10.171  17.422  0.00  0.00    +0.000 OA
ATOM      9  C   UNL     1       1.484   9.971  18.541  0.00  0.00    +0.000 C 
ATOM     10  N   UNL     1       1.573   8.784  19.261  0.00  0.00    +0.000 N 
ATOM     11  C   UNL     1       0.968   8.406  20.568  0.00  0.00    +0.000 C 
ATOM     12  C   UNL     1       1.682   7.121  20.998  0.00  0.00    +0.000 C 
ATOM     13  N   UNL     1       2.345   6.744  19.773  0.00  0.00    +0.000 N 
ATOM     14  C   UNL     1       2.314   7.714  18.810  0.00  0.00    +0.000 A 
ATOM     15  N   UNL     1       3.016   7.361  17.768  0.00  0.00    +0.000 NA
ATOM     16  C   UNL     1       3.497   6.097  18.091  0.00  0.00    +0.000 A 
ATOM     17  C   UNL     1       4.311   5.225  17.353  0.00  0.00    +0.000 A 
ATOM     18  C   UNL     1       4.678   3.995  17.924  0.00  0.00    +0.000 A 
ATOM     19  C   UNL     1       4.243   3.633  19.202  0.00  0.00    +0.000 A 
ATOM     20  C   UNL     1       3.427   4.480  19.956  0.00  0.00    +0.000 A 
ATOM     21  C   UNL     1       3.080   5.695  19.365  0.00  0.00    +0.000 A 
ENDBRANCH   1   9
BRANCH   3  22
ATOM     22  S   UNL     1       1.939  14.503  21.025  0.00  0.00    +0.000 S 
ATOM     23  O   UNL     1       1.517  14.714  22.396  0.00  0.00    +0.000 OA
ATOM     24  O   UNL     1       3.310  14.169  20.694  0.00  0.00    +0.000 OA
BRANCH  22  25
ATOM     25  N   UNL     1       1.494  15.881  20.132  0.00  0.00    +0.000 NA
ATOM     26  C   UNL     1       1.888  15.929  18.690  0.00  0.00    +0.000 C 
ATOM     27  C   UNL     1       3.357  16.328  18.512  0.00  0.00    +0.000 C 
ATOM     28  O   UNL     1       3.640  17.578  19.155  0.00  0.00    +0.000 OA
ATOM     29  C   UNL     1       3.332  17.531  20.557  0.00  0.00    +0.000 C 
ATOM     30  C   UNL     1       1.858  17.184  20.787  0.00  0.00    +0.000 C 
ENDBRANCH  22  25
ENDBRANCH   3  22
TORSDOF 3
ENDMDL
MODEL 7
REMARK VINA RESULT:      -7.5      1.309      1.734
REMARK  Name = 
REMARK  3 active torsions:
REMARK  status: ('A' for Active; 'I' for Inactive)
REMARK    1  A    between atoms: C_2  and  C_3
REMARK    2  A    between atoms: C_5  and  S_6
REMARK    3  A    between atoms: S_6  and  N_9
REMARK                            x       y       z     vdW  Elec       q    Type
REMARK                         _______ _______ _______ _____ _____    ______ ____
ROOT
ATOM      1  C   UNL     1       0.304  11.151  19.648  0.00  0.00    +0.000 A 
ATOM      2  C   UNL     1       1.127  12.242  19.960  0.00  0.00    +0.000 A 
ATOM      3  C   UNL     1       0.967  13.459  19.295  0.00  0.00    +0.000 A 
ATOM      4  C   UNL     1      -0.095  13.657  18.418  0.00  0.00    +0.000 A 
ATOM      5  C   UNL     1      -0.990  12.610  18.190  0.00  0.00    +0.000 A 
ATOM      6  C   UNL     1      -0.788  11.353  18.786  0.00  0.00    +0.000 A 
ATOM      7 CL   UNL     1      -1.903  10.108  18.346  0.00  0.00    +0.000 Cl
ENDROOT
BRANCH   1   9
ATOM      8  O   UNL     1       0.157   9.515  21.298  0.00  0.00    +0.000 OA
ATOM      9  C   UNL     1       0.642   9.804  20.207  0.00  0.00    +0.000 C 
ATOM     10  N   UNL     1       1.471   8.991  19.442  0.00  0.00    +0.000 N 
ATOM     11  C   UNL     1       2.185   9.276  18.167  0.00  0.00    +0.000 C 
ATOM     12  C   UNL     1       2.659   7.917  17.645  0.00  0.00    +0.000 C 
ATOM     13  N   UNL     1       2.463   7.084  18.807  0.00  0.00    +0.000 N 
ATOM     14  C   UNL     1       1.749   7.691  19.803  0.00  0.00    +0.000 A 
ATOM     15  N   UNL     1       1.514   6.860  20.781  0.00  0.00    +0.000 NA
ATOM     16  C   UNL     1       2.126   5.677  20.382  0.00  0.00    +0.000 A 
ATOM     17  C   UNL     1       2.203   4.436  21.031  0.00  0.00    +0.000 A 
ATOM     18  C   UNL     1       2.873   3.379  20.394  0.00  0.00    +0.000 A 
ATOM     19  C   UNL     1       3.460   3.548  19.136  0.00  0.00    +0.000 A 
ATOM     20  C   UNL     1       3.404   4.775  18.471  0.00  0.00    +0.000 A 
ATOM     21  C   UNL     1       2.731   5.806  19.127  0.00  0.00    +0.000 A 
ENDBRANCH   1   9
BRANCH   3  22
ATOM     22  S   UNL     1       2.236  14.686  19.471  0.00  0.00    +0.000 S 
ATOM     23  O   UNL     1       3.307  14.048  20.211  0.00  0.00    +0.000 OA
ATOM     24  O   UNL     1       2.463  15.282  18.170  0.00  0.00    +0.000 OA
BRANCH  22  25
ATOM     25  N   UNL     1       1.539  15.861  20.484  0.00  0.00    +0.000 NA
ATOM     26  C   UNL     1       0.649  16.881  19.850  0.00  0.00    +0.000 C 
ATOM     27  C   UNL     1       1.449  17.994  19.165  0.00  0.00    +0.000 C 
ATOM     28  O   UNL     1       2.362  18.618  20.078  0.00  0.00    +0.000 OA
ATOM     29  C   UNL     1       3.273  17.664  20.647  0.00  0.00    +0.000 C 
ATOM     30  C   UNL     1       2.519  16.555  21.388  0.00  0.00    +0.000 C 
ENDBRANCH  22  25
ENDBRANCH   3  22
TORSDOF 3
ENDMDL
MODEL 8
REMARK VINA RESULT:      -7.4      3.870      4.994
REMARK  Name = 
REMARK  3 active torsions:
REMARK  status: ('A' for Active; 'I' for Inactive)
REMARK    1  A    between atoms: C_2  and  C_3
REMARK    2  A    between atoms: C_5  and  S_6
REMARK    3  A    between atoms: S_6  and  N_9
REMARK                            x       y       z     vdW  Elec       q    Type
REMARK                         _______ _______ _______ _____ _____    ______ ____
ROOT
ATOM      1  C   UNL     1       0.163   9.533  21.063  0.00  0.00    +0.000 A 
ATOM      2  C   UNL     1      -0.382  10.211  19.964  0.00  0.00    +0.000 A 
ATOM      3  C   UNL     1      -1.232  11.302  20.159  0.00  0.00    +0.000 A 
ATOM      4  C   UNL     1      -1.441  11.824  21.432  0.00  0.00    +0.000 A 
ATOM      5  C   UNL     1      -0.806  11.224  22.523  0.00  0.00    +0.000 A 
ATOM      6  C   UNL     1      -0.019  10.073  22.349  0.00  0.00    +0.000 A 
ATOM      7 CL   UNL     1       0.628   9.363  23.785  0.00  0.00    +0.000 Cl
ENDROOT
BRANCH   1   9
ATOM      8  O   UNL     1       0.645   7.324  21.619  0.00  0.00    +0.000 OA
ATOM      9  C   UNL     1       0.881   8.240  20.834  0.00  0.00    +0.000 C 
ATOM     10  N   UNL     1       1.749   8.180  19.749  0.00  0.00    +0.000 N 
ATOM     11  C   UNL     1       2.178   9.247  18.804  0.00  0.00    +0.000 C 
ATOM     12  C   UNL     1       2.866   8.520  17.645  0.00  0.00    +0.000 C 
ATOM     13  N   UNL     1       3.043   7.201  18.204  0.00  0.00    +0.000 N 
ATOM     14  C   UNL     1       2.368   7.007  19.377  0.00  0.00    +0.000 A 
ATOM     15  N   UNL     1       2.479   5.772  19.781  0.00  0.00    +0.000 NA
ATOM     16  C   UNL     1       3.279   5.167  18.818  0.00  0.00    +0.000 A 
ATOM     17  C   UNL     1       3.735   3.843  18.724  0.00  0.00    +0.000 A 
ATOM     18  C   UNL     1       4.525   3.476  17.622  0.00  0.00    +0.000 A 
ATOM     19  C   UNL     1       4.861   4.404  16.632  0.00  0.00    +0.000 A 
ATOM     20  C   UNL     1       4.426   5.729  16.704  0.00  0.00    +0.000 A 
ATOM     21  C   UNL     1       3.641   6.065  17.808  0.00  0.00    +0.000 A 
ENDBRANCH   1   9
BRANCH   3  22
ATOM     22  S   UNL     1      -2.161  11.902  18.772  0.00  0.00    +0.000 S 
ATOM     23  O   UNL     1      -3.257  12.670  19.329  0.00  0.00    +0.000 OA
ATOM     24  O   UNL     1      -1.227  12.484  17.829  0.00  0.00    +0.000 OA
BRANCH  22  25
ATOM     25  N   UNL     1      -2.819  10.497  18.075  0.00  0.00    +0.000 NA
ATOM     26  C   UNL     1      -2.215  10.009  16.797  0.00  0.00    +0.000 C 
ATOM     27  C   UNL     1      -2.715  10.805  15.587  0.00  0.00    +0.000 C 
ATOM     28  O   UNL     1      -4.147  10.788  15.507  0.00  0.00    +0.000 OA
ATOM     29  C   UNL     1      -4.747  11.318  16.699  0.00  0.00    +0.000 C 
ATOM     30  C   UNL     1      -4.316  10.521  17.935  0.00  0.00    +0.000 C 
ENDBRANCH  22  25
ENDBRANCH   3  22
TORSDOF 3
ENDMDL
MODEL 9
REMARK VINA RESULT:      -7.3      1.302      1.648
REMARK  Name = 
REMARK  3 active torsions:
REMARK  status: ('A' for Active; 'I' for Inactive)
REMARK    1  A    between atoms: C_2  and  C_3
REMARK    2  A    between atoms: C_5  and  S_6
REMARK    3  A    between atoms: S_6  and  N_9
REMARK                            x       y       z     vdW  Elec       q    Type
REMARK                         _______ _______ _______ _____ _____    ______ ____
ROOT
ATOM      1  C   UNL     1       0.229  10.950  19.591  0.00  0.00    +0.000 A 
ATOM      2  C   UNL     1       1.078  12.033  19.858  0.00  0.00    +0.000 A 
ATOM      3  C   UNL     1       0.922  13.238  19.172  0.00  0.00    +0.000 A 
ATOM      4  C   UNL     1      -0.158  13.436  18.316  0.00  0.00    +0.000 A 
ATOM      5  C   UNL     1      -1.077  12.400  18.133  0.00  0.00    +0.000 A 
ATOM      6  C   UNL     1      -0.881  11.153  18.752  0.00  0.00    +0.000 A 
ATOM      7 CL   UNL     1      -2.028   9.918  18.367  0.00  0.00    +0.000 Cl
ENDROOT
BRANCH   1   9
ATOM      8  O   UNL     1      -0.001   9.303  21.221  0.00  0.00    +0.000 OA
ATOM      9  C   UNL     1       0.558   9.610  20.171  0.00  0.00    +0.000 C 
ATOM     10  N   UNL     1       1.464   8.821  19.469  0.00  0.00    +0.000 N 
ATOM     11  C   UNL     1       2.265   9.131  18.253  0.00  0.00    +0.000 C 
ATOM     12  C   UNL     1       2.812   7.786  17.765  0.00  0.00    +0.000 C 
ATOM     13  N   UNL     1       2.550   6.943  18.907  0.00  0.00    +0.000 N 
ATOM     14  C   UNL     1       1.747   7.527  19.847  0.00  0.00    +0.000 A 
ATOM     15  N   UNL     1       1.459   6.686  20.802  0.00  0.00    +0.000 NA
ATOM     16  C   UNL     1       2.131   5.522  20.448  0.00  0.00    +0.000 A 
ATOM     17  C   UNL     1       2.190   4.280  21.098  0.00  0.00    +0.000 A 
ATOM     18  C   UNL     1       2.933   3.243  20.511  0.00  0.00    +0.000 A 
ATOM     19  C   UNL     1       3.610   3.433  19.302  0.00  0.00    +0.000 A 
ATOM     20  C   UNL     1       3.573   4.661  18.638  0.00  0.00    +0.000 A 
ATOM     21  C   UNL     1       2.825   5.672  19.243  0.00  0.00    +0.000 A 
ENDBRANCH   1   9
BRANCH   3  22
ATOM     22  S   UNL     1       2.216  14.446  19.289  0.00  0.00    +0.000 S 
ATOM     23  O   UNL     1       3.306  13.943  18.476  0.00  0.00    +0.000 OA
ATOM     24  O   UNL     1       1.630  15.750  19.052  0.00  0.00    +0.000 OA
BRANCH  22  25
ATOM     25  N   UNL     1       2.708  14.369  20.915  0.00  0.00    +0.000 NA
ATOM     26  C   UNL     1       1.993  15.238  21.898  0.00  0.00    +0.000 C 
ATOM     27  C   UNL     1       2.491  16.687  21.850  0.00  0.00    +0.000 C 
ATOM     28  O   UNL     1       3.909  16.758  22.052  0.00  0.00    +0.000 OA
ATOM     29  C   UNL     1       4.619  15.983  21.074  0.00  0.00    +0.000 C 
ATOM     30  C   UNL     1       4.191  14.513  21.118  0.00  0.00    +0.000 C 
ENDBRANCH  22  25
ENDBRANCH   3  22
TORSDOF 3
ENDMDL
