MODEL 1
REMARK VINA RESULT:      -8.7      0.000      0.000
REMARK  Name = 
REMARK  5 active torsions:
REMARK  status: ('A' for Active; 'I' for Inactive)
REMARK    1  A    between atoms: C_7  and  S_8
REMARK    2  A    between atoms: S_8  and  N_11
REMARK    3  A    between atoms: N_11  and  C_12
REMARK    4  A    between atoms: C_17  and  C_18
REMARK    5  A    between atoms: N_20  and  C_21
REMARK                            x       y       z     vdW  Elec       q    Type
REMARK                         _______ _______ _______ _____ _____    ______ ____
ROOT
ATOM      1  S   UNL     1       2.788   7.028  18.504  0.00  0.00    +0.000 S 
ATOM      2  O   UNL     1       1.909   6.152  17.761  0.00  0.00    +0.000 OA
ATOM      3  O   UNL     1       3.944   7.643  17.890  0.00  0.00    +0.000 OA
ENDROOT
BRANCH   1  10
ATOM      4  O   UNL     1      -1.849  12.189  22.533  0.00  0.00    +0.000 OA
ATOM      5  C   UNL     1      -1.096  11.309  22.124  0.00  0.00    +0.000 C 
ATOM      6  C   UNL     1      -0.480  10.278  23.041  0.00  0.00    +0.000 C 
ATOM      7  C   UNL     1      -0.293   8.945  22.337  0.00  0.00    +0.000 C 
ATOM      8  C   UNL     1       0.403   9.135  21.017  0.00  0.00    +0.000 A 
ATOM      9  C   UNL     1       1.210   8.132  20.469  0.00  0.00    +0.000 A 
ATOM     10  C   UNL     1       1.777   8.317  19.201  0.00  0.00    +0.000 A 
ATOM     11  C   UNL     1       1.497   9.463  18.453  0.00  0.00    +0.000 A 
ATOM     12  C   UNL     1       0.677  10.459  18.994  0.00  0.00    +0.000 A 
ATOM     13  C   UNL     1       0.147  10.296  20.276  0.00  0.00    +0.000 A 
ATOM     14  N   UNL     1      -0.671  11.291  20.819  0.00  0.00    +0.000 N 
ATOM     15  H   UNL     1      -0.989  12.062  20.245  0.00  0.00    +0.000 HD
ENDBRANCH   1  10
BRANCH   1  16
ATOM     16  N   UNL     1       3.283   6.130  19.861  0.00  0.00    +0.000 N 
ATOM     17  H   UNL     1       4.261   6.336  20.079  0.00  0.00    +0.000 HD
BRANCH  16  18
ATOM     18  C   UNL     1       2.916   4.745  19.951  0.00  0.00    +0.000 A 
ATOM     19  C   UNL     1       1.754   4.429  20.671  0.00  0.00    +0.000 A 
ATOM     20  C   UNL     1       1.301   3.111  20.754  0.00  0.00    +0.000 A 
ATOM     21  C   UNL     1       2.000   2.096  20.112  0.00  0.00    +0.000 A 
ATOM     22  C   UNL     1       3.172   2.394  19.415  0.00  0.00    +0.000 A 
ATOM     23  C   UNL     1       3.653   3.714  19.333  0.00  0.00    +0.000 A 
BRANCH  23  24
ATOM     24  C   UNL     1       4.891   3.905  18.513  0.00  0.00    +0.000 C 
ATOM     25  O   UNL     1       5.957   4.159  19.069  0.00  0.00    +0.000 OA
ATOM     26  N   UNL     1       4.769   3.722  17.153  0.00  0.00    +0.000 N 
ATOM     27  H   UNL     1       3.845   3.562  16.772  0.00  0.00    +0.000 HD
BRANCH  26  28
ATOM     28  C   UNL     1       5.863   3.882  16.251  0.00  0.00    +0.000 C 
ATOM     29  C   UNL     1       6.204   5.234  15.691  0.00  0.00    +0.000 C 
ATOM     30  C   UNL     1       5.613   4.183  14.798  0.00  0.00    +0.000 C 
ENDBRANCH  26  28
ENDBRANCH  23  24
ENDBRANCH  16  18
ENDBRANCH   1  16
TORSDOF 5
ENDMDL
MODEL 2
REMARK VINA RESULT:      -8.4      1.636      1.838
REMARK  Name = 
REMARK  5 active torsions:
REMARK  status: ('A' for Active; 'I' for Inactive)
REMARK    1  A    between atoms: C_7  and  S_8
REMARK    2  A    between atoms: S_8  and  N_11
REMARK    3  A    between atoms: N_11  and  C_12
REMARK    4  A    between atoms: C_17  and  C_18
REMARK    5  A    between atoms: N_20  and  C_21
REMARK                            x       y       z     vdW  Elec       q    Type
REMARK                         _______ _______ _______ _____ _____    ______ ____
ROOT
ATOM      1  S   UNL     1       3.243   6.689  18.567  0.00  0.00    +0.000 S 
ATOM      2  O   UNL     1       4.167   7.249  17.606  0.00  0.00    +0.000 OA
ATOM      3  O   UNL     1       3.703   6.036  19.772  0.00  0.00    +0.000 OA
ENDROOT
BRANCH   1  10
ATOM      4  O   UNL     1      -1.820  12.088  21.665  0.00  0.00    +0.000 OA
ATOM      5  C   UNL     1      -0.990  11.218  21.411  0.00  0.00    +0.000 C 
ATOM      6  C   UNL     1      -0.265  10.449  22.490  0.00  0.00    +0.000 C 
ATOM      7  C   UNL     1       0.041   9.026  22.052  0.00  0.00    +0.000 C 
ATOM      8  C   UNL     1       0.698   9.018  20.699  0.00  0.00    +0.000 A 
ATOM      9  C   UNL     1       1.591   8.006  20.330  0.00  0.00    +0.000 A 
ATOM     10  C   UNL     1       2.120   7.990  19.033  0.00  0.00    +0.000 A 
ATOM     11  C   UNL     1       1.721   8.937  18.086  0.00  0.00    +0.000 A 
ATOM     12  C   UNL     1       0.816   9.939  18.450  0.00  0.00    +0.000 A 
ATOM     13  C   UNL     1       0.321   9.982  19.756  0.00  0.00    +0.000 A 
ATOM     14  N   UNL     1      -0.583  10.984  20.121  0.00  0.00    +0.000 N 
ATOM     15  H   UNL     1      -0.982  11.595  19.419  0.00  0.00    +0.000 HD
ENDBRANCH   1  10
BRANCH   1  16
ATOM     16  N   UNL     1       2.265   5.615  17.683  0.00  0.00    +0.000 N 
ATOM     17  H   UNL     1       1.326   6.006  17.572  0.00  0.00    +0.000 HD
BRANCH  16  18
ATOM     18  C   UNL     1       2.310   4.214  17.997  0.00  0.00    +0.000 A 
ATOM     19  C   UNL     1       1.145   3.630  18.516  0.00  0.00    +0.000 A 
ATOM     20  C   UNL     1       1.093   2.262  18.790  0.00  0.00    +0.000 A 
ATOM     21  C   UNL     1       2.203   1.462  18.542  0.00  0.00    +0.000 A 
ATOM     22  C   UNL     1       3.376   2.037  18.052  0.00  0.00    +0.000 A 
ATOM     23  C   UNL     1       3.452   3.417  17.783  0.00  0.00    +0.000 A 
BRANCH  23  24
ATOM     24  C   UNL     1       4.750   3.896  17.212  0.00  0.00    +0.000 C 
ATOM     25  O   UNL     1       4.887   3.979  15.994  0.00  0.00    +0.000 OA
ATOM     26  N   UNL     1       5.720   4.281  18.112  0.00  0.00    +0.000 N 
ATOM     27  H   UNL     1       5.543   4.135  19.099  0.00  0.00    +0.000 HD
BRANCH  26  28
ATOM     28  C   UNL     1       7.007   4.747  17.709  0.00  0.00    +0.000 C 
ATOM     29  C   UNL     1       7.928   5.405  18.698  0.00  0.00    +0.000 C 
ATOM     30  C   UNL     1       7.286   6.223  17.616  0.00  0.00    +0.000 C 
ENDBRANCH  26  28
ENDBRANCH  23  24
ENDBRANCH  16  18
ENDBRANCH   1  16
TORSDOF 5
ENDMDL
MODEL 3
REMARK VINA RESULT:      -8.3      2.558      4.617
REMARK  Name = 
REMARK  5 active torsions:
REMARK  status: ('A' for Active; 'I' for Inactive)
REMARK    1  A    between atoms: C_7  and  S_8
REMARK    2  A    between atoms: S_8  and  N_11
REMARK    3  A    between atoms: N_11  and  C_12
REMARK    4  A    between atoms: C_17  and  C_18
REMARK    5  A    between atoms: N_20  and  C_21
REMARK                            x       y       z     vdW  Elec       q    Type
REMARK                         _______ _______ _______ _____ _____    ______ ____
ROOT
ATOM      1  S   UNL     1       3.559   2.967  18.295  0.00  0.00    +0.000 S 
ATOM      2  O   UNL     1       4.196   2.322  19.423  0.00  0.00    +0.000 OA
ATOM      3  O   UNL     1       2.509   2.318  17.543  0.00  0.00    +0.000 OA
ENDROOT
BRANCH   1  10
ATOM      4  O   UNL     1       1.008  10.410  19.866  0.00  0.00    +0.000 OA
ATOM      5  C   UNL     1       1.370   9.330  19.405  0.00  0.00    +0.000 C 
ATOM      6  C   UNL     1       1.467   9.075  17.918  0.00  0.00    +0.000 C 
ATOM      7  C   UNL     1       2.592   8.107  17.591  0.00  0.00    +0.000 C 
ATOM      8  C   UNL     1       2.503   6.878  18.454  0.00  0.00    +0.000 A 
ATOM      9  C   UNL     1       2.972   5.639  18.005  0.00  0.00    +0.000 A 
ATOM     10  C   UNL     1       2.944   4.536  18.869  0.00  0.00    +0.000 A 
ATOM     11  C   UNL     1       2.509   4.673  20.190  0.00  0.00    +0.000 A 
ATOM     12  C   UNL     1       2.055   5.916  20.643  0.00  0.00    +0.000 A 
ATOM     13  C   UNL     1       2.042   7.006  19.770  0.00  0.00    +0.000 A 
ATOM     14  N   UNL     1       1.587   8.249  20.221  0.00  0.00    +0.000 N 
ATOM     15  H   UNL     1       1.393   8.397  21.204  0.00  0.00    +0.000 HD
ENDBRANCH   1  10
BRANCH   1  16
ATOM     16  N   UNL     1       4.825   3.393  17.243  0.00  0.00    +0.000 N 
ATOM     17  H   UNL     1       5.264   2.551  16.863  0.00  0.00    +0.000 HD
BRANCH  16  18
ATOM     18  C   UNL     1       5.735   4.433  17.634  0.00  0.00    +0.000 A 
ATOM     19  C   UNL     1       6.117   4.485  18.983  0.00  0.00    +0.000 A 
ATOM     20  C   UNL     1       7.043   5.430  19.427  0.00  0.00    +0.000 A 
ATOM     21  C   UNL     1       7.602   6.330  18.527  0.00  0.00    +0.000 A 
ATOM     22  C   UNL     1       7.208   6.306  17.188  0.00  0.00    +0.000 A 
ATOM     23  C   UNL     1       6.265   5.370  16.725  0.00  0.00    +0.000 A 
BRANCH  23  24
ATOM     24  C   UNL     1       5.969   5.418  15.258  0.00  0.00    +0.000 C 
ATOM     25  O   UNL     1       5.317   6.353  14.798  0.00  0.00    +0.000 OA
ATOM     26  N   UNL     1       6.509   4.416  14.482  0.00  0.00    +0.000 N 
ATOM     27  H   UNL     1       6.994   3.659  14.948  0.00  0.00    +0.000 HD
BRANCH  26  28
ATOM     28  C   UNL     1       6.300   4.332  13.073  0.00  0.00    +0.000 C 
ATOM     29  C   UNL     1       5.103   3.612  12.518  0.00  0.00    +0.000 C 
ATOM     30  C   UNL     1       6.472   3.020  12.356  0.00  0.00    +0.000 C 
ENDBRANCH  26  28
ENDBRANCH  23  24
ENDBRANCH  16  18
ENDBRANCH   1  16
TORSDOF 5
ENDMDL
MODEL 4
REMARK VINA RESULT:      -8.3      1.203      1.353
REMARK  Name = 
REMARK  5 active torsions:
REMARK  status: ('A' for Active; 'I' for Inactive)
REMARK    1  A    between atoms: C_7  and  S_8
REMARK    2  A    between atoms: S_8  and  N_11
REMARK    3  A    between atoms: N_11  and  C_12
REMARK    4  A    between atoms: C_17  and  C_18
REMARK    5  A    between atoms: N_20  and  C_21
REMARK                            x       y       z     vdW  Elec       q    Type
REMARK                         _______ _______ _______ _____ _____    ______ ____
ROOT
ATOM      1  S   UNL     1       2.677   7.106  18.574  0.00  0.00    +0.000 S 
ATOM      2  O   UNL     1       1.817   6.209  17.835  0.00  0.00    +0.000 OA
ATOM      3  O   UNL     1       3.835   7.722  17.966  0.00  0.00    +0.000 OA
ENDROOT
BRANCH   1  10
ATOM      4  O   UNL     1      -2.018  12.319  22.468  0.00  0.00    +0.000 OA
ATOM      5  C   UNL     1      -1.248  11.442  22.082  0.00  0.00    +0.000 C 
ATOM      6  C   UNL     1      -0.578  10.477  23.033  0.00  0.00    +0.000 C 
ATOM      7  C   UNL     1      -0.367   9.117  22.389  0.00  0.00    +0.000 C 
ATOM      8  C   UNL     1       0.290   9.262  21.044  0.00  0.00    +0.000 A 
ATOM      9  C   UNL     1       1.114   8.258  20.524  0.00  0.00    +0.000 A 
ATOM     10  C   UNL     1       1.643   8.397  19.235  0.00  0.00    +0.000 A 
ATOM     11  C   UNL     1       1.310   9.496  18.439  0.00  0.00    +0.000 A 
ATOM     12  C   UNL     1       0.473  10.492  18.953  0.00  0.00    +0.000 A 
ATOM     13  C   UNL     1      -0.020  10.377  20.255  0.00  0.00    +0.000 A 
ATOM     14  N   UNL     1      -0.855  11.372  20.770  0.00  0.00    +0.000 N 
ATOM     15  H   UNL     1      -1.211  12.104  20.167  0.00  0.00    +0.000 HD
ENDBRANCH   1  10
BRANCH   1  16
ATOM     16  N   UNL     1       3.161   6.237  19.954  0.00  0.00    +0.000 N 
ATOM     17  H   UNL     1       4.127   6.472  20.195  0.00  0.00    +0.000 HD
BRANCH  16  18
ATOM     18  C   UNL     1       2.830   4.843  20.049  0.00  0.00    +0.000 A 
ATOM     19  C   UNL     1       1.695   4.498  20.799  0.00  0.00    +0.000 A 
ATOM     20  C   UNL     1       1.276   3.169  20.890  0.00  0.00    +0.000 A 
ATOM     21  C   UNL     1       1.984   2.172  20.228  0.00  0.00    +0.000 A 
ATOM     22  C   UNL     1       3.130   2.500  19.502  0.00  0.00    +0.000 A 
ATOM     23  C   UNL     1       3.576   3.832  19.411  0.00  0.00    +0.000 A 
BRANCH  23  24
ATOM     24  C   UNL     1       4.788   4.054  18.560  0.00  0.00    +0.000 C 
ATOM     25  O   UNL     1       4.782   3.693  17.386  0.00  0.00    +0.000 OA
ATOM     26  N   UNL     1       5.843   4.719  19.144  0.00  0.00    +0.000 N 
ATOM     27  H   UNL     1       5.783   4.939  20.131  0.00  0.00    +0.000 HD
BRANCH  26  28
ATOM     28  C   UNL     1       7.063   4.989  18.455  0.00  0.00    +0.000 C 
ATOM     29  C   UNL     1       8.038   6.000  18.991  0.00  0.00    +0.000 C 
ATOM     30  C   UNL     1       7.260   6.300  17.743  0.00  0.00    +0.000 C 
ENDBRANCH  26  28
ENDBRANCH  23  24
ENDBRANCH  16  18
ENDBRANCH   1  16
TORSDOF 5
ENDMDL
MODEL 5
REMARK VINA RESULT:      -8.2      0.733      1.571
REMARK  Name = 
REMARK  5 active torsions:
REMARK  status: ('A' for Active; 'I' for Inactive)
REMARK    1  A    between atoms: C_7  and  S_8
REMARK    2  A    between atoms: S_8  and  N_11
REMARK    3  A    between atoms: N_11  and  C_12
REMARK    4  A    between atoms: C_17  and  C_18
REMARK    5  A    between atoms: N_20  and  C_21
REMARK                            x       y       z     vdW  Elec       q    Type
REMARK                         _______ _______ _______ _____ _____    ______ ____
ROOT
ATOM      1  S   UNL     1       2.764   7.002  18.555  0.00  0.00    +0.000 S 
ATOM      2  O   UNL     1       1.888   6.205  17.723  0.00  0.00    +0.000 OA
ATOM      3  O   UNL     1       3.893   7.716  18.004  0.00  0.00    +0.000 OA
ENDROOT
BRANCH   1  10
ATOM      4  O   UNL     1      -1.928  12.794  21.523  0.00  0.00    +0.000 OA
ATOM      5  C   UNL     1      -1.290  11.977  20.864  0.00  0.00    +0.000 C 
ATOM      6  C   UNL     1      -1.335  11.941  19.354  0.00  0.00    +0.000 C 
ATOM      7  C   UNL     1      -0.008  11.488  18.767  0.00  0.00    +0.000 C 
ATOM      8  C   UNL     1       0.462  10.223  19.431  0.00  0.00    +0.000 A 
ATOM      9  C   UNL     1       1.257   9.295  18.749  0.00  0.00    +0.000 A 
ATOM     10  C   UNL     1       1.739   8.169  19.427  0.00  0.00    +0.000 A 
ATOM     11  C   UNL     1       1.487   7.991  20.790  0.00  0.00    +0.000 A 
ATOM     12  C   UNL     1       0.706   8.927  21.475  0.00  0.00    +0.000 A 
ATOM     13  C   UNL     1       0.187  10.028  20.790  0.00  0.00    +0.000 A 
ATOM     14  N   UNL     1      -0.595  10.964  21.474  0.00  0.00    +0.000 N 
ATOM     15  H   UNL     1      -0.678  10.922  22.483  0.00  0.00    +0.000 HD
ENDBRANCH   1  10
BRANCH   1  16
ATOM     16  N   UNL     1       3.304   5.952  19.779  0.00  0.00    +0.000 N 
ATOM     17  H   UNL     1       4.291   6.131  19.984  0.00  0.00    +0.000 HD
BRANCH  16  18
ATOM     18  C   UNL     1       2.935   4.566  19.721  0.00  0.00    +0.000 A 
ATOM     19  C   UNL     1       1.750   4.184  20.368  0.00  0.00    +0.000 A 
ATOM     20  C   UNL     1       1.294   2.866  20.306  0.00  0.00    +0.000 A 
ATOM     21  C   UNL     1       2.016   1.916  19.592  0.00  0.00    +0.000 A 
ATOM     22  C   UNL     1       3.211   2.278  18.968  0.00  0.00    +0.000 A 
ATOM     23  C   UNL     1       3.693   3.599  19.032  0.00  0.00    +0.000 A 
BRANCH  23  24
ATOM     24  C   UNL     1       4.958   3.865  18.277  0.00  0.00    +0.000 C 
ATOM     25  O   UNL     1       5.971   4.201  18.885  0.00  0.00    +0.000 OA
ATOM     26  N   UNL     1       4.925   3.655  16.916  0.00  0.00    +0.000 N 
ATOM     27  H   UNL     1       4.037   3.424  16.488  0.00  0.00    +0.000 HD
BRANCH  26  28
ATOM     28  C   UNL     1       6.053   3.879  16.072  0.00  0.00    +0.000 C 
ATOM     29  C   UNL     1       6.232   5.192  15.363  0.00  0.00    +0.000 C 
ATOM     30  C   UNL     1       5.882   3.962  14.579  0.00  0.00    +0.000 C 
ENDBRANCH  26  28
ENDBRANCH  23  24
ENDBRANCH  16  18
ENDBRANCH   1  16
TORSDOF 5
ENDMDL
MODEL 6
REMARK VINA RESULT:      -8.0      1.703      2.372
REMARK  Name = 
REMARK  5 active torsions:
REMARK  status: ('A' for Active; 'I' for Inactive)
REMARK    1  A    between atoms: C_7  and  S_8
REMARK    2  A    between atoms: S_8  and  N_11
REMARK    3  A    between atoms: N_11  and  C_12
REMARK    4  A    between atoms: C_17  and  C_18
REMARK    5  A    between atoms: N_20  and  C_21
REMARK                            x       y       z     vdW  Elec       q    Type
REMARK                         _______ _______ _______ _____ _____    ______ ____
ROOT
ATOM      1  S   UNL     1       3.201   6.708  18.635  0.00  0.00    +0.000 S 
ATOM      2  O   UNL     1       3.930   7.456  17.634  0.00  0.00    +0.000 OA
ATOM      3  O   UNL     1       3.879   5.980  19.684  0.00  0.00    +0.000 OA
ENDROOT
BRANCH   1  10
ATOM      4  O   UNL     1      -1.940  12.347  21.114  0.00  0.00    +0.000 OA
ATOM      5  C   UNL     1      -1.206  11.559  20.523  0.00  0.00    +0.000 C 
ATOM      6  C   UNL     1      -1.045  11.572  19.021  0.00  0.00    +0.000 C 
ATOM      7  C   UNL     1       0.356  11.153  18.606  0.00  0.00    +0.000 C 
ATOM      8  C   UNL     1       0.751   9.872  19.288  0.00  0.00    +0.000 A 
ATOM      9  C   UNL     1       1.645   8.976  18.693  0.00  0.00    +0.000 A 
ATOM     10  C   UNL     1       2.049   7.834  19.395  0.00  0.00    +0.000 A 
ATOM     11  C   UNL     1       1.618   7.609  20.705  0.00  0.00    +0.000 A 
ATOM     12  C   UNL     1       0.736   8.513  21.306  0.00  0.00    +0.000 A 
ATOM     13  C   UNL     1       0.298   9.631  20.591  0.00  0.00    +0.000 A 
ATOM     14  N   UNL     1      -0.584  10.534  21.191  0.00  0.00    +0.000 N 
ATOM     15  H   UNL     1      -0.802  10.459  22.177  0.00  0.00    +0.000 HD
ENDBRANCH   1  10
BRANCH   1  16
ATOM     16  N   UNL     1       2.202   5.641  17.766  0.00  0.00    +0.000 N 
ATOM     17  H   UNL     1       1.254   6.021  17.701  0.00  0.00    +0.000 HD
BRANCH  16  18
ATOM     18  C   UNL     1       2.277   4.234  18.043  0.00  0.00    +0.000 A 
ATOM     19  C   UNL     1       1.136   3.618  18.577  0.00  0.00    +0.000 A 
ATOM     20  C   UNL     1       1.112   2.243  18.819  0.00  0.00    +0.000 A 
ATOM     21  C   UNL     1       2.229   1.468  18.524  0.00  0.00    +0.000 A 
ATOM     22  C   UNL     1       3.379   2.075  18.019  0.00  0.00    +0.000 A 
ATOM     23  C   UNL     1       3.426   3.461  17.782  0.00  0.00    +0.000 A 
BRANCH  23  24
ATOM     24  C   UNL     1       4.702   3.976  17.191  0.00  0.00    +0.000 C 
ATOM     25  O   UNL     1       4.757   4.233  15.990  0.00  0.00    +0.000 OA
ATOM     26  N   UNL     1       5.748   4.190  18.061  0.00  0.00    +0.000 N 
ATOM     27  H   UNL     1       5.633   3.907  19.026  0.00  0.00    +0.000 HD
BRANCH  26  28
ATOM     28  C   UNL     1       7.023   4.668  17.634  0.00  0.00    +0.000 C 
ATOM     29  C   UNL     1       7.903   5.445  18.573  0.00  0.00    +0.000 C 
ATOM     30  C   UNL     1       7.249   6.139  17.414  0.00  0.00    +0.000 C 
ENDBRANCH  26  28
ENDBRANCH  23  24
ENDBRANCH  16  18
ENDBRANCH   1  16
TORSDOF 5
ENDMDL
MODEL 7
REMARK VINA RESULT:      -8.0      1.255      1.353
REMARK  Name = 
REMARK  5 active torsions:
REMARK  status: ('A' for Active; 'I' for Inactive)
REMARK    1  A    between atoms: C_7  and  S_8
REMARK    2  A    between atoms: S_8  and  N_11
REMARK    3  A    between atoms: N_11  and  C_12
REMARK    4  A    between atoms: C_17  and  C_18
REMARK    5  A    between atoms: N_20  and  C_21
REMARK                            x       y       z     vdW  Elec       q    Type
REMARK                         _______ _______ _______ _____ _____    ______ ____
ROOT
ATOM      1  S   UNL     1       3.318   6.613  18.640  0.00  0.00    +0.000 S 
ATOM      2  O   UNL     1       4.301   7.141  17.719  0.00  0.00    +0.000 OA
ATOM      3  O   UNL     1       3.702   6.001  19.892  0.00  0.00    +0.000 OA
ENDROOT
BRANCH   1  10
ATOM      4  O   UNL     1      -1.848  12.165  21.261  0.00  0.00    +0.000 OA
ATOM      5  C   UNL     1      -1.003  11.291  21.082  0.00  0.00    +0.000 C 
ATOM      6  C   UNL     1      -0.267  10.630  22.224  0.00  0.00    +0.000 C 
ATOM      7  C   UNL     1       0.066   9.181  21.909  0.00  0.00    +0.000 C 
ATOM      8  C   UNL     1       0.727   9.069  20.562  0.00  0.00    +0.000 A 
ATOM      9  C   UNL     1       1.639   8.045  20.282  0.00  0.00    +0.000 A 
ATOM     10  C   UNL     1       2.171   7.929  18.992  0.00  0.00    +0.000 A 
ATOM     11  C   UNL     1       1.757   8.784  17.967  0.00  0.00    +0.000 A 
ATOM     12  C   UNL     1       0.833   9.797  18.244  0.00  0.00    +0.000 A 
ATOM     13  C   UNL     1       0.334   9.942  19.540  0.00  0.00    +0.000 A 
ATOM     14  N   UNL     1      -0.588  10.955  19.818  0.00  0.00    +0.000 N 
ATOM     15  H   UNL     1      -0.996  11.497  19.066  0.00  0.00    +0.000 HD
ENDBRANCH   1  10
BRANCH   1  16
ATOM     16  N   UNL     1       2.395   5.510  17.734  0.00  0.00    +0.000 N 
ATOM     17  H   UNL     1       1.505   5.936  17.464  0.00  0.00    +0.000 HD
BRANCH  16  18
ATOM     18  C   UNL     1       2.310   4.146  18.175  0.00  0.00    +0.000 A 
ATOM     19  C   UNL     1       1.065   3.691  18.636  0.00  0.00    +0.000 A 
ATOM     20  C   UNL     1       0.889   2.363  19.027  0.00  0.00    +0.000 A 
ATOM     21  C   UNL     1       1.955   1.472  18.955  0.00  0.00    +0.000 A 
ATOM     22  C   UNL     1       3.205   1.920  18.525  0.00  0.00    +0.000 A 
ATOM     23  C   UNL     1       3.404   3.259  18.140  0.00  0.00    +0.000 A 
BRANCH  23  24
ATOM     24  C   UNL     1       4.778   3.596  17.650  0.00  0.00    +0.000 C 
ATOM     25  O   UNL     1       5.675   3.825  18.459  0.00  0.00    +0.000 OA
ATOM     26  N   UNL     1       4.975   3.571  16.287  0.00  0.00    +0.000 N 
ATOM     27  H   UNL     1       4.170   3.420  15.690  0.00  0.00    +0.000 HD
BRANCH  26  28
ATOM     28  C   UNL     1       6.228   3.881  15.681  0.00  0.00    +0.000 C 
ATOM     29  C   UNL     1       6.456   5.218  15.031  0.00  0.00    +0.000 C 
ATOM     30  C   UNL     1       6.345   3.984  14.184  0.00  0.00    +0.000 C 
ENDBRANCH  26  28
ENDBRANCH  23  24
ENDBRANCH  16  18
ENDBRANCH   1  16
TORSDOF 5
ENDMDL
MODEL 8
REMARK VINA RESULT:      -7.8      1.404      2.089
REMARK  Name = 
REMARK  5 active torsions:
REMARK  status: ('A' for Active; 'I' for Inactive)
REMARK    1  A    between atoms: C_7  and  S_8
REMARK    2  A    between atoms: S_8  and  N_11
REMARK    3  A    between atoms: N_11  and  C_12
REMARK    4  A    between atoms: C_17  and  C_18
REMARK    5  A    between atoms: N_20  and  C_21
REMARK                            x       y       z     vdW  Elec       q    Type
REMARK                         _______ _______ _______ _____ _____    ______ ____
ROOT
ATOM      1  S   UNL     1       2.629   7.129  18.648  0.00  0.00    +0.000 S 
ATOM      2  O   UNL     1       1.761   6.292  17.849  0.00  0.00    +0.000 OA
ATOM      3  O   UNL     1       3.757   7.825  18.069  0.00  0.00    +0.000 OA
ENDROOT
BRANCH   1  10
ATOM      4  O   UNL     1      -2.119  13.008  21.343  0.00  0.00    +0.000 OA
ATOM      5  C   UNL     1      -1.475  12.165  20.723  0.00  0.00    +0.000 C 
ATOM      6  C   UNL     1      -1.530  12.049  19.218  0.00  0.00    +0.000 C 
ATOM      7  C   UNL     1      -0.202  11.584  18.645  0.00  0.00    +0.000 C 
ATOM      8  C   UNL     1       0.290  10.361  19.371  0.00  0.00    +0.000 A 
ATOM      9  C   UNL     1       1.093   9.409  18.732  0.00  0.00    +0.000 A 
ATOM     10  C   UNL     1       1.595   8.327  19.465  0.00  0.00    +0.000 A 
ATOM     11  C   UNL     1       1.356   8.218  20.837  0.00  0.00    +0.000 A 
ATOM     12  C   UNL     1       0.567   9.179  21.479  0.00  0.00    +0.000 A 
ATOM     13  C   UNL     1       0.028  10.235  20.741  0.00  0.00    +0.000 A 
ATOM     14  N   UNL     1      -0.761  11.195  21.381  0.00  0.00    +0.000 N 
ATOM     15  H   UNL     1      -0.837  11.206  22.391  0.00  0.00    +0.000 HD
ENDBRANCH   1  10
BRANCH   1  16
ATOM     16  N   UNL     1       3.172   6.137  19.918  0.00  0.00    +0.000 N 
ATOM     17  H   UNL     1       4.156   6.333  20.120  0.00  0.00    +0.000 HD
BRANCH  16  18
ATOM     18  C   UNL     1       2.814   4.746  19.917  0.00  0.00    +0.000 A 
ATOM     19  C   UNL     1       1.661   4.374  20.623  0.00  0.00    +0.000 A 
ATOM     20  C   UNL     1       1.216   3.051  20.620  0.00  0.00    +0.000 A 
ATOM     21  C   UNL     1       1.917   2.086  19.905  0.00  0.00    +0.000 A 
ATOM     22  C   UNL     1       3.081   2.439  19.222  0.00  0.00    +0.000 A 
ATOM     23  C   UNL     1       3.553   3.765  19.225  0.00  0.00    +0.000 A 
BRANCH  23  24
ATOM     24  C   UNL     1       4.783   4.019  18.411  0.00  0.00    +0.000 C 
ATOM     25  O   UNL     1       4.800   3.713  17.221  0.00  0.00    +0.000 OA
ATOM     26  N   UNL     1       5.830   4.650  19.046  0.00  0.00    +0.000 N 
ATOM     27  H   UNL     1       5.750   4.824  20.041  0.00  0.00    +0.000 HD
BRANCH  26  28
ATOM     28  C   UNL     1       7.064   4.944  18.396  0.00  0.00    +0.000 C 
ATOM     29  C   UNL     1       8.029   5.930  18.993  0.00  0.00    +0.000 C 
ATOM     30  C   UNL     1       7.280   6.282  17.742  0.00  0.00    +0.000 C 
ENDBRANCH  26  28
ENDBRANCH  23  24
ENDBRANCH  16  18
ENDBRANCH   1  16
TORSDOF 5
ENDMDL
MODEL 9
REMARK VINA RESULT:      -7.7      1.593      3.724
REMARK  Name = 
REMARK  5 active torsions:
REMARK  status: ('A' for Active; 'I' for Inactive)
REMARK    1  A    between atoms: C_7  and  S_8
REMARK    2  A    between atoms: S_8  and  N_11
REMARK    3  A    between atoms: N_11  and  C_12
REMARK    4  A    between atoms: C_17  and  C_18
REMARK    5  A    between atoms: N_20  and  C_21
REMARK                            x       y       z     vdW  Elec       q    Type
REMARK                         _______ _______ _______ _____ _____    ______ ____
ROOT
ATOM      1  S   UNL     1       2.393   6.516  19.039  0.00  0.00    +0.000 S 
ATOM      2  O   UNL     1       2.299   6.079  20.415  0.00  0.00    +0.000 OA
ATOM      3  O   UNL     1       1.689   5.836  17.975  0.00  0.00    +0.000 OA
ENDROOT
BRANCH   1  10
ATOM      4  O   UNL     1      -0.157  14.079  19.863  0.00  0.00    +0.000 OA
ATOM      5  C   UNL     1       0.207  12.910  19.965  0.00  0.00    +0.000 C 
ATOM      6  C   UNL     1       0.209  12.175  21.285  0.00  0.00    +0.000 C 
ATOM      7  C   UNL     1      -0.086  10.695  21.100  0.00  0.00    +0.000 C 
ATOM      8  C   UNL     1       0.795  10.108  20.031  0.00  0.00    +0.000 A 
ATOM      9  C   UNL     1       1.174   8.762  20.059  0.00  0.00    +0.000 A 
ATOM     10  C   UNL     1       1.929   8.235  19.003  0.00  0.00    +0.000 A 
ATOM     11  C   UNL     1       2.255   9.021  17.895  0.00  0.00    +0.000 A 
ATOM     12  C   UNL     1       1.862  10.363  17.860  0.00  0.00    +0.000 A 
ATOM     13  C   UNL     1       1.147  10.902  18.932  0.00  0.00    +0.000 A 
ATOM     14  N   UNL     1       0.754  12.243  18.898  0.00  0.00    +0.000 N 
ATOM     15  H   UNL     1       0.866  12.788  18.053  0.00  0.00    +0.000 HD
ENDBRANCH   1  10
BRANCH   1  16
ATOM     16  N   UNL     1       4.056   6.544  18.685  0.00  0.00    +0.000 N 
ATOM     17  H   UNL     1       4.409   7.503  18.734  0.00  0.00    +0.000 HD
BRANCH  16  18
ATOM     18  C   UNL     1       4.546   5.769  17.580  0.00  0.00    +0.000 A 
ATOM     19  C   UNL     1       4.922   6.462  16.420  0.00  0.00    +0.000 A 
ATOM     20  C   UNL     1       5.463   5.784  15.326  0.00  0.00    +0.000 A 
ATOM     21  C   UNL     1       5.638   4.406  15.382  0.00  0.00    +0.000 A 
ATOM     22  C   UNL     1       5.242   3.703  16.520  0.00  0.00    +0.000 A 
ATOM     23  C   UNL     1       4.682   4.367  17.627  0.00  0.00    +0.000 A 
BRANCH  23  24
ATOM     24  C   UNL     1       4.348   3.502  18.803  0.00  0.00    +0.000 C 
ATOM     25  O   UNL     1       5.247   3.099  19.538  0.00  0.00    +0.000 OA
ATOM     26  N   UNL     1       3.013   3.251  19.030  0.00  0.00    +0.000 N 
ATOM     27  H   UNL     1       2.341   3.582  18.348  0.00  0.00    +0.000 HD
BRANCH  26  28
ATOM     28  C   UNL     1       2.552   2.436  20.106  0.00  0.00    +0.000 C 
ATOM     29  C   UNL     1       1.199   2.668  20.719  0.00  0.00    +0.000 C 
ATOM     30  C   UNL     1       2.439   3.002  21.495  0.00  0.00    +0.000 C 
ENDBRANCH  26  28
ENDBRANCH  23  24
ENDBRANCH  16  18
ENDBRANCH   1  16
TORSDOF 5
ENDMDL
