MODEL 1
REMARK VINA RESULT:      -8.1      0.000      0.000
REMARK  Name = 
REMARK  5 active torsions:
REMARK  status: ('A' for Active; 'I' for Inactive)
REMARK    1  A    between atoms: C_2  and  C_3
REMARK    2  A    between atoms: C_3  and  C_4
REMARK    3  A    between atoms: N_15  and  C_16
REMARK    4  A    between atoms: N_20  and  C_21
REMARK    5  A    between atoms: C_21  and  C_22
REMARK                            x       y       z     vdW  Elec       q    Type
REMARK                         _______ _______ _______ _____ _____    ______ ____
ROOT
ATOM      1  O   UNL     1       3.868   5.941  20.078  0.00  0.00    +0.000 OA
ATOM      2  C   UNL     1       2.897   6.301  19.429  0.00  0.00    +0.000 C 
ATOM      3  N   UNL     1       2.826   6.059  18.004  0.00  0.00    +0.000 N 
ATOM      4  H   UNL     1       2.081   6.544  17.501  0.00  0.00    +0.000 HD
ENDROOT
BRANCH   3   5
ATOM      5  C   UNL     1       3.766   5.319  17.298  0.00  0.00    +0.000 A 
ATOM      6  C   UNL     1       4.943   5.797  16.762  0.00  0.00    +0.000 A 
ATOM      7  C   UNL     1       5.540   4.700  16.127  0.00  0.00    +0.000 A 
ATOM      8  N   UNL     1       4.839   3.580  16.285  0.00  0.00    +0.000 NA
ATOM      9  N   UNL     1       3.750   3.970  16.992  0.00  0.00    +0.000 N 
BRANCH   9  10
ATOM     10  C   UNL     1       2.738   2.960  17.291  0.00  0.00    +0.000 C 
BRANCH  10  11
ATOM     11  C   UNL     1       2.434   2.882  18.768  0.00  0.00    +0.000 A 
ATOM     12  C   UNL     1       1.144   3.140  19.255  0.00  0.00    +0.000 A 
ATOM     13  C   UNL     1       0.896   3.172  20.629  0.00  0.00    +0.000 A 
ATOM     14  C   UNL     1       1.920   2.891  21.531  0.00  0.00    +0.000 A 
ATOM     15  C   UNL     1       3.184   2.551  21.058  0.00  0.00    +0.000 A 
ATOM     16  C   UNL     1       3.436   2.545  19.686  0.00  0.00    +0.000 A 
ENDBRANCH  10  11
ENDBRANCH   9  10
ENDBRANCH   3   5
BRANCH   2  17
ATOM     17  C   UNL     1       1.707   6.958  20.090  0.00  0.00    +0.000 C 
BRANCH  17  18
ATOM     18  C   UNL     1       1.466   8.392  19.697  0.00  0.00    +0.000 A 
ATOM     19  N   UNL     1       1.884   8.753  18.520  0.00  0.00    +0.000 NA
ATOM     20  N   UNL     1       1.726  10.043  18.154  0.00  0.00    +0.000 N 
ATOM     21  C   UNL     1       1.222  11.046  18.933  0.00  0.00    +0.000 A 
ATOM     22  O   UNL     1       1.196  12.202  18.547  0.00  0.00    +0.000 OA
ATOM     23  C   UNL     1       0.681  10.653  20.238  0.00  0.00    +0.000 A 
ATOM     24  C   UNL     1       0.079  11.605  21.068  0.00  0.00    +0.000 A 
ATOM     25  C   UNL     1      -0.478  11.209  22.274  0.00  0.00    +0.000 A 
ATOM     26  C   UNL     1      -0.450   9.864  22.649  0.00  0.00    +0.000 A 
ATOM     27  C   UNL     1       0.161   8.912  21.822  0.00  0.00    +0.000 A 
ATOM     28  C   UNL     1       0.754   9.318  20.619  0.00  0.00    +0.000 A 
ATOM     29  H   UNL     1       2.053  10.326  17.236  0.00  0.00    +0.000 HD
ENDBRANCH  17  18
ENDBRANCH   2  17
TORSDOF 5
ENDMDL
MODEL 2
REMARK VINA RESULT:      -8.1      1.230      1.555
REMARK  Name = 
REMARK  5 active torsions:
REMARK  status: ('A' for Active; 'I' for Inactive)
REMARK    1  A    between atoms: C_2  and  C_3
REMARK    2  A    between atoms: C_3  and  C_4
REMARK    3  A    between atoms: N_15  and  C_16
REMARK    4  A    between atoms: N_20  and  C_21
REMARK    5  A    between atoms: C_21  and  C_22
REMARK                            x       y       z     vdW  Elec       q    Type
REMARK                         _______ _______ _______ _____ _____    ______ ____
ROOT
ATOM      1  O   UNL     1       3.460   6.351  19.544  0.00  0.00    +0.000 OA
ATOM      2  C   UNL     1       3.102   6.882  18.503  0.00  0.00    +0.000 C 
ATOM      3  N   UNL     1       3.980   6.929  17.354  0.00  0.00    +0.000 N 
ATOM      4  H   UNL     1       3.689   7.542  16.590  0.00  0.00    +0.000 HD
ENDROOT
BRANCH   3   5
ATOM      5  C   UNL     1       5.214   6.294  17.298  0.00  0.00    +0.000 A 
ATOM      6  C   UNL     1       6.434   6.856  17.608  0.00  0.00    +0.000 A 
ATOM      7  C   UNL     1       7.382   5.850  17.377  0.00  0.00    +0.000 A 
ATOM      8  N   UNL     1       6.821   4.702  17.004  0.00  0.00    +0.000 NA
ATOM      9  N   UNL     1       5.497   4.986  16.947  0.00  0.00    +0.000 N 
BRANCH   9  10
ATOM     10  C   UNL     1       4.594   3.925  16.507  0.00  0.00    +0.000 C 
BRANCH  10  11
ATOM     11  C   UNL     1       3.638   3.506  17.597  0.00  0.00    +0.000 A 
ATOM     12  C   UNL     1       2.249   3.592  17.414  0.00  0.00    +0.000 A 
ATOM     13  C   UNL     1       1.374   3.306  18.465  0.00  0.00    +0.000 A 
ATOM     14  C   UNL     1       1.873   2.878  19.693  0.00  0.00    +0.000 A 
ATOM     15  C   UNL     1       3.244   2.708  19.862  0.00  0.00    +0.000 A 
ATOM     16  C   UNL     1       4.117   3.018  18.819  0.00  0.00    +0.000 A 
ENDBRANCH  10  11
ENDBRANCH   9  10
ENDBRANCH   3   5
BRANCH   2  17
ATOM     17  C   UNL     1       1.713   7.458  18.350  0.00  0.00    +0.000 C 
BRANCH  17  18
ATOM     18  C   UNL     1       1.613   8.950  18.534  0.00  0.00    +0.000 A 
ATOM     19  N   UNL     1       2.083   9.689  17.574  0.00  0.00    +0.000 NA
ATOM     20  N   UNL     1       2.052  11.031  17.727  0.00  0.00    +0.000 N 
ATOM     21  C   UNL     1       1.630  11.706  18.838  0.00  0.00    +0.000 A 
ATOM     22  O   UNL     1       1.719  12.919  18.919  0.00  0.00    +0.000 OA
ATOM     23  C   UNL     1       1.032  10.900  19.906  0.00  0.00    +0.000 A 
ATOM     24  C   UNL     1       0.507  11.518  21.047  0.00  0.00    +0.000 A 
ATOM     25  C   UNL     1      -0.106  10.747  22.023  0.00  0.00    +0.000 A 
ATOM     26  C   UNL     1      -0.209   9.364  21.860  0.00  0.00    +0.000 A 
ATOM     27  C   UNL     1       0.325   8.745  20.723  0.00  0.00    +0.000 A 
ATOM     28  C   UNL     1       0.974   9.519  19.752  0.00  0.00    +0.000 A 
ATOM     29  H   UNL     1       2.421  11.609  16.979  0.00  0.00    +0.000 HD
ENDBRANCH  17  18
ENDBRANCH   2  17
TORSDOF 5
ENDMDL
MODEL 3
REMARK VINA RESULT:      -8.1      1.968      2.608
REMARK  Name = 
REMARK  5 active torsions:
REMARK  status: ('A' for Active; 'I' for Inactive)
REMARK    1  A    between atoms: C_2  and  C_3
REMARK    2  A    between atoms: C_3  and  C_4
REMARK    3  A    between atoms: N_15  and  C_16
REMARK    4  A    between atoms: N_20  and  C_21
REMARK    5  A    between atoms: C_21  and  C_22
REMARK                            x       y       z     vdW  Elec       q    Type
REMARK                         _______ _______ _______ _____ _____    ______ ____
ROOT
ATOM      1  O   UNL     1       1.679   6.510  17.641  0.00  0.00    +0.000 OA
ATOM      2  C   UNL     1       2.259   7.561  17.870  0.00  0.00    +0.000 C 
ATOM      3  N   UNL     1       3.703   7.640  17.809  0.00  0.00    +0.000 N 
ATOM      4  H   UNL     1       4.123   8.491  18.187  0.00  0.00    +0.000 HD
ENDROOT
BRANCH   3   5
ATOM      5  C   UNL     1       4.517   6.598  17.385  0.00  0.00    +0.000 A 
ATOM      6  C   UNL     1       5.067   6.452  16.129  0.00  0.00    +0.000 A 
ATOM      7  C   UNL     1       5.781   5.247  16.168  0.00  0.00    +0.000 A 
ATOM      8  N   UNL     1       5.750   4.679  17.371  0.00  0.00    +0.000 NA
ATOM      9  N   UNL     1       4.965   5.506  18.105  0.00  0.00    +0.000 N 
BRANCH   9  10
ATOM     10  C   UNL     1       4.687   5.125  19.489  0.00  0.00    +0.000 C 
BRANCH  10  11
ATOM     11  C   UNL     1       3.377   4.386  19.619  0.00  0.00    +0.000 A 
ATOM     12  C   UNL     1       3.087   3.278  18.809  0.00  0.00    +0.000 A 
ATOM     13  C   UNL     1       1.831   2.668  18.861  0.00  0.00    +0.000 A 
ATOM     14  C   UNL     1       0.870   3.122  19.761  0.00  0.00    +0.000 A 
ATOM     15  C   UNL     1       1.174   4.167  20.629  0.00  0.00    +0.000 A 
ATOM     16  C   UNL     1       2.420   4.791  20.558  0.00  0.00    +0.000 A 
ENDBRANCH  10  11
ENDBRANCH   9  10
ENDBRANCH   3   5
BRANCH   2  17
ATOM     17  C   UNL     1       1.497   8.832  18.166  0.00  0.00    +0.000 C 
BRANCH  17  18
ATOM     18  C   UNL     1       1.262   9.113  19.627  0.00  0.00    +0.000 A 
ATOM     19  N   UNL     1       1.847   8.321  20.476  0.00  0.00    +0.000 NA
ATOM     20  N   UNL     1       1.620   8.515  21.793  0.00  0.00    +0.000 N 
ATOM     21  C   UNL     1       0.769   9.435  22.337  0.00  0.00    +0.000 A 
ATOM     22  O   UNL     1       0.562   9.480  23.538  0.00  0.00    +0.000 OA
ATOM     23  C   UNL     1       0.149  10.384  21.407  0.00  0.00    +0.000 A 
ATOM     24  C   UNL     1      -0.678  11.405  21.889  0.00  0.00    +0.000 A 
ATOM     25  C   UNL     1      -1.212  12.329  21.003  0.00  0.00    +0.000 A 
ATOM     26  C   UNL     1      -0.912  12.247  19.642  0.00  0.00    +0.000 A 
ATOM     27  C   UNL     1      -0.092  11.220  19.159  0.00  0.00    +0.000 A 
ATOM     28  C   UNL     1       0.421  10.266  20.049  0.00  0.00    +0.000 A 
ATOM     29  H   UNL     1       2.076   7.896  22.456  0.00  0.00    +0.000 HD
ENDBRANCH  17  18
ENDBRANCH   2  17
TORSDOF 5
ENDMDL
MODEL 4
REMARK VINA RESULT:      -8.1      1.723      3.507
REMARK  Name = 
REMARK  5 active torsions:
REMARK  status: ('A' for Active; 'I' for Inactive)
REMARK    1  A    between atoms: C_2  and  C_3
REMARK    2  A    between atoms: C_3  and  C_4
REMARK    3  A    between atoms: N_15  and  C_16
REMARK    4  A    between atoms: N_20  and  C_21
REMARK    5  A    between atoms: C_21  and  C_22
REMARK                            x       y       z     vdW  Elec       q    Type
REMARK                         _______ _______ _______ _____ _____    ______ ____
ROOT
ATOM      1  O   UNL     1       2.006   6.158  17.637  0.00  0.00    +0.000 OA
ATOM      2  C   UNL     1       2.302   6.570  18.749  0.00  0.00    +0.000 C 
ATOM      3  N   UNL     1       2.394   5.664  19.874  0.00  0.00    +0.000 N 
ATOM      4  H   UNL     1       2.462   6.099  20.797  0.00  0.00    +0.000 HD
ENDROOT
BRANCH   3   5
ATOM      5  C   UNL     1       2.275   4.285  19.768  0.00  0.00    +0.000 A 
ATOM      6  C   UNL     1       1.107   3.558  19.855  0.00  0.00    +0.000 A 
ATOM      7  C   UNL     1       1.486   2.216  19.716  0.00  0.00    +0.000 A 
ATOM      8  N   UNL     1       2.792   2.080  19.496  0.00  0.00    +0.000 NA
ATOM      9  N   UNL     1       3.268   3.348  19.541  0.00  0.00    +0.000 N 
BRANCH   9  10
ATOM     10  C   UNL     1       4.708   3.538  19.385  0.00  0.00    +0.000 C 
BRANCH  10  11
ATOM     11  C   UNL     1       5.041   4.368  18.168  0.00  0.00    +0.000 A 
ATOM     12  C   UNL     1       5.690   5.606  18.292  0.00  0.00    +0.000 A 
ATOM     13  C   UNL     1       5.897   6.416  17.174  0.00  0.00    +0.000 A 
ATOM     14  C   UNL     1       5.510   5.976  15.911  0.00  0.00    +0.000 A 
ATOM     15  C   UNL     1       4.941   4.714  15.762  0.00  0.00    +0.000 A 
ATOM     16  C   UNL     1       4.712   3.917  16.884  0.00  0.00    +0.000 A 
ENDBRANCH  10  11
ENDBRANCH   9  10
ENDBRANCH   3   5
BRANCH   2  17
ATOM     17  C   UNL     1       2.640   8.023  18.986  0.00  0.00    +0.000 C 
BRANCH  17  18
ATOM     18  C   UNL     1       1.462   8.962  19.002  0.00  0.00    +0.000 A 
ATOM     19  N   UNL     1       1.028   9.372  17.847  0.00  0.00    +0.000 NA
ATOM     20  N   UNL     1       0.002  10.251  17.826  0.00  0.00    +0.000 N 
ATOM     21  C   UNL     1      -0.596  10.818  18.916  0.00  0.00    +0.000 A 
ATOM     22  O   UNL     1      -1.461  11.669  18.798  0.00  0.00    +0.000 OA
ATOM     23  C   UNL     1      -0.172  10.321  20.228  0.00  0.00    +0.000 A 
ATOM     24  C   UNL     1      -0.786  10.794  21.394  0.00  0.00    +0.000 A 
ATOM     25  C   UNL     1      -0.413  10.274  22.624  0.00  0.00    +0.000 A 
ATOM     26  C   UNL     1       0.559   9.274  22.694  0.00  0.00    +0.000 A 
ATOM     27  C   UNL     1       1.180   8.808  21.529  0.00  0.00    +0.000 A 
ATOM     28  C   UNL     1       0.827   9.357  20.288  0.00  0.00    +0.000 A 
ATOM     29  H   UNL     1      -0.336  10.574  16.925  0.00  0.00    +0.000 HD
ENDBRANCH  17  18
ENDBRANCH   2  17
TORSDOF 5
ENDMDL
MODEL 5
REMARK VINA RESULT:      -7.9      0.994      1.245
REMARK  Name = 
REMARK  5 active torsions:
REMARK  status: ('A' for Active; 'I' for Inactive)
REMARK    1  A    between atoms: C_2  and  C_3
REMARK    2  A    between atoms: C_3  and  C_4
REMARK    3  A    between atoms: N_15  and  C_16
REMARK    4  A    between atoms: N_20  and  C_21
REMARK    5  A    between atoms: C_21  and  C_22
REMARK                            x       y       z     vdW  Elec       q    Type
REMARK                         _______ _______ _______ _____ _____    ______ ____
ROOT
ATOM      1  O   UNL     1       1.821   6.121  18.178  0.00  0.00    +0.000 OA
ATOM      2  C   UNL     1       2.602   6.528  19.026  0.00  0.00    +0.000 C 
ATOM      3  N   UNL     1       4.019   6.252  18.921  0.00  0.00    +0.000 N 
ATOM      4  H   UNL     1       4.581   6.461  19.749  0.00  0.00    +0.000 HD
ENDROOT
BRANCH   3   5
ATOM      5  C   UNL     1       4.606   5.627  17.828  0.00  0.00    +0.000 A 
ATOM      6  C   UNL     1       4.963   6.229  16.640  0.00  0.00    +0.000 A 
ATOM      7  C   UNL     1       5.487   5.204  15.841  0.00  0.00    +0.000 A 
ATOM      8  N   UNL     1       5.526   4.035  16.478  0.00  0.00    +0.000 NA
ATOM      9  N   UNL     1       4.975   4.301  17.687  0.00  0.00    +0.000 N 
BRANCH   9  10
ATOM     10  C   UNL     1       4.821   3.188  18.622  0.00  0.00    +0.000 C 
BRANCH  10  11
ATOM     11  C   UNL     1       3.391   3.024  19.076  0.00  0.00    +0.000 A 
ATOM     12  C   UNL     1       2.377   2.685  18.167  0.00  0.00    +0.000 A 
ATOM     13  C   UNL     1       1.042   2.641  18.575  0.00  0.00    +0.000 A 
ATOM     14  C   UNL     1       0.709   2.880  19.906  0.00  0.00    +0.000 A 
ATOM     15  C   UNL     1       1.714   3.134  20.835  0.00  0.00    +0.000 A 
ATOM     16  C   UNL     1       3.044   3.203  20.421  0.00  0.00    +0.000 A 
ENDBRANCH  10  11
ENDBRANCH   9  10
ENDBRANCH   3   5
BRANCH   2  17
ATOM     17  C   UNL     1       2.136   7.382  20.182  0.00  0.00    +0.000 C 
BRANCH  17  18
ATOM     18  C   UNL     1       1.460   8.671  19.795  0.00  0.00    +0.000 A 
ATOM     19  N   UNL     1       1.606   9.060  18.563  0.00  0.00    +0.000 NA
ATOM     20  N   UNL     1       1.051  10.235  18.194  0.00  0.00    +0.000 N 
ATOM     21  C   UNL     1       0.396  11.110  19.014  0.00  0.00    +0.000 A 
ATOM     22  O   UNL     1       0.002  12.190  18.609  0.00  0.00    +0.000 OA
ATOM     23  C   UNL     1       0.158  10.665  20.390  0.00  0.00    +0.000 A 
ATOM     24  C   UNL     1      -0.570  11.467  21.276  0.00  0.00    +0.000 A 
ATOM     25  C   UNL     1      -0.835  11.008  22.557  0.00  0.00    +0.000 A 
ATOM     26  C   UNL     1      -0.388   9.746  22.954  0.00  0.00    +0.000 A 
ATOM     27  C   UNL     1       0.349   8.947  22.071  0.00  0.00    +0.000 A 
ATOM     28  C   UNL     1       0.645   9.424  20.787  0.00  0.00    +0.000 A 
ATOM     29  H   UNL     1       1.167  10.540  17.233  0.00  0.00    +0.000 HD
ENDBRANCH  17  18
ENDBRANCH   2  17
TORSDOF 5
ENDMDL
MODEL 6
REMARK VINA RESULT:      -7.9      2.113      4.105
REMARK  Name = 
REMARK  5 active torsions:
REMARK  status: ('A' for Active; 'I' for Inactive)
REMARK    1  A    between atoms: C_2  and  C_3
REMARK    2  A    between atoms: C_3  and  C_4
REMARK    3  A    between atoms: N_15  and  C_16
REMARK    4  A    between atoms: N_20  and  C_21
REMARK    5  A    between atoms: C_21  and  C_22
REMARK                            x       y       z     vdW  Elec       q    Type
REMARK                         _______ _______ _______ _____ _____    ______ ____
ROOT
ATOM      1  O   UNL     1       1.889   5.765  17.826  0.00  0.00    +0.000 OA
ATOM      2  C   UNL     1       2.334   6.526  18.673  0.00  0.00    +0.000 C 
ATOM      3  N   UNL     1       3.157   6.030  19.755  0.00  0.00    +0.000 N 
ATOM      4  H   UNL     1       3.338   6.685  20.519  0.00  0.00    +0.000 HD
ENDROOT
BRANCH   3   5
ATOM      5  C   UNL     1       3.594   4.716  19.855  0.00  0.00    +0.000 A 
ATOM      6  C   UNL     1       2.862   3.647  20.328  0.00  0.00    +0.000 A 
ATOM      7  C   UNL     1       3.722   2.543  20.263  0.00  0.00    +0.000 A 
ATOM      8  N   UNL     1       4.904   2.852  19.733  0.00  0.00    +0.000 NA
ATOM      9  N   UNL     1       4.820   4.185  19.497  0.00  0.00    +0.000 N 
BRANCH   9  10
ATOM     10  C   UNL     1       6.001   4.852  18.954  0.00  0.00    +0.000 C 
BRANCH  10  11
ATOM     11  C   UNL     1       5.903   5.049  17.460  0.00  0.00    +0.000 A 
ATOM     12  C   UNL     1       5.464   6.267  16.918  0.00  0.00    +0.000 A 
ATOM     13  C   UNL     1       5.272   6.405  15.542  0.00  0.00    +0.000 A 
ATOM     14  C   UNL     1       5.570   5.348  14.685  0.00  0.00    +0.000 A 
ATOM     15  C   UNL     1       6.086   4.163  15.202  0.00  0.00    +0.000 A 
ATOM     16  C   UNL     1       6.252   4.018  16.579  0.00  0.00    +0.000 A 
ENDBRANCH  10  11
ENDBRANCH   9  10
ENDBRANCH   3   5
BRANCH   2  17
ATOM     17  C   UNL     1       2.096   8.016  18.596  0.00  0.00    +0.000 C 
BRANCH  17  18
ATOM     18  C   UNL     1       1.556   8.645  19.854  0.00  0.00    +0.000 A 
ATOM     19  N   UNL     1       1.986   8.160  20.981  0.00  0.00    +0.000 NA
ATOM     20  N   UNL     1       1.487   8.669  22.128  0.00  0.00    +0.000 N 
ATOM     21  C   UNL     1       0.507   9.615  22.230  0.00  0.00    +0.000 A 
ATOM     22  O   UNL     1       0.058   9.953  23.312  0.00  0.00    +0.000 OA
ATOM     23  C   UNL     1       0.054  10.228  20.978  0.00  0.00    +0.000 A 
ATOM     24  C   UNL     1      -0.893  11.257  20.998  0.00  0.00    +0.000 A 
ATOM     25  C   UNL     1      -1.271  11.865  19.810  0.00  0.00    +0.000 A 
ATOM     26  C   UNL     1      -0.696  11.459  18.604  0.00  0.00    +0.000 A 
ATOM     27  C   UNL     1       0.245  10.422  18.583  0.00  0.00    +0.000 A 
ATOM     28  C   UNL     1       0.602   9.785  19.779  0.00  0.00    +0.000 A 
ATOM     29  H   UNL     1       1.822   8.289  23.008  0.00  0.00    +0.000 HD
ENDBRANCH  17  18
ENDBRANCH   2  17
TORSDOF 5
ENDMDL
MODEL 7
REMARK VINA RESULT:      -7.9      2.822      7.639
REMARK  Name = 
REMARK  5 active torsions:
REMARK  status: ('A' for Active; 'I' for Inactive)
REMARK    1  A    between atoms: C_2  and  C_3
REMARK    2  A    between atoms: C_3  and  C_4
REMARK    3  A    between atoms: N_15  and  C_16
REMARK    4  A    between atoms: N_20  and  C_21
REMARK    5  A    between atoms: C_21  and  C_22
REMARK                            x       y       z     vdW  Elec       q    Type
REMARK                         _______ _______ _______ _____ _____    ______ ____
ROOT
ATOM      1  O   UNL     1       1.448   9.248  21.527  0.00  0.00    +0.000 OA
ATOM      2  C   UNL     1       1.348   8.474  20.586  0.00  0.00    +0.000 C 
ATOM      3  N   UNL     1       1.108   8.964  19.246  0.00  0.00    +0.000 N 
ATOM      4  H   UNL     1       0.853   8.262  18.548  0.00  0.00    +0.000 HD
ENDROOT
BRANCH   3   5
ATOM      5  C   UNL     1       1.091  10.311  18.906  0.00  0.00    +0.000 A 
ATOM      6  C   UNL     1       2.168  11.056  18.474  0.00  0.00    +0.000 A 
ATOM      7  C   UNL     1       1.676  12.354  18.283  0.00  0.00    +0.000 A 
ATOM      8  N   UNL     1       0.368  12.439  18.514  0.00  0.00    +0.000 NA
ATOM      9  N   UNL     1       0.021  11.188  18.906  0.00  0.00    +0.000 N 
BRANCH   9  10
ATOM     10  C   UNL     1      -1.370  10.959  19.291  0.00  0.00    +0.000 C 
BRANCH  10  11
ATOM     11  C   UNL     1      -2.273  10.816  18.090  0.00  0.00    +0.000 A 
ATOM     12  C   UNL     1      -1.945   9.948  17.037  0.00  0.00    +0.000 A 
ATOM     13  C   UNL     1      -2.729   9.902  15.882  0.00  0.00    +0.000 A 
ATOM     14  C   UNL     1      -3.881  10.680  15.788  0.00  0.00    +0.000 A 
ATOM     15  C   UNL     1      -4.264  11.482  16.859  0.00  0.00    +0.000 A 
ATOM     16  C   UNL     1      -3.465  11.546  18.002  0.00  0.00    +0.000 A 
ENDBRANCH  10  11
ENDBRANCH   9  10
ENDBRANCH   3   5
BRANCH   2  17
ATOM     17  C   UNL     1       1.526   6.985  20.769  0.00  0.00    +0.000 C 
BRANCH  17  18
ATOM     18  C   UNL     1       2.294   6.292  19.673  0.00  0.00    +0.000 A 
ATOM     19  N   UNL     1       3.227   6.982  19.088  0.00  0.00    +0.000 NA
ATOM     20  N   UNL     1       3.904   6.407  18.070  0.00  0.00    +0.000 N 
ATOM     21  C   UNL     1       3.660   5.174  17.535  0.00  0.00    +0.000 A 
ATOM     22  O   UNL     1       4.267   4.772  16.557  0.00  0.00    +0.000 OA
ATOM     23  C   UNL     1       2.659   4.349  18.219  0.00  0.00    +0.000 A 
ATOM     24  C   UNL     1       2.401   3.045  17.782  0.00  0.00    +0.000 A 
ATOM     25  C   UNL     1       1.494   2.258  18.473  0.00  0.00    +0.000 A 
ATOM     26  C   UNL     1       0.853   2.761  19.607  0.00  0.00    +0.000 A 
ATOM     27  C   UNL     1       1.104   4.069  20.039  0.00  0.00    +0.000 A 
ATOM     28  C   UNL     1       1.997   4.877  19.321  0.00  0.00    +0.000 A 
ATOM     29  H   UNL     1       4.631   6.947  17.611  0.00  0.00    +0.000 HD
ENDBRANCH  17  18
ENDBRANCH   2  17
TORSDOF 5
ENDMDL
MODEL 8
REMARK VINA RESULT:      -7.8      1.113      1.542
REMARK  Name = 
REMARK  5 active torsions:
REMARK  status: ('A' for Active; 'I' for Inactive)
REMARK    1  A    between atoms: C_2  and  C_3
REMARK    2  A    between atoms: C_3  and  C_4
REMARK    3  A    between atoms: N_15  and  C_16
REMARK    4  A    between atoms: N_20  and  C_21
REMARK    5  A    between atoms: C_21  and  C_22
REMARK                            x       y       z     vdW  Elec       q    Type
REMARK                         _______ _______ _______ _____ _____    ______ ____
ROOT
ATOM      1  O   UNL     1       1.913   5.880  18.070  0.00  0.00    +0.000 OA
ATOM      2  C   UNL     1       2.633   6.547  18.800  0.00  0.00    +0.000 C 
ATOM      3  N   UNL     1       4.053   6.657  18.540  0.00  0.00    +0.000 N 
ATOM      4  H   UNL     1       4.615   7.073  19.285  0.00  0.00    +0.000 HD
ENDROOT
BRANCH   3   5
ATOM      5  C   UNL     1       4.676   6.133  17.416  0.00  0.00    +0.000 A 
ATOM      6  C   UNL     1       4.828   6.764  16.199  0.00  0.00    +0.000 A 
ATOM      7  C   UNL     1       5.487   5.842  15.376  0.00  0.00    +0.000 A 
ATOM      8  N   UNL     1       5.796   4.718  16.020  0.00  0.00    +0.000 NA
ATOM      9  N   UNL     1       5.286   4.901  17.262  0.00  0.00    +0.000 N 
BRANCH   9  10
ATOM     10  C   UNL     1       5.416   3.801  18.216  0.00  0.00    +0.000 C 
BRANCH  10  11
ATOM     11  C   UNL     1       4.073   3.247  18.628  0.00  0.00    +0.000 A 
ATOM     12  C   UNL     1       3.669   3.252  19.972  0.00  0.00    +0.000 A 
ATOM     13  C   UNL     1       2.475   2.640  20.358  0.00  0.00    +0.000 A 
ATOM     14  C   UNL     1       1.642   2.066  19.400  0.00  0.00    +0.000 A 
ATOM     15  C   UNL     1       1.991   2.127  18.054  0.00  0.00    +0.000 A 
ATOM     16  C   UNL     1       3.197   2.716  17.673  0.00  0.00    +0.000 A 
ENDBRANCH  10  11
ENDBRANCH   9  10
ENDBRANCH   3   5
BRANCH   2  17
ATOM     17  C   UNL     1       2.068   7.329  19.963  0.00  0.00    +0.000 C 
BRANCH  17  18
ATOM     18  C   UNL     1       1.536   8.695  19.618  0.00  0.00    +0.000 A 
ATOM     19  N   UNL     1       1.786   9.135  18.421  0.00  0.00    +0.000 NA
ATOM     20  N   UNL     1       1.364  10.376  18.094  0.00  0.00    +0.000 N 
ATOM     21  C   UNL     1       0.745  11.262  18.930  0.00  0.00    +0.000 A 
ATOM     22  O   UNL     1       0.476  12.396  18.570  0.00  0.00    +0.000 OA
ATOM     23  C   UNL     1       0.390  10.768  20.263  0.00  0.00    +0.000 A 
ATOM     24  C   UNL     1      -0.311  11.586  21.156  0.00  0.00    +0.000 A 
ATOM     25  C   UNL     1      -0.689  11.086  22.392  0.00  0.00    +0.000 A 
ATOM     26  C   UNL     1      -0.383   9.767  22.736  0.00  0.00    +0.000 A 
ATOM     27  C   UNL     1       0.327   8.951  21.847  0.00  0.00    +0.000 A 
ATOM     28  C   UNL     1       0.739   9.467  20.610  0.00  0.00    +0.000 A 
ATOM     29  H   UNL     1       1.561  10.720  17.160  0.00  0.00    +0.000 HD
ENDBRANCH  17  18
ENDBRANCH   2  17
TORSDOF 5
ENDMDL
MODEL 9
REMARK VINA RESULT:      -7.8      2.027      2.836
REMARK  Name = 
REMARK  5 active torsions:
REMARK  status: ('A' for Active; 'I' for Inactive)
REMARK    1  A    between atoms: C_2  and  C_3
REMARK    2  A    between atoms: C_3  and  C_4
REMARK    3  A    between atoms: N_15  and  C_16
REMARK    4  A    between atoms: N_20  and  C_21
REMARK    5  A    between atoms: C_21  and  C_22
REMARK                            x       y       z     vdW  Elec       q    Type
REMARK                         _______ _______ _______ _____ _____    ______ ____
ROOT
ATOM      1  O   UNL     1       3.054   9.528  17.572  0.00  0.00    +0.000 OA
ATOM      2  C   UNL     1       2.206   8.718  17.916  0.00  0.00    +0.000 C 
ATOM      3  N   UNL     1       2.488   7.299  17.905  0.00  0.00    +0.000 N 
ATOM      4  H   UNL     1       1.685   6.679  18.025  0.00  0.00    +0.000 HD
ENDROOT
BRANCH   3   5
ATOM      5  C   UNL     1       3.738   6.762  17.626  0.00  0.00    +0.000 A 
ATOM      6  C   UNL     1       4.520   7.044  16.526  0.00  0.00    +0.000 A 
ATOM      7  C   UNL     1       5.667   6.252  16.665  0.00  0.00    +0.000 A 
ATOM      8  N   UNL     1       5.664   5.551  17.797  0.00  0.00    +0.000 NA
ATOM      9  N   UNL     1       4.476   5.861  18.372  0.00  0.00    +0.000 N 
BRANCH   9  10
ATOM     10  C   UNL     1       4.141   5.199  19.631  0.00  0.00    +0.000 C 
BRANCH  10  11
ATOM     11  C   UNL     1       3.012   4.210  19.468  0.00  0.00    +0.000 A 
ATOM     12  C   UNL     1       3.051   3.226  18.469  0.00  0.00    +0.000 A 
ATOM     13  C   UNL     1       1.957   2.385  18.254  0.00  0.00    +0.000 A 
ATOM     14  C   UNL     1       0.832   2.480  19.070  0.00  0.00    +0.000 A 
ATOM     15  C   UNL     1       0.813   3.395  20.119  0.00  0.00    +0.000 A 
ATOM     16  C   UNL     1       1.898   4.251  20.315  0.00  0.00    +0.000 A 
ENDBRANCH  10  11
ENDBRANCH   9  10
ENDBRANCH   3   5
BRANCH   2  17
ATOM     17  C   UNL     1       0.852   9.161  18.422  0.00  0.00    +0.000 C 
BRANCH  17  18
ATOM     18  C   UNL     1       0.761   9.369  19.911  0.00  0.00    +0.000 A 
ATOM     19  N   UNL     1       1.513   8.610  20.653  0.00  0.00    +0.000 NA
ATOM     20  N   UNL     1       1.421   8.737  21.995  0.00  0.00    +0.000 N 
ATOM     21  C   UNL     1       0.555   9.550  22.670  0.00  0.00    +0.000 A 
ATOM     22  O   UNL     1       0.485   9.535  23.887  0.00  0.00    +0.000 OA
ATOM     23  C   UNL     1      -0.254  10.464  21.859  0.00  0.00    +0.000 A 
ATOM     24  C   UNL     1      -1.114  11.381  22.474  0.00  0.00    +0.000 A 
ATOM     25  C   UNL     1      -1.830  12.277  21.695  0.00  0.00    +0.000 A 
ATOM     26  C   UNL     1      -1.683  12.271  20.307  0.00  0.00    +0.000 A 
ATOM     27  C   UNL     1      -0.830  11.346  19.690  0.00  0.00    +0.000 A 
ATOM     28  C   UNL     1      -0.131  10.418  20.475  0.00  0.00    +0.000 A 
ATOM     29  H   UNL     1       2.006   8.144  22.575  0.00  0.00    +0.000 HD
ENDBRANCH  17  18
ENDBRANCH   2  17
TORSDOF 5
ENDMDL
