MODEL 1
REMARK VINA RESULT:      -9.2      0.000      0.000
REMARK  Name = 
REMARK  5 active torsions:
REMARK  status: ('A' for Active; 'I' for Inactive)
REMARK    1  A    between atoms: C_1  and  N_2
REMARK    2  A    between atoms: C_4  and  C_5
REMARK    3  A    between atoms: C_5  and  N_7
REMARK    4  A    between atoms: N_12  and  C_13
REMARK    5  A    between atoms: C_13  and  C_14
REMARK                            x       y       z     vdW  Elec       q    Type
REMARK                         _______ _______ _______ _____ _____    ______ ____
ROOT
ATOM      1  C   UNL     1       2.114   8.468  18.335  0.00  0.00    +0.000 C 
ATOM      2  O   UNL     1       2.123   9.252  17.399  0.00  0.00    +0.000 OA
ENDROOT
BRANCH   1   6
ATOM      3  C   UNL     1       5.378   6.001  15.853  0.00  0.00    +0.000 C 
ATOM      4  N   UNL     1       4.451   5.935  16.964  0.00  0.00    +0.000 N 
ATOM      5  N   UNL     1       3.866   7.111  17.354  0.00  0.00    +0.000 NA
ATOM      6  C   UNL     1       2.912   7.114  18.240  0.00  0.00    +0.000 A 
ATOM      7  C   UNL     1       2.503   5.864  18.938  0.00  0.00    +0.000 A 
ATOM      8  C   UNL     1       1.714   5.797  20.087  0.00  0.00    +0.000 A 
ATOM      9  C   UNL     1       1.223   4.558  20.528  0.00  0.00    +0.000 A 
ATOM     10  C   UNL     1       1.505   3.382  19.824  0.00  0.00    +0.000 A 
ATOM     11  C   UNL     1       2.380   3.434  18.750  0.00  0.00    +0.000 A 
ATOM     12  C   UNL     1       2.909   4.664  18.344  0.00  0.00    +0.000 A 
ATOM     13  C   UNL     1       3.959   4.681  17.307  0.00  0.00    +0.000 A 
ATOM     14  O   UNL     1       4.361   3.624  16.830  0.00  0.00    +0.000 OA
ENDBRANCH   1   6
BRANCH   1  15
ATOM     15  N   UNL     1       1.458   8.621  19.524  0.00  0.00    +0.000 NA
ATOM     16  C   UNL     1       0.743   9.499  20.083  0.00  0.00    +0.000 A 
ATOM     17  S   UNL     1       0.487   8.944  21.841  0.00  0.00    +0.000 S 
ATOM     18  C   UNL     1      -0.118  10.492  22.301  0.00  0.00    +0.000 A 
ATOM     19  C   UNL     1      -0.277  11.271  21.231  0.00  0.00    +0.000 A 
ATOM     20  N   UNL     1       0.090  10.744  19.987  0.00  0.00    +0.000 N 
BRANCH  20  21
ATOM     21  C   UNL     1      -0.294  11.480  18.774  0.00  0.00    +0.000 C 
BRANCH  21  22
ATOM     22  C   UNL     1      -1.600  10.946  18.273  0.00  0.00    +0.000 A 
ATOM     23  C   UNL     1      -1.573   9.950  17.292  0.00  0.00    +0.000 A 
ATOM     24  C   UNL     1      -2.624   9.831  16.406  0.00  0.00    +0.000 A 
ATOM     25  C   UNL     1      -3.761  10.624  16.549  0.00  0.00    +0.000 A 
ATOM     26  C   UNL     1      -3.891  11.461  17.662  0.00  0.00    +0.000 A 
ATOM     27  C   UNL     1      -2.826  11.589  18.529  0.00  0.00    +0.000 A 
ATOM     28  F   UNL     1      -2.946  12.423  19.582  0.00  0.00    +0.000 F 
ENDBRANCH  21  22
ENDBRANCH  20  21
ENDBRANCH   1  15
TORSDOF 4
ENDMDL
MODEL 2
REMARK VINA RESULT:      -9.0      0.978      1.210
REMARK  Name = 
REMARK  5 active torsions:
REMARK  status: ('A' for Active; 'I' for Inactive)
REMARK    1  A    between atoms: C_1  and  N_2
REMARK    2  A    between atoms: C_4  and  C_5
REMARK    3  A    between atoms: C_5  and  N_7
REMARK    4  A    between atoms: N_12  and  C_13
REMARK    5  A    between atoms: C_13  and  C_14
REMARK                            x       y       z     vdW  Elec       q    Type
REMARK                         _______ _______ _______ _____ _____    ______ ____
ROOT
ATOM      1  C   UNL     1       2.409   8.186  18.097  0.00  0.00    +0.000 C 
ATOM      2  O   UNL     1       2.238   8.891  17.115  0.00  0.00    +0.000 OA
ENDROOT
BRANCH   1   6
ATOM      3  C   UNL     1       6.935   6.948  17.161  0.00  0.00    +0.000 C 
ATOM      4  N   UNL     1       5.627   6.436  17.518  0.00  0.00    +0.000 N 
ATOM      5  N   UNL     1       4.674   7.359  17.862  0.00  0.00    +0.000 NA
ATOM      6  C   UNL     1       3.437   6.995  18.047  0.00  0.00    +0.000 A 
ATOM      7  C   UNL     1       3.040   5.561  18.004  0.00  0.00    +0.000 A 
ATOM      8  C   UNL     1       1.830   5.040  18.464  0.00  0.00    +0.000 A 
ATOM      9  C   UNL     1       1.486   3.709  18.178  0.00  0.00    +0.000 A 
ATOM     10  C   UNL     1       2.338   2.894  17.424  0.00  0.00    +0.000 A 
ATOM     11  C   UNL     1       3.587   3.376  17.064  0.00  0.00    +0.000 A 
ATOM     12  C   UNL     1       3.947   4.686  17.396  0.00  0.00    +0.000 A 
ATOM     13  C   UNL     1       5.334   5.129  17.149  0.00  0.00    +0.000 A 
ATOM     14  O   UNL     1       6.148   4.343  16.674  0.00  0.00    +0.000 OA
ENDBRANCH   1   6
BRANCH   1  15
ATOM     15  N   UNL     1       1.779   8.299  19.305  0.00  0.00    +0.000 NA
ATOM     16  C   UNL     1       1.087   9.163  19.913  0.00  0.00    +0.000 A 
ATOM     17  S   UNL     1       0.862   8.543  21.654  0.00  0.00    +0.000 S 
ATOM     18  C   UNL     1       0.285  10.079  22.185  0.00  0.00    +0.000 A 
ATOM     19  C   UNL     1       0.112  10.899  21.150  0.00  0.00    +0.000 A 
ATOM     20  N   UNL     1       0.446  10.417  19.879  0.00  0.00    +0.000 N 
BRANCH  20  21
ATOM     21  C   UNL     1       0.044  11.204  18.704  0.00  0.00    +0.000 C 
BRANCH  21  22
ATOM     22  C   UNL     1      -1.336  10.791  18.291  0.00  0.00    +0.000 A 
ATOM     23  C   UNL     1      -1.463   9.811  17.302  0.00  0.00    +0.000 A 
ATOM     24  C   UNL     1      -2.579   9.796  16.490  0.00  0.00    +0.000 A 
ATOM     25  C   UNL     1      -3.629  10.683  16.718  0.00  0.00    +0.000 A 
ATOM     26  C   UNL     1      -3.609  11.513  17.844  0.00  0.00    +0.000 A 
ATOM     27  C   UNL     1      -2.479  11.535  18.636  0.00  0.00    +0.000 A 
ATOM     28  F   UNL     1      -2.454  12.362  19.702  0.00  0.00    +0.000 F 
ENDBRANCH  21  22
ENDBRANCH  20  21
ENDBRANCH   1  15
TORSDOF 4
ENDMDL
MODEL 3
REMARK VINA RESULT:      -8.9      1.532      2.758
REMARK  Name = 
REMARK  5 active torsions:
REMARK  status: ('A' for Active; 'I' for Inactive)
REMARK    1  A    between atoms: C_1  and  N_2
REMARK    2  A    between atoms: C_4  and  C_5
REMARK    3  A    between atoms: C_5  and  N_7
REMARK    4  A    between atoms: N_12  and  C_13
REMARK    5  A    between atoms: C_13  and  C_14
REMARK                            x       y       z     vdW  Elec       q    Type
REMARK                         _______ _______ _______ _____ _____    ______ ____
ROOT
ATOM      1  C   UNL     1       2.403   7.893  18.318  0.00  0.00    +0.000 C 
ATOM      2  O   UNL     1       2.428   8.611  17.331  0.00  0.00    +0.000 OA
ENDROOT
BRANCH   1   6
ATOM      3  C   UNL     1       2.178   3.314  19.690  0.00  0.00    +0.000 C 
ATOM      4  N   UNL     1       3.016   4.309  19.050  0.00  0.00    +0.000 N 
ATOM      5  N   UNL     1       2.427   5.507  18.740  0.00  0.00    +0.000 NA
ATOM      6  C   UNL     1       3.144   6.503  18.305  0.00  0.00    +0.000 A 
ATOM      7  C   UNL     1       4.597   6.344  18.023  0.00  0.00    +0.000 A 
ATOM      8  C   UNL     1       5.385   7.236  17.296  0.00  0.00    +0.000 A 
ATOM      9  C   UNL     1       6.781   7.084  17.277  0.00  0.00    +0.000 A 
ATOM     10  C   UNL     1       7.399   6.051  17.989  0.00  0.00    +0.000 A 
ATOM     11  C   UNL     1       6.610   5.099  18.618  0.00  0.00    +0.000 A 
ATOM     12  C   UNL     1       5.217   5.226  18.591  0.00  0.00    +0.000 A 
ATOM     13  C   UNL     1       4.391   4.124  19.124  0.00  0.00    +0.000 A 
ATOM     14  O   UNL     1       4.933   3.115  19.565  0.00  0.00    +0.000 OA
ENDBRANCH   1   6
BRANCH   1  15
ATOM     15  N   UNL     1       1.773   8.153  19.503  0.00  0.00    +0.000 NA
ATOM     16  C   UNL     1       1.126   9.106  20.021  0.00  0.00    +0.000 A 
ATOM     17  S   UNL     1       0.856   8.664  21.808  0.00  0.00    +0.000 S 
ATOM     18  C   UNL     1       0.361  10.272  22.189  0.00  0.00    +0.000 A 
ATOM     19  C   UNL     1       0.241  11.001  21.080  0.00  0.00    +0.000 A 
ATOM     20  N   UNL     1       0.557  10.385  19.863  0.00  0.00    +0.000 N 
BRANCH  20  21
ATOM     21  C   UNL     1       0.207  11.080  18.616  0.00  0.00    +0.000 C 
BRANCH  21  22
ATOM     22  C   UNL     1      -1.202  10.733  18.244  0.00  0.00    +0.000 A 
ATOM     23  C   UNL     1      -1.405   9.722  17.300  0.00  0.00    +0.000 A 
ATOM     24  C   UNL     1      -2.536   9.739  16.508  0.00  0.00    +0.000 A 
ATOM     25  C   UNL     1      -3.528  10.695  16.716  0.00  0.00    +0.000 A 
ATOM     26  C   UNL     1      -3.437  11.569  17.805  0.00  0.00    +0.000 A 
ATOM     27  C   UNL     1      -2.294  11.557  18.576  0.00  0.00    +0.000 A 
ATOM     28  F   UNL     1      -2.199  12.424  19.605  0.00  0.00    +0.000 F 
ENDBRANCH  21  22
ENDBRANCH  20  21
ENDBRANCH   1  15
TORSDOF 4
ENDMDL
MODEL 4
REMARK VINA RESULT:      -8.6      1.013      1.354
REMARK  Name = 
REMARK  5 active torsions:
REMARK  status: ('A' for Active; 'I' for Inactive)
REMARK    1  A    between atoms: C_1  and  N_2
REMARK    2  A    between atoms: C_4  and  C_5
REMARK    3  A    between atoms: C_5  and  N_7
REMARK    4  A    between atoms: N_12  and  C_13
REMARK    5  A    between atoms: C_13  and  C_14
REMARK                            x       y       z     vdW  Elec       q    Type
REMARK                         _______ _______ _______ _____ _____    ______ ____
ROOT
ATOM      1  C   UNL     1       2.245   8.291  18.338  0.00  0.00    +0.000 C 
ATOM      2  O   UNL     1       2.346   9.090  17.420  0.00  0.00    +0.000 OA
ENDROOT
BRANCH   1   6
ATOM      3  C   UNL     1       5.534   5.732  15.984  0.00  0.00    +0.000 C 
ATOM      4  N   UNL     1       4.571   5.696  17.067  0.00  0.00    +0.000 N 
ATOM      5  N   UNL     1       3.998   6.888  17.426  0.00  0.00    +0.000 NA
ATOM      6  C   UNL     1       3.017   6.919  18.282  0.00  0.00    +0.000 A 
ATOM      7  C   UNL     1       2.561   5.685  18.979  0.00  0.00    +0.000 A 
ATOM      8  C   UNL     1       1.736   5.647  20.103  0.00  0.00    +0.000 A 
ATOM      9  C   UNL     1       1.206   4.422  20.542  0.00  0.00    +0.000 A 
ATOM     10  C   UNL     1       1.486   3.234  19.859  0.00  0.00    +0.000 A 
ATOM     11  C   UNL     1       2.395   3.256  18.812  0.00  0.00    +0.000 A 
ATOM     12  C   UNL     1       2.961   4.471  18.411  0.00  0.00    +0.000 A 
ATOM     13  C   UNL     1       4.043   4.456  17.407  0.00  0.00    +0.000 A 
ATOM     14  O   UNL     1       4.438   3.386  16.953  0.00  0.00    +0.000 OA
ENDBRANCH   1   6
BRANCH   1  15
ATOM     15  N   UNL     1       1.498   8.438  19.472  0.00  0.00    +0.000 NA
ATOM     16  C   UNL     1       0.840   9.356  20.038  0.00  0.00    +0.000 A 
ATOM     17  S   UNL     1       0.351   8.714  21.715  0.00  0.00    +0.000 S 
ATOM     18  C   UNL     1      -0.111  10.288  22.245  0.00  0.00    +0.000 A 
ATOM     19  C   UNL     1      -0.073  11.154  21.234  0.00  0.00    +0.000 A 
ATOM     20  N   UNL     1       0.349  10.676  19.987  0.00  0.00    +0.000 N 
BRANCH  20  21
ATOM     21  C   UNL     1       0.173  11.539  18.810  0.00  0.00    +0.000 C 
BRANCH  21  22
ATOM     22  C   UNL     1      -1.206  11.340  18.263  0.00  0.00    +0.000 A 
ATOM     23  C   UNL     1      -2.215  12.212  18.682  0.00  0.00    +0.000 A 
ATOM     24  C   UNL     1      -3.527  11.784  18.708  0.00  0.00    +0.000 A 
ATOM     25  C   UNL     1      -3.867  10.525  18.217  0.00  0.00    +0.000 A 
ATOM     26  C   UNL     1      -2.898   9.737  17.586  0.00  0.00    +0.000 A 
ATOM     27  C   UNL     1      -1.587  10.166  17.586  0.00  0.00    +0.000 A 
ATOM     28  F   UNL     1      -0.652   9.386  17.005  0.00  0.00    +0.000 F 
ENDBRANCH  21  22
ENDBRANCH  20  21
ENDBRANCH   1  15
TORSDOF 4
ENDMDL
MODEL 5
REMARK VINA RESULT:      -8.5      1.801      3.085
REMARK  Name = 
REMARK  5 active torsions:
REMARK  status: ('A' for Active; 'I' for Inactive)
REMARK    1  A    between atoms: C_1  and  N_2
REMARK    2  A    between atoms: C_4  and  C_5
REMARK    3  A    between atoms: C_5  and  N_7
REMARK    4  A    between atoms: N_12  and  C_13
REMARK    5  A    between atoms: C_13  and  C_14
REMARK                            x       y       z     vdW  Elec       q    Type
REMARK                         _______ _______ _______ _____ _____    ______ ____
ROOT
ATOM      1  C   UNL     1       2.419   7.881  18.425  0.00  0.00    +0.000 C 
ATOM      2  O   UNL     1       2.582   8.649  17.489  0.00  0.00    +0.000 OA
ENDROOT
BRANCH   1   6
ATOM      3  C   UNL     1       2.170   3.383  20.039  0.00  0.00    +0.000 C 
ATOM      4  N   UNL     1       2.979   4.316  19.280  0.00  0.00    +0.000 N 
ATOM      5  N   UNL     1       2.404   5.519  18.962  0.00  0.00    +0.000 NA
ATOM      6  C   UNL     1       3.111   6.466  18.417  0.00  0.00    +0.000 A 
ATOM      7  C   UNL     1       4.528   6.241  18.019  0.00  0.00    +0.000 A 
ATOM      8  C   UNL     1       5.277   7.069  17.183  0.00  0.00    +0.000 A 
ATOM      9  C   UNL     1       6.660   6.866  17.051  0.00  0.00    +0.000 A 
ATOM     10  C   UNL     1       7.306   5.846  17.758  0.00  0.00    +0.000 A 
ATOM     11  C   UNL     1       6.545   4.954  18.500  0.00  0.00    +0.000 A 
ATOM     12  C   UNL     1       5.160   5.129  18.587  0.00  0.00    +0.000 A 
ATOM     13  C   UNL     1       4.349   4.085  19.243  0.00  0.00    +0.000 A 
ATOM     14  O   UNL     1       4.895   3.079  19.686  0.00  0.00    +0.000 OA
ENDBRANCH   1   6
BRANCH   1  15
ATOM     15  N   UNL     1       1.663   8.101  19.542  0.00  0.00    +0.000 NA
ATOM     16  C   UNL     1       1.072   9.076  20.085  0.00  0.00    +0.000 A 
ATOM     17  S   UNL     1       0.496   8.494  21.756  0.00  0.00    +0.000 S 
ATOM     18  C   UNL     1       0.155  10.106  22.262  0.00  0.00    +0.000 A 
ATOM     19  C   UNL     1       0.285  10.956  21.244  0.00  0.00    +0.000 A 
ATOM     20  N   UNL     1       0.693  10.431  20.012  0.00  0.00    +0.000 N 
BRANCH  20  21
ATOM     21  C   UNL     1       0.613  11.294  18.824  0.00  0.00    +0.000 C 
BRANCH  21  22
ATOM     22  C   UNL     1      -0.781  11.244  18.279  0.00  0.00    +0.000 A 
ATOM     23  C   UNL     1      -1.680  12.238  18.675  0.00  0.00    +0.000 A 
ATOM     24  C   UNL     1      -3.033  11.967  18.709  0.00  0.00    +0.000 A 
ATOM     25  C   UNL     1      -3.519  10.745  18.248  0.00  0.00    +0.000 A 
ATOM     26  C   UNL     1      -2.649   9.833  17.640  0.00  0.00    +0.000 A 
ATOM     27  C   UNL     1      -1.297  10.106  17.631  0.00  0.00    +0.000 A 
ATOM     28  F   UNL     1      -0.460   9.208  17.071  0.00  0.00    +0.000 F 
ENDBRANCH  21  22
ENDBRANCH  20  21
ENDBRANCH   1  15
TORSDOF 4
ENDMDL
MODEL 6
REMARK VINA RESULT:      -8.5      1.435      1.853
REMARK  Name = 
REMARK  5 active torsions:
REMARK  status: ('A' for Active; 'I' for Inactive)
REMARK    1  A    between atoms: C_1  and  N_2
REMARK    2  A    between atoms: C_4  and  C_5
REMARK    3  A    between atoms: C_5  and  N_7
REMARK    4  A    between atoms: N_12  and  C_13
REMARK    5  A    between atoms: C_13  and  C_14
REMARK                            x       y       z     vdW  Elec       q    Type
REMARK                         _______ _______ _______ _____ _____    ______ ____
ROOT
ATOM      1  C   UNL     1       2.541   8.131  18.055  0.00  0.00    +0.000 C 
ATOM      2  O   UNL     1       2.467   8.881  17.094  0.00  0.00    +0.000 OA
ENDROOT
BRANCH   1   6
ATOM      3  C   UNL     1       7.046   6.774  17.181  0.00  0.00    +0.000 C 
ATOM      4  N   UNL     1       5.724   6.299  17.536  0.00  0.00    +0.000 N 
ATOM      5  N   UNL     1       4.788   7.249  17.854  0.00  0.00    +0.000 NA
ATOM      6  C   UNL     1       3.543   6.916  18.035  0.00  0.00    +0.000 A 
ATOM      7  C   UNL     1       3.113   5.491  18.015  0.00  0.00    +0.000 A 
ATOM      8  C   UNL     1       1.889   5.006  18.474  0.00  0.00    +0.000 A 
ATOM      9  C   UNL     1       1.517   3.678  18.210  0.00  0.00    +0.000 A 
ATOM     10  C   UNL     1       2.356   2.830  17.478  0.00  0.00    +0.000 A 
ATOM     11  C   UNL     1       3.619   3.277  17.120  0.00  0.00    +0.000 A 
ATOM     12  C   UNL     1       4.006   4.585  17.431  0.00  0.00    +0.000 A 
ATOM     13  C   UNL     1       5.404   4.992  17.188  0.00  0.00    +0.000 A 
ATOM     14  O   UNL     1       6.205   4.179  16.734  0.00  0.00    +0.000 OA
ENDBRANCH   1   6
BRANCH   1  15
ATOM     15  N   UNL     1       1.817   8.209  19.212  0.00  0.00    +0.000 NA
ATOM     16  C   UNL     1       1.191   9.097  19.857  0.00  0.00    +0.000 A 
ATOM     17  S   UNL     1       0.716   8.341  21.490  0.00  0.00    +0.000 S 
ATOM     18  C   UNL     1       0.302   9.881  22.145  0.00  0.00    +0.000 A 
ATOM     19  C   UNL     1       0.343  10.820  21.201  0.00  0.00    +0.000 A 
ATOM     20  N   UNL     1       0.732  10.427  19.915  0.00  0.00    +0.000 N 
BRANCH  20  21
ATOM     21  C   UNL     1       0.556  11.380  18.809  0.00  0.00    +0.000 C 
BRANCH  21  22
ATOM     22  C   UNL     1      -0.860  11.310  18.326  0.00  0.00    +0.000 A 
ATOM     23  C   UNL     1      -1.764  12.271  18.789  0.00  0.00    +0.000 A 
ATOM     24  C   UNL     1      -3.106  11.965  18.875  0.00  0.00    +0.000 A 
ATOM     25  C   UNL     1      -3.583  10.743  18.404  0.00  0.00    +0.000 A 
ATOM     26  C   UNL     1      -2.721   9.870  17.733  0.00  0.00    +0.000 A 
ATOM     27  C   UNL     1      -1.377  10.176  17.672  0.00  0.00    +0.000 A 
ATOM     28  F   UNL     1      -0.545   9.314  17.051  0.00  0.00    +0.000 F 
ENDBRANCH  21  22
ENDBRANCH  20  21
ENDBRANCH   1  15
TORSDOF 4
ENDMDL
MODEL 7
REMARK VINA RESULT:      -8.3      3.519      7.661
REMARK  Name = 
REMARK  5 active torsions:
REMARK  status: ('A' for Active; 'I' for Inactive)
REMARK    1  A    between atoms: C_1  and  N_2
REMARK    2  A    between atoms: C_4  and  C_5
REMARK    3  A    between atoms: C_5  and  N_7
REMARK    4  A    between atoms: N_12  and  C_13
REMARK    5  A    between atoms: C_13  and  C_14
REMARK                            x       y       z     vdW  Elec       q    Type
REMARK                         _______ _______ _______ _____ _____    ______ ____
ROOT
ATOM      1  C   UNL     1       2.169   8.299  18.381  0.00  0.00    +0.000 C 
ATOM      2  O   UNL     1       2.710   8.365  17.289  0.00  0.00    +0.000 OA
ENDROOT
BRANCH   1   6
ATOM      3  C   UNL     1       1.934  13.078  18.335  0.00  0.00    +0.000 C 
ATOM      4  N   UNL     1       1.421  11.883  18.974  0.00  0.00    +0.000 N 
ATOM      5  N   UNL     1       1.741  10.683  18.393  0.00  0.00    +0.000 NA
ATOM      6  C   UNL     1       1.449   9.562  18.986  0.00  0.00    +0.000 A 
ATOM      7  C   UNL     1       0.664   9.539  20.251  0.00  0.00    +0.000 A 
ATOM      8  C   UNL     1       0.056   8.414  20.808  0.00  0.00    +0.000 A 
ATOM      9  C   UNL     1      -0.476   8.475  22.106  0.00  0.00    +0.000 A 
ATOM     10  C   UNL     1      -0.396   9.651  22.859  0.00  0.00    +0.000 A 
ATOM     11  C   UNL     1       0.105  10.799  22.265  0.00  0.00    +0.000 A 
ATOM     12  C   UNL     1       0.587  10.747  20.952  0.00  0.00    +0.000 A 
ATOM     13  C   UNL     1       0.967  12.006  20.282  0.00  0.00    +0.000 A 
ATOM     14  O   UNL     1       0.841  13.074  20.874  0.00  0.00    +0.000 OA
ENDBRANCH   1   6
BRANCH   1  15
ATOM     15  N   UNL     1       2.108   7.205  19.199  0.00  0.00    +0.000 NA
ATOM     16  C   UNL     1       2.476   5.998  19.163  0.00  0.00    +0.000 A 
ATOM     17  S   UNL     1       1.729   5.163  20.649  0.00  0.00    +0.000 S 
ATOM     18  C   UNL     1       2.102   3.598  20.028  0.00  0.00    +0.000 A 
ATOM     19  C   UNL     1       2.852   3.695  18.931  0.00  0.00    +0.000 A 
ATOM     20  N   UNL     1       3.162   4.981  18.470  0.00  0.00    +0.000 N 
BRANCH  20  21
ATOM     21  C   UNL     1       4.176   5.120  17.415  0.00  0.00    +0.000 C 
BRANCH  21  22
ATOM     22  C   UNL     1       5.333   5.906  17.952  0.00  0.00    +0.000 A 
ATOM     23  C   UNL     1       5.747   7.038  17.243  0.00  0.00    +0.000 A 
ATOM     24  C   UNL     1       7.063   7.448  17.312  0.00  0.00    +0.000 A 
ATOM     25  C   UNL     1       7.957   6.806  18.166  0.00  0.00    +0.000 A 
ATOM     26  C   UNL     1       7.497   5.821  19.046  0.00  0.00    +0.000 A 
ATOM     27  C   UNL     1       6.185   5.405  18.953  0.00  0.00    +0.000 A 
ATOM     28  F   UNL     1       5.755   4.432  19.783  0.00  0.00    +0.000 F 
ENDBRANCH  21  22
ENDBRANCH  20  21
ENDBRANCH   1  15
TORSDOF 4
ENDMDL
MODEL 8
REMARK VINA RESULT:      -8.2      1.188      1.211
REMARK  Name = 
REMARK  5 active torsions:
REMARK  status: ('A' for Active; 'I' for Inactive)
REMARK    1  A    between atoms: C_1  and  N_2
REMARK    2  A    between atoms: C_4  and  C_5
REMARK    3  A    between atoms: C_5  and  N_7
REMARK    4  A    between atoms: N_12  and  C_13
REMARK    5  A    between atoms: C_13  and  C_14
REMARK                            x       y       z     vdW  Elec       q    Type
REMARK                         _______ _______ _______ _____ _____    ______ ____
ROOT
ATOM      1  C   UNL     1       2.116   7.687  19.016  0.00  0.00    +0.000 C 
ATOM      2  O   UNL     1       2.067   8.125  17.877  0.00  0.00    +0.000 OA
ENDROOT
BRANCH   1   6
ATOM      3  C   UNL     1       6.478   5.791  18.487  0.00  0.00    +0.000 C 
ATOM      4  N   UNL     1       5.148   5.551  19.009  0.00  0.00    +0.000 N 
ATOM      5  N   UNL     1       4.291   6.620  19.040  0.00  0.00    +0.000 NA
ATOM      6  C   UNL     1       3.038   6.455  19.351  0.00  0.00    +0.000 A 
ATOM      7  C   UNL     1       2.519   5.131  19.791  0.00  0.00    +0.000 A 
ATOM      8  C   UNL     1       1.291   4.906  20.414  0.00  0.00    +0.000 A 
ATOM      9  C   UNL     1       0.824   3.594  20.590  0.00  0.00    +0.000 A 
ATOM     10  C   UNL     1       1.571   2.500  20.138  0.00  0.00    +0.000 A 
ATOM     11  C   UNL     1       2.840   2.717  19.623  0.00  0.00    +0.000 A 
ATOM     12  C   UNL     1       3.323   4.024  19.497  0.00  0.00    +0.000 A 
ATOM     13  C   UNL     1       4.730   4.228  19.099  0.00  0.00    +0.000 A 
ATOM     14  O   UNL     1       5.454   3.257  18.901  0.00  0.00    +0.000 OA
ENDBRANCH   1   6
BRANCH   1  15
ATOM     15  N   UNL     1       1.427   8.151  20.101  0.00  0.00    +0.000 NA
ATOM     16  C   UNL     1       0.827   9.211  20.436  0.00  0.00    +0.000 A 
ATOM     17  S   UNL     1       0.395   9.038  22.238  0.00  0.00    +0.000 S 
ATOM     18  C   UNL     1       0.010  10.714  22.364  0.00  0.00    +0.000 A 
ATOM     19  C   UNL     1       0.030  11.292  21.164  0.00  0.00    +0.000 A 
ATOM     20  N   UNL     1       0.378  10.494  20.067  0.00  0.00    +0.000 N 
BRANCH  20  21
ATOM     21  C   UNL     1       0.175  11.035  18.716  0.00  0.00    +0.000 C 
BRANCH  21  22
ATOM     22  C   UNL     1      -1.219  10.720  18.268  0.00  0.00    +0.000 A 
ATOM     23  C   UNL     1      -1.398   9.678  17.354  0.00  0.00    +0.000 A 
ATOM     24  C   UNL     1      -2.476   9.700  16.491  0.00  0.00    +0.000 A 
ATOM     25  C   UNL     1      -3.444  10.696  16.598  0.00  0.00    +0.000 A 
ATOM     26  C   UNL     1      -3.392  11.610  17.655  0.00  0.00    +0.000 A 
ATOM     27  C   UNL     1      -2.299  11.592  18.498  0.00  0.00    +0.000 A 
ATOM     28  F   UNL     1      -2.239  12.497  19.496  0.00  0.00    +0.000 F 
ENDBRANCH  21  22
ENDBRANCH  20  21
ENDBRANCH   1  15
TORSDOF 4
ENDMDL
MODEL 9
REMARK VINA RESULT:      -8.1      3.849      7.691
REMARK  Name = 
REMARK  5 active torsions:
REMARK  status: ('A' for Active; 'I' for Inactive)
REMARK    1  A    between atoms: C_1  and  N_2
REMARK    2  A    between atoms: C_4  and  C_5
REMARK    3  A    between atoms: C_5  and  N_7
REMARK    4  A    between atoms: N_12  and  C_13
REMARK    5  A    between atoms: C_13  and  C_14
REMARK                            x       y       z     vdW  Elec       q    Type
REMARK                         _______ _______ _______ _____ _____    ______ ____
ROOT
ATOM      1  C   UNL     1       2.133   7.255  19.721  0.00  0.00    +0.000 C 
ATOM      2  O   UNL     1       1.823   6.458  20.593  0.00  0.00    +0.000 OA
ENDROOT
BRANCH   1   6
ATOM      3  C   UNL     1       2.289  11.599  17.720  0.00  0.00    +0.000 C 
ATOM      4  N   UNL     1       1.630  10.793  18.728  0.00  0.00    +0.000 N 
ATOM      5  N   UNL     1       1.900   9.449  18.720  0.00  0.00    +0.000 NA
ATOM      6  C   UNL     1       1.470   8.682  19.681  0.00  0.00    +0.000 A 
ATOM      7  C   UNL     1       0.583   9.212  20.753  0.00  0.00    +0.000 A 
ATOM      8  C   UNL     1      -0.158   8.440  21.648  0.00  0.00    +0.000 A 
ATOM      9  C   UNL     1      -0.789   9.049  22.744  0.00  0.00    +0.000 A 
ATOM     10  C   UNL     1      -0.678  10.427  22.961  0.00  0.00    +0.000 A 
ATOM     11  C   UNL     1      -0.038  11.209  22.011  0.00  0.00    +0.000 A 
ATOM     12  C   UNL     1       0.546  10.604  20.893  0.00  0.00    +0.000 A 
ATOM     13  C   UNL     1       1.080  11.460  19.816  0.00  0.00    +0.000 A 
ATOM     14  O   UNL     1       0.992  12.681  19.909  0.00  0.00    +0.000 OA
ENDBRANCH   1   6
BRANCH   1  15
ATOM     15  N   UNL     1       3.030   7.052  18.710  0.00  0.00    +0.000 NA
ATOM     16  C   UNL     1       3.362   6.109  17.939  0.00  0.00    +0.000 A 
ATOM     17  S   UNL     1       4.887   6.668  17.030  0.00  0.00    +0.000 S 
ATOM     18  C   UNL     1       5.204   5.071  16.464  0.00  0.00    +0.000 A 
ATOM     19  C   UNL     1       4.195   4.256  16.769  0.00  0.00    +0.000 A 
ATOM     20  N   UNL     1       3.123   4.795  17.492  0.00  0.00    +0.000 N 
BRANCH  20  21
ATOM     21  C   UNL     1       1.900   3.992  17.632  0.00  0.00    +0.000 C 
BRANCH  21  22
ATOM     22  C   UNL     1       1.968   3.219  18.914  0.00  0.00    +0.000 A 
ATOM     23  C   UNL     1       0.956   3.416  19.857  0.00  0.00    +0.000 A 
ATOM     24  C   UNL     1       1.223   3.230  21.199  0.00  0.00    +0.000 A 
ATOM     25  C   UNL     1       2.461   2.744  21.611  0.00  0.00    +0.000 A 
ATOM     26  C   UNL     1       3.400   2.329  20.659  0.00  0.00    +0.000 A 
ATOM     27  C   UNL     1       3.131   2.540  19.323  0.00  0.00    +0.000 A 
ATOM     28  F   UNL     1       4.054   2.167  18.412  0.00  0.00    +0.000 F 
ENDBRANCH  21  22
ENDBRANCH  20  21
ENDBRANCH   1  15
TORSDOF 4
ENDMDL
