MODEL 1
REMARK VINA RESULT:      -8.4      0.000      0.000
REMARK  Name = 
REMARK  5 active torsions:
REMARK  status: ('A' for Active; 'I' for Inactive)
REMARK    1  A    between atoms: C_2  and  C_3
REMARK    2  A    between atoms: C_5  and  C_6
REMARK    3  A    between atoms: N_17  and  C_18
REMARK    4  A    between atoms: C_18  and  C_19
REMARK    5  A    between atoms: C_28  and  N_29
REMARK                            x       y       z     vdW  Elec       q    Type
REMARK                         _______ _______ _______ _____ _____    ______ ____
ROOT
ATOM      1  C   UNL     1       1.221   9.347  18.785  0.00  0.00    +0.000 A 
ATOM      2  C   UNL     1       0.162   9.792  17.991  0.00  0.00    +0.000 A 
ATOM      3  C   UNL     1      -1.058  10.125  18.581  0.00  0.00    +0.000 A 
ATOM      4  N   UNL     1      -1.247  10.175  19.927  0.00  0.00    +0.000 NA
ATOM      5  C   UNL     1      -0.152   9.859  20.656  0.00  0.00    +0.000 A 
ATOM      6  C   UNL     1       1.081   9.446  20.170  0.00  0.00    +0.000 A 
ATOM      7  C   UNL     1       1.865   9.219  21.321  0.00  0.00    +0.000 A 
ATOM      8  N   UNL     1       1.199   9.453  22.456  0.00  0.00    +0.000 NA
ATOM      9  N   UNL     1      -0.021   9.866  22.024  0.00  0.00    +0.000 N 
ENDROOT
BRANCH   1  11
ATOM     10  O   UNL     1       3.259   9.578  17.716  0.00  0.00    +0.000 OA
ATOM     11  C   UNL     1       2.452   8.787  18.201  0.00  0.00    +0.000 C 
ATOM     12  N   UNL     1       2.652   7.401  18.224  0.00  0.00    +0.000 N 
ATOM     13  C   UNL     1       3.944   6.899  17.757  0.00  0.00    +0.000 C 
ATOM     14  C   UNL     1       3.797   5.573  17.020  0.00  0.00    +0.000 C 
ATOM     15  C   UNL     1       2.915   4.545  17.738  0.00  0.00    +0.000 C 
ATOM     16  C   UNL     1       1.649   5.167  18.331  0.00  0.00    +0.000 C 
ATOM     17  C   UNL     1       1.927   6.459  19.083  0.00  0.00    +0.000 C 
BRANCH  15  18
ATOM     18  N   UNL     1       3.647   3.699  18.687  0.00  0.00    +0.000 N 
ATOM     19  C   UNL     1       2.952   3.005  19.754  0.00  0.00    +0.000 C 
ATOM     20  C   UNL     1       4.037   2.127  20.355  0.00  0.00    +0.000 C 
ATOM     21  N   UNL     1       5.239   2.820  20.005  0.00  0.00    +0.000 N 
ATOM     22  C   UNL     1       5.024   3.609  18.886  0.00  0.00    +0.000 C 
ATOM     23  O   UNL     1       5.931   4.098  18.242  0.00  0.00    +0.000 OA
ATOM     24  H   UNL     1       6.184   2.509  20.194  0.00  0.00    +0.000 HD
ENDBRANCH  15  18
ENDBRANCH   1  11
BRANCH   3  25
ATOM     25  C   UNL     1      -2.235  10.436  17.736  0.00  0.00    +0.000 A 
ATOM     26  C   UNL     1      -2.314  10.038  16.382  0.00  0.00    +0.000 A 
ATOM     27  C   UNL     1      -3.399  10.398  15.578  0.00  0.00    +0.000 A 
ATOM     28  C   UNL     1      -4.436  11.155  16.112  0.00  0.00    +0.000 A 
ATOM     29  C   UNL     1      -4.395  11.530  17.453  0.00  0.00    +0.000 A 
ATOM     30  C   UNL     1      -3.313  11.172  18.254  0.00  0.00    +0.000 A 
ENDBRANCH   3  25
BRANCH   9  31
ATOM     31  C   UNL     1      -1.039  10.231  22.994  0.00  0.00    +0.000 C 
BRANCH  31  32
ATOM     32  C   UNL     1      -1.427  11.681  22.853  0.00  0.00    +0.000 A 
ATOM     33  C   UNL     1      -0.468  12.640  22.496  0.00  0.00    +0.000 A 
ATOM     34  C   UNL     1      -0.811  13.991  22.434  0.00  0.00    +0.000 A 
ATOM     35  C   UNL     1      -2.111  14.398  22.729  0.00  0.00    +0.000 A 
ATOM     36  C   UNL     1      -3.075  13.453  23.075  0.00  0.00    +0.000 A 
ATOM     37  C   UNL     1      -2.736  12.101  23.137  0.00  0.00    +0.000 A 
ENDBRANCH  31  32
ENDBRANCH   9  31
TORSDOF 5
ENDMDL
MODEL 2
REMARK VINA RESULT:      -8.2      1.141      1.494
REMARK  Name = 
REMARK  5 active torsions:
REMARK  status: ('A' for Active; 'I' for Inactive)
REMARK    1  A    between atoms: C_2  and  C_3
REMARK    2  A    between atoms: C_5  and  C_6
REMARK    3  A    between atoms: N_17  and  C_18
REMARK    4  A    between atoms: C_18  and  C_19
REMARK    5  A    between atoms: C_28  and  N_29
REMARK                            x       y       z     vdW  Elec       q    Type
REMARK                         _______ _______ _______ _____ _____    ______ ____
ROOT
ATOM      1  C   UNL     1       1.169   9.097  18.980  0.00  0.00    +0.000 A 
ATOM      2  C   UNL     1       0.173   9.604  18.142  0.00  0.00    +0.000 A 
ATOM      3  C   UNL     1      -1.001  10.120  18.690  0.00  0.00    +0.000 A 
ATOM      4  N   UNL     1      -1.189  10.291  20.027  0.00  0.00    +0.000 NA
ATOM      5  C   UNL     1      -0.141   9.904  20.791  0.00  0.00    +0.000 A 
ATOM      6  C   UNL     1       1.036   9.314  20.352  0.00  0.00    +0.000 A 
ATOM      7  C   UNL     1       1.783   9.082  21.526  0.00  0.00    +0.000 A 
ATOM      8  N   UNL     1       1.145   9.475  22.633  0.00  0.00    +0.000 NA
ATOM      9  N   UNL     1      -0.016   9.996  22.156  0.00  0.00    +0.000 N 
ENDROOT
BRANCH   1  11
ATOM     10  O   UNL     1       3.191   9.000  17.859  0.00  0.00    +0.000 OA
ATOM     11  C   UNL     1       2.328   8.355  18.454  0.00  0.00    +0.000 C 
ATOM     12  N   UNL     1       2.401   6.971  18.652  0.00  0.00    +0.000 N 
ATOM     13  C   UNL     1       3.630   6.295  18.233  0.00  0.00    +0.000 C 
ATOM     14  C   UNL     1       3.343   4.906  17.675  0.00  0.00    +0.000 C 
ATOM     15  C   UNL     1       2.391   4.064  18.533  0.00  0.00    +0.000 C 
ATOM     16  C   UNL     1       1.204   4.872  19.060  0.00  0.00    +0.000 C 
ATOM     17  C   UNL     1       1.617   6.217  19.635  0.00  0.00    +0.000 C 
BRANCH  15  18
ATOM     18  N   UNL     1       3.068   3.280  19.570  0.00  0.00    +0.000 N 
ATOM     19  C   UNL     1       4.314   2.591  19.289  0.00  0.00    +0.000 C 
ATOM     20  C   UNL     1       4.741   2.083  20.655  0.00  0.00    +0.000 C 
ATOM     21  N   UNL     1       3.503   2.007  21.369  0.00  0.00    +0.000 N 
ATOM     22  C   UNL     1       2.579   2.877  20.812  0.00  0.00    +0.000 C 
ATOM     23  O   UNL     1       1.547   3.188  21.372  0.00  0.00    +0.000 OA
ATOM     24  H   UNL     1       3.390   1.752  22.342  0.00  0.00    +0.000 HD
ENDBRANCH  15  18
ENDBRANCH   1  11
BRANCH   3  25
ATOM     25  C   UNL     1      -2.130  10.504  17.811  0.00  0.00    +0.000 A 
ATOM     26  C   UNL     1      -3.173  11.349  18.253  0.00  0.00    +0.000 A 
ATOM     27  C   UNL     1      -4.268  11.646  17.437  0.00  0.00    +0.000 A 
ATOM     28  C   UNL     1      -4.340  11.113  16.155  0.00  0.00    +0.000 A 
ATOM     29  C   UNL     1      -3.308  10.305  15.686  0.00  0.00    +0.000 A 
ATOM     30  C   UNL     1      -2.217  10.008  16.501  0.00  0.00    +0.000 A 
ENDBRANCH   3  25
BRANCH   9  31
ATOM     31  C   UNL     1      -0.988  10.548  23.084  0.00  0.00    +0.000 C 
BRANCH  31  32
ATOM     32  C   UNL     1      -1.393  11.942  22.679  0.00  0.00    +0.000 A 
ATOM     33  C   UNL     1      -0.418  12.912  22.401  0.00  0.00    +0.000 A 
ATOM     34  C   UNL     1      -0.790  14.220  22.095  0.00  0.00    +0.000 A 
ATOM     35  C   UNL     1      -2.138  14.575  22.063  0.00  0.00    +0.000 A 
ATOM     36  C   UNL     1      -3.117  13.619  22.327  0.00  0.00    +0.000 A 
ATOM     37  C   UNL     1      -2.747  12.308  22.633  0.00  0.00    +0.000 A 
ENDBRANCH  31  32
ENDBRANCH   9  31
TORSDOF 5
ENDMDL
MODEL 3
REMARK VINA RESULT:      -8.1      0.786      1.385
REMARK  Name = 
REMARK  5 active torsions:
REMARK  status: ('A' for Active; 'I' for Inactive)
REMARK    1  A    between atoms: C_2  and  C_3
REMARK    2  A    between atoms: C_5  and  C_6
REMARK    3  A    between atoms: N_17  and  C_18
REMARK    4  A    between atoms: C_18  and  C_19
REMARK    5  A    between atoms: C_28  and  N_29
REMARK                            x       y       z     vdW  Elec       q    Type
REMARK                         _______ _______ _______ _____ _____    ______ ____
ROOT
ATOM      1  C   UNL     1       1.275   9.133  18.867  0.00  0.00    +0.000 A 
ATOM      2  C   UNL     1       0.256   9.637  18.055  0.00  0.00    +0.000 A 
ATOM      3  C   UNL     1      -0.943  10.062  18.627  0.00  0.00    +0.000 A 
ATOM      4  N   UNL     1      -1.141  10.145  19.971  0.00  0.00    +0.000 NA
ATOM      5  C   UNL     1      -0.077   9.767  20.716  0.00  0.00    +0.000 A 
ATOM      6  C   UNL     1       1.129   9.262  20.249  0.00  0.00    +0.000 A 
ATOM      7  C   UNL     1       1.885   9.001  21.411  0.00  0.00    +0.000 A 
ATOM      8  N   UNL     1       1.227   9.297  22.535  0.00  0.00    +0.000 NA
ATOM      9  N   UNL     1       0.042   9.786  22.085  0.00  0.00    +0.000 N 
ENDROOT
BRANCH   1  11
ATOM     10  O   UNL     1       3.345   9.209  17.837  0.00  0.00    +0.000 OA
ATOM     11  C   UNL     1       2.470   8.481  18.304  0.00  0.00    +0.000 C 
ATOM     12  N   UNL     1       2.562   7.084  18.325  0.00  0.00    +0.000 N 
ATOM     13  C   UNL     1       3.820   6.485  17.880  0.00  0.00    +0.000 C 
ATOM     14  C   UNL     1       3.586   5.176  17.135  0.00  0.00    +0.000 C 
ATOM     15  C   UNL     1       2.614   4.217  17.833  0.00  0.00    +0.000 C 
ATOM     16  C   UNL     1       1.389   4.933  18.405  0.00  0.00    +0.000 C 
ATOM     17  C   UNL     1       1.750   6.199  19.166  0.00  0.00    +0.000 C 
BRANCH  15  18
ATOM     18  N   UNL     1       3.260   3.315  18.792  0.00  0.00    +0.000 N 
ATOM     19  C   UNL     1       3.626   3.777  20.118  0.00  0.00    +0.000 C 
ATOM     20  C   UNL     1       4.078   2.504  20.813  0.00  0.00    +0.000 C 
ATOM     21  N   UNL     1       4.472   1.667  19.720  0.00  0.00    +0.000 N 
ATOM     22  C   UNL     1       3.820   2.059  18.561  0.00  0.00    +0.000 C 
ATOM     23  O   UNL     1       3.783   1.370  17.561  0.00  0.00    +0.000 OA
ATOM     24  H   UNL     1       4.787   0.707  19.787  0.00  0.00    +0.000 HD
ENDBRANCH  15  18
ENDBRANCH   1  11
BRANCH   3  25
ATOM     25  C   UNL     1      -2.089  10.439  17.767  0.00  0.00    +0.000 A 
ATOM     26  C   UNL     1      -3.136  11.268  18.231  0.00  0.00    +0.000 A 
ATOM     27  C   UNL     1      -4.245  11.558  17.432  0.00  0.00    +0.000 A 
ATOM     28  C   UNL     1      -4.329  11.035  16.147  0.00  0.00    +0.000 A 
ATOM     29  C   UNL     1      -3.295  10.242  15.657  0.00  0.00    +0.000 A 
ATOM     30  C   UNL     1      -2.189   9.952  16.454  0.00  0.00    +0.000 A 
ENDBRANCH   3  25
BRANCH   9  31
ATOM     31  C   UNL     1      -0.958  10.235  23.039  0.00  0.00    +0.000 C 
BRANCH  31  32
ATOM     32  C   UNL     1      -1.319  11.679  22.806  0.00  0.00    +0.000 A 
ATOM     33  C   UNL     1      -2.635  12.123  23.004  0.00  0.00    +0.000 A 
ATOM     34  C   UNL     1      -2.985  13.443  22.722  0.00  0.00    +0.000 A 
ATOM     35  C   UNL     1      -2.027  14.333  22.239  0.00  0.00    +0.000 A 
ATOM     36  C   UNL     1      -0.713  13.908  22.048  0.00  0.00    +0.000 A 
ATOM     37  C   UNL     1      -0.360  12.587  22.330  0.00  0.00    +0.000 A 
ENDBRANCH  31  32
ENDBRANCH   9  31
TORSDOF 5
ENDMDL
MODEL 4
REMARK VINA RESULT:      -8.0      0.890      1.028
REMARK  Name = 
REMARK  5 active torsions:
REMARK  status: ('A' for Active; 'I' for Inactive)
REMARK    1  A    between atoms: C_2  and  C_3
REMARK    2  A    between atoms: C_5  and  C_6
REMARK    3  A    between atoms: N_17  and  C_18
REMARK    4  A    between atoms: C_18  and  C_19
REMARK    5  A    between atoms: C_28  and  N_29
REMARK                            x       y       z     vdW  Elec       q    Type
REMARK                         _______ _______ _______ _____ _____    ______ ____
ROOT
ATOM      1  C   UNL     1       1.248   9.248  18.865  0.00  0.00    +0.000 A 
ATOM      2  C   UNL     1       0.213   9.698  18.043  0.00  0.00    +0.000 A 
ATOM      3  C   UNL     1      -1.011  10.065  18.603  0.00  0.00    +0.000 A 
ATOM      4  N   UNL     1      -1.224  10.146  19.944  0.00  0.00    +0.000 NA
ATOM      5  C   UNL     1      -0.149   9.824  20.700  0.00  0.00    +0.000 A 
ATOM      6  C   UNL     1       1.084   9.377  20.245  0.00  0.00    +0.000 A 
ATOM      7  C   UNL     1       1.842   9.159  21.415  0.00  0.00    +0.000 A 
ATOM      8  N   UNL     1       1.161   9.427  22.533  0.00  0.00    +0.000 NA
ATOM      9  N   UNL     1      -0.043   9.855  22.070  0.00  0.00    +0.000 N 
ENDROOT
BRANCH   1  11
ATOM     10  O   UNL     1       3.345   9.423  17.905  0.00  0.00    +0.000 OA
ATOM     11  C   UNL     1       2.479   8.653  18.316  0.00  0.00    +0.000 C 
ATOM     12  N   UNL     1       2.611   7.259  18.288  0.00  0.00    +0.000 N 
ATOM     13  C   UNL     1       3.900   6.714  17.860  0.00  0.00    +0.000 C 
ATOM     14  C   UNL     1       3.727   5.429  17.059  0.00  0.00    +0.000 C 
ATOM     15  C   UNL     1       2.764   4.416  17.690  0.00  0.00    +0.000 C 
ATOM     16  C   UNL     1       1.501   5.075  18.249  0.00  0.00    +0.000 C 
ATOM     17  C   UNL     1       1.801   6.319  19.069  0.00  0.00    +0.000 C 
BRANCH  15  18
ATOM     18  N   UNL     1       3.407   3.497  18.633  0.00  0.00    +0.000 N 
ATOM     19  C   UNL     1       4.795   3.676  19.017  0.00  0.00    +0.000 C 
ATOM     20  C   UNL     1       4.982   2.646  20.119  0.00  0.00    +0.000 C 
ATOM     21  N   UNL     1       3.969   1.678  19.826  0.00  0.00    +0.000 N 
ATOM     22  C   UNL     1       2.947   2.265  19.096  0.00  0.00    +0.000 C 
ATOM     23  O   UNL     1       1.865   1.736  18.936  0.00  0.00    +0.000 OA
ATOM     24  H   UNL     1       3.750   0.858  20.378  0.00  0.00    +0.000 HD
ENDBRANCH  15  18
ENDBRANCH   1  11
BRANCH   3  25
ATOM     25  C   UNL     1      -2.166  10.381  17.731  0.00  0.00    +0.000 A 
ATOM     26  C   UNL     1      -2.255   9.910  16.401  0.00  0.00    +0.000 A 
ATOM     27  C   UNL     1      -3.315  10.274  15.567  0.00  0.00    +0.000 A 
ATOM     28  C   UNL     1      -4.319  11.108  16.046  0.00  0.00    +0.000 A 
ATOM     29  C   UNL     1      -4.270  11.558  17.363  0.00  0.00    +0.000 A 
ATOM     30  C   UNL     1      -3.211  11.196  18.194  0.00  0.00    +0.000 A 
ENDBRANCH   3  25
BRANCH   9  31
ATOM     31  C   UNL     1      -1.072  10.259  23.013  0.00  0.00    +0.000 C 
BRANCH  31  32
ATOM     32  C   UNL     1      -1.404  11.721  22.859  0.00  0.00    +0.000 A 
ATOM     33  C   UNL     1      -0.432  12.626  22.409  0.00  0.00    +0.000 A 
ATOM     34  C   UNL     1      -0.718  13.989  22.334  0.00  0.00    +0.000 A 
ATOM     35  C   UNL     1      -1.975  14.463  22.708  0.00  0.00    +0.000 A 
ATOM     36  C   UNL     1      -2.953  13.572  23.146  0.00  0.00    +0.000 A 
ATOM     37  C   UNL     1      -2.670  12.208  23.222  0.00  0.00    +0.000 A 
ENDBRANCH  31  32
ENDBRANCH   9  31
TORSDOF 5
ENDMDL
MODEL 5
REMARK VINA RESULT:      -8.0      4.169      8.922
REMARK  Name = 
REMARK  5 active torsions:
REMARK  status: ('A' for Active; 'I' for Inactive)
REMARK    1  A    between atoms: C_2  and  C_3
REMARK    2  A    between atoms: C_5  and  C_6
REMARK    3  A    between atoms: N_17  and  C_18
REMARK    4  A    between atoms: C_18  and  C_19
REMARK    5  A    between atoms: C_28  and  N_29
REMARK                            x       y       z     vdW  Elec       q    Type
REMARK                         _______ _______ _______ _____ _____    ______ ____
ROOT
ATOM      1  C   UNL     1      -1.036  11.603  18.732  0.00  0.00    +0.000 A 
ATOM      2  C   UNL     1      -0.428  10.361  18.925  0.00  0.00    +0.000 A 
ATOM      3  C   UNL     1       0.961  10.248  18.861  0.00  0.00    +0.000 A 
ATOM      4  N   UNL     1       1.793  11.319  18.753  0.00  0.00    +0.000 NA
ATOM      5  C   UNL     1       1.159  12.514  18.699  0.00  0.00    +0.000 A 
ATOM      6  C   UNL     1      -0.212  12.729  18.681  0.00  0.00    +0.000 A 
ATOM      7  C   UNL     1      -0.356  14.129  18.594  0.00  0.00    +0.000 A 
ATOM      8  N   UNL     1       0.815  14.770  18.546  0.00  0.00    +0.000 NA
ATOM      9  N   UNL     1       1.725  13.764  18.637  0.00  0.00    +0.000 N 
ENDROOT
BRANCH   1  11
ATOM     10  O   UNL     1      -2.999  11.329  17.539  0.00  0.00    +0.000 OA
ATOM     11  C   UNL     1      -2.495  11.743  18.581  0.00  0.00    +0.000 C 
ATOM     12  N   UNL     1      -3.236  12.330  19.615  0.00  0.00    +0.000 N 
ATOM     13  C   UNL     1      -4.692  12.328  19.483  0.00  0.00    +0.000 C 
ATOM     14  C   UNL     1      -5.309  13.600  20.052  0.00  0.00    +0.000 C 
ATOM     15  C   UNL     1      -4.776  13.998  21.434  0.00  0.00    +0.000 C 
ATOM     16  C   UNL     1      -3.259  13.836  21.548  0.00  0.00    +0.000 C 
ATOM     17  C   UNL     1      -2.766  12.509  20.992  0.00  0.00    +0.000 C 
BRANCH  15  18
ATOM     18  N   UNL     1      -5.511  13.391  22.548  0.00  0.00    +0.000 N 
ATOM     19  C   UNL     1      -6.926  13.093  22.431  0.00  0.00    +0.000 C 
ATOM     20  C   UNL     1      -7.222  12.325  23.708  0.00  0.00    +0.000 C 
ATOM     21  N   UNL     1      -6.196  12.777  24.597  0.00  0.00    +0.000 N 
ATOM     22  C   UNL     1      -5.107  13.235  23.873  0.00  0.00    +0.000 C 
ATOM     23  O   UNL     1      -4.019  13.436  24.376  0.00  0.00    +0.000 OA
ATOM     24  H   UNL     1      -6.036  12.446  25.540  0.00  0.00    +0.000 HD
ENDBRANCH  15  18
ENDBRANCH   1  11
BRANCH   3  25
ATOM     25  C   UNL     1       1.605   8.914  18.897  0.00  0.00    +0.000 A 
ATOM     26  C   UNL     1       1.534   8.076  20.033  0.00  0.00    +0.000 A 
ATOM     27  C   UNL     1       2.204   6.851  20.079  0.00  0.00    +0.000 A 
ATOM     28  C   UNL     1       2.952   6.429  18.985  0.00  0.00    +0.000 A 
ATOM     29  C   UNL     1       3.009   7.223  17.843  0.00  0.00    +0.000 A 
ATOM     30  C   UNL     1       2.341   8.445  17.798  0.00  0.00    +0.000 A 
ENDBRANCH   3  25
BRANCH   9  31
ATOM     31  C   UNL     1       3.144  14.078  18.630  0.00  0.00    +0.000 C 
BRANCH  31  32
ATOM     32  C   UNL     1       3.539  14.829  19.876  0.00  0.00    +0.000 A 
ATOM     33  C   UNL     1       4.005  16.149  19.792  0.00  0.00    +0.000 A 
ATOM     34  C   UNL     1       4.436  16.820  20.936  0.00  0.00    +0.000 A 
ATOM     35  C   UNL     1       4.409  16.180  22.174  0.00  0.00    +0.000 A 
ATOM     36  C   UNL     1       3.939  14.872  22.273  0.00  0.00    +0.000 A 
ATOM     37  C   UNL     1       3.506  14.199  21.129  0.00  0.00    +0.000 A 
ENDBRANCH  31  32
ENDBRANCH   9  31
TORSDOF 5
ENDMDL
MODEL 6
REMARK VINA RESULT:      -8.0      4.174      8.923
REMARK  Name = 
REMARK  5 active torsions:
REMARK  status: ('A' for Active; 'I' for Inactive)
REMARK    1  A    between atoms: C_2  and  C_3
REMARK    2  A    between atoms: C_5  and  C_6
REMARK    3  A    between atoms: N_17  and  C_18
REMARK    4  A    between atoms: C_18  and  C_19
REMARK    5  A    between atoms: C_28  and  N_29
REMARK                            x       y       z     vdW  Elec       q    Type
REMARK                         _______ _______ _______ _____ _____    ______ ____
ROOT
ATOM      1  C   UNL     1      -1.006  11.649  18.781  0.00  0.00    +0.000 A 
ATOM      2  C   UNL     1      -0.401  10.408  18.988  0.00  0.00    +0.000 A 
ATOM      3  C   UNL     1       0.988  10.292  18.929  0.00  0.00    +0.000 A 
ATOM      4  N   UNL     1       1.822  11.360  18.813  0.00  0.00    +0.000 NA
ATOM      5  C   UNL     1       1.191  12.555  18.745  0.00  0.00    +0.000 A 
ATOM      6  C   UNL     1      -0.180  12.773  18.722  0.00  0.00    +0.000 A 
ATOM      7  C   UNL     1      -0.321  14.173  18.620  0.00  0.00    +0.000 A 
ATOM      8  N   UNL     1       0.852  14.811  18.569  0.00  0.00    +0.000 NA
ATOM      9  N   UNL     1       1.759  13.804  18.672  0.00  0.00    +0.000 N 
ENDROOT
BRANCH   1  11
ATOM     10  O   UNL     1      -2.966  11.372  17.583  0.00  0.00    +0.000 OA
ATOM     11  C   UNL     1      -2.464  11.791  18.625  0.00  0.00    +0.000 C 
ATOM     12  N   UNL     1      -3.207  12.384  19.654  0.00  0.00    +0.000 N 
ATOM     13  C   UNL     1      -4.664  12.383  19.517  0.00  0.00    +0.000 C 
ATOM     14  C   UNL     1      -5.280  13.659  20.078  0.00  0.00    +0.000 C 
ATOM     15  C   UNL     1      -4.751  14.062  21.460  0.00  0.00    +0.000 C 
ATOM     16  C   UNL     1      -3.235  13.898  21.580  0.00  0.00    +0.000 C 
ATOM     17  C   UNL     1      -2.742  12.569  21.031  0.00  0.00    +0.000 C 
BRANCH  15  18
ATOM     18  N   UNL     1      -5.491  13.461  22.574  0.00  0.00    +0.000 N 
ATOM     19  C   UNL     1      -6.892  13.113  22.435  0.00  0.00    +0.000 C 
ATOM     20  C   UNL     1      -7.191  12.370  23.726  0.00  0.00    +0.000 C 
ATOM     21  N   UNL     1      -6.201  12.881  24.625  0.00  0.00    +0.000 N 
ATOM     22  C   UNL     1      -5.111  13.355  23.912  0.00  0.00    +0.000 C 
ATOM     23  O   UNL     1      -4.043  13.607  24.433  0.00  0.00    +0.000 OA
ATOM     24  H   UNL     1      -6.051  12.582  25.580  0.00  0.00    +0.000 HD
ENDBRANCH  15  18
ENDBRANCH   1  11
BRANCH   3  25
ATOM     25  C   UNL     1       1.629   8.957  18.979  0.00  0.00    +0.000 A 
ATOM     26  C   UNL     1       2.304   8.406  17.866  0.00  0.00    +0.000 A 
ATOM     27  C   UNL     1       2.843   7.117  17.905  0.00  0.00    +0.000 A 
ATOM     28  C   UNL     1       2.729   6.353  19.061  0.00  0.00    +0.000 A 
ATOM     29  C   UNL     1       2.096   6.887  20.180  0.00  0.00    +0.000 A 
ATOM     30  C   UNL     1       1.558   8.172  20.141  0.00  0.00    +0.000 A 
ENDBRANCH   3  25
BRANCH   9  31
ATOM     31  C   UNL     1       3.179  14.116  18.666  0.00  0.00    +0.000 C 
BRANCH  31  32
ATOM     32  C   UNL     1       3.571  14.884  19.902  0.00  0.00    +0.000 A 
ATOM     33  C   UNL     1       3.486  14.284  21.167  0.00  0.00    +0.000 A 
ATOM     34  C   UNL     1       3.782  15.016  22.317  0.00  0.00    +0.000 A 
ATOM     35  C   UNL     1       4.162  16.353  22.217  0.00  0.00    +0.000 A 
ATOM     36  C   UNL     1       4.261  16.958  20.965  0.00  0.00    +0.000 A 
ATOM     37  C   UNL     1       3.966  16.227  19.813  0.00  0.00    +0.000 A 
ENDBRANCH  31  32
ENDBRANCH   9  31
TORSDOF 5
ENDMDL
MODEL 7
REMARK VINA RESULT:      -7.9      3.377      9.244
REMARK  Name = 
REMARK  5 active torsions:
REMARK  status: ('A' for Active; 'I' for Inactive)
REMARK    1  A    between atoms: C_2  and  C_3
REMARK    2  A    between atoms: C_5  and  C_6
REMARK    3  A    between atoms: N_17  and  C_18
REMARK    4  A    between atoms: C_18  and  C_19
REMARK    5  A    between atoms: C_28  and  N_29
REMARK                            x       y       z     vdW  Elec       q    Type
REMARK                         _______ _______ _______ _____ _____    ______ ____
ROOT
ATOM      1  C   UNL     1      -0.387  11.796  21.076  0.00  0.00    +0.000 A 
ATOM      2  C   UNL     1      -1.316  11.752  20.034  0.00  0.00    +0.000 A 
ATOM      3  C   UNL     1      -1.396  10.623  19.220  0.00  0.00    +0.000 A 
ATOM      4  N   UNL     1      -0.704   9.476  19.462  0.00  0.00    +0.000 NA
ATOM      5  C   UNL     1       0.086   9.525  20.560  0.00  0.00    +0.000 A 
ATOM      6  C   UNL     1       0.292  10.618  21.390  0.00  0.00    +0.000 A 
ATOM      7  C   UNL     1       1.211  10.165  22.361  0.00  0.00    +0.000 A 
ATOM      8  N   UNL     1       1.580   8.895  22.173  0.00  0.00    +0.000 NA
ATOM      9  N   UNL     1       0.862   8.518  21.083  0.00  0.00    +0.000 N 
ENDROOT
BRANCH   1  11
ATOM     10  O   UNL     1       1.000  13.536  21.709  0.00  0.00    +0.000 OA
ATOM     11  C   UNL     1      -0.116  13.033  21.829  0.00  0.00    +0.000 C 
ATOM     12  N   UNL     1      -1.124  13.578  22.635  0.00  0.00    +0.000 N 
ATOM     13  C   UNL     1      -0.859  14.875  23.257  0.00  0.00    +0.000 C 
ATOM     14  C   UNL     1      -1.477  14.965  24.648  0.00  0.00    +0.000 C 
ATOM     15  C   UNL     1      -2.931  14.484  24.727  0.00  0.00    +0.000 C 
ATOM     16  C   UNL     1      -3.169  13.199  23.931  0.00  0.00    +0.000 C 
ATOM     17  C   UNL     1      -2.549  13.244  22.543  0.00  0.00    +0.000 C 
BRANCH  15  18
ATOM     18  N   UNL     1      -3.916  15.533  24.448  0.00  0.00    +0.000 N 
ATOM     19  C   UNL     1      -3.667  16.909  24.832  0.00  0.00    +0.000 C 
ATOM     20  C   UNL     1      -4.827  17.658  24.199  0.00  0.00    +0.000 C 
ATOM     21  N   UNL     1      -5.832  16.646  24.079  0.00  0.00    +0.000 N 
ATOM     22  C   UNL     1      -5.242  15.392  24.039  0.00  0.00    +0.000 C 
ATOM     23  O   UNL     1      -5.840  14.393  23.693  0.00  0.00    +0.000 OA
ATOM     24  H   UNL     1      -6.742  16.757  23.650  0.00  0.00    +0.000 HD
ENDBRANCH  15  18
ENDBRANCH   1  11
BRANCH   3  25
ATOM     25  C   UNL     1      -2.256  10.631  18.013  0.00  0.00    +0.000 A 
ATOM     26  C   UNL     1      -1.938   9.879  16.859  0.00  0.00    +0.000 A 
ATOM     27  C   UNL     1      -2.719   9.951  15.703  0.00  0.00    +0.000 A 
ATOM     28  C   UNL     1      -3.844  10.768  15.677  0.00  0.00    +0.000 A 
ATOM     29  C   UNL     1      -4.195  11.492  16.813  0.00  0.00    +0.000 A 
ATOM     30  C   UNL     1      -3.415  11.421  17.966  0.00  0.00    +0.000 A 
ENDBRANCH   3  25
BRANCH   9  31
ATOM     31  C   UNL     1       0.991   7.164  20.572  0.00  0.00    +0.000 C 
BRANCH  31  32
ATOM     32  C   UNL     1       2.122   7.065  19.581  0.00  0.00    +0.000 A 
ATOM     33  C   UNL     1       2.256   8.016  18.559  0.00  0.00    +0.000 A 
ATOM     34  C   UNL     1       3.261   7.885  17.601  0.00  0.00    +0.000 A 
ATOM     35  C   UNL     1       4.140   6.805  17.651  0.00  0.00    +0.000 A 
ATOM     36  C   UNL     1       4.025   5.859  18.667  0.00  0.00    +0.000 A 
ATOM     37  C   UNL     1       3.021   5.987  19.628  0.00  0.00    +0.000 A 
ENDBRANCH  31  32
ENDBRANCH   9  31
TORSDOF 5
ENDMDL
MODEL 8
REMARK VINA RESULT:      -7.9      4.502      9.382
REMARK  Name = 
REMARK  5 active torsions:
REMARK  status: ('A' for Active; 'I' for Inactive)
REMARK    1  A    between atoms: C_2  and  C_3
REMARK    2  A    between atoms: C_5  and  C_6
REMARK    3  A    between atoms: N_17  and  C_18
REMARK    4  A    between atoms: C_18  and  C_19
REMARK    5  A    between atoms: C_28  and  N_29
REMARK                            x       y       z     vdW  Elec       q    Type
REMARK                         _______ _______ _______ _____ _____    ______ ____
ROOT
ATOM      1  C   UNL     1      -1.394  12.318  22.066  0.00  0.00    +0.000 A 
ATOM      2  C   UNL     1      -0.847  11.171  21.487  0.00  0.00    +0.000 A 
ATOM      3  C   UNL     1       0.424  11.220  20.913  0.00  0.00    +0.000 A 
ATOM      4  N   UNL     1       1.242  12.304  21.001  0.00  0.00    +0.000 NA
ATOM      5  C   UNL     1       0.714  13.346  21.684  0.00  0.00    +0.000 A 
ATOM      6  C   UNL     1      -0.560  13.426  22.228  0.00  0.00    +0.000 A 
ATOM      7  C   UNL     1      -0.626  14.711  22.807  0.00  0.00    +0.000 A 
ATOM      8  N   UNL     1       0.500  15.411  22.644  0.00  0.00    +0.000 NA
ATOM      9  N   UNL     1       1.312  14.548  21.978  0.00  0.00    +0.000 N 
ENDROOT
BRANCH   1  11
ATOM     10  O   UNL     1      -3.032  12.253  23.698  0.00  0.00    +0.000 OA
ATOM     11  C   UNL     1      -2.802  12.379  22.497  0.00  0.00    +0.000 C 
ATOM     12  N   UNL     1      -3.803  12.578  21.537  0.00  0.00    +0.000 N 
ATOM     13  C   UNL     1      -5.170  12.767  22.021  0.00  0.00    +0.000 C 
ATOM     14  C   UNL     1      -6.189  12.129  21.084  0.00  0.00    +0.000 C 
ATOM     15  C   UNL     1      -5.969  12.446  19.600  0.00  0.00    +0.000 C 
ATOM     16  C   UNL     1      -4.495  12.374  19.195  0.00  0.00    +0.000 C 
ATOM     17  C   UNL     1      -3.580  13.085  20.179  0.00  0.00    +0.000 C 
BRANCH  15  18
ATOM     18  N   UNL     1      -6.635  13.673  19.153  0.00  0.00    +0.000 N 
ATOM     19  C   UNL     1      -7.398  14.486  20.081  0.00  0.00    +0.000 C 
ATOM     20  C   UNL     1      -7.741  15.717  19.259  0.00  0.00    +0.000 C 
ATOM     21  N   UNL     1      -7.681  15.228  17.915  0.00  0.00    +0.000 N 
ATOM     22  C   UNL     1      -6.858  14.115  17.849  0.00  0.00    +0.000 C 
ATOM     23  O   UNL     1      -6.441  13.665  16.801  0.00  0.00    +0.000 OA
ATOM     24  H   UNL     1      -7.804  15.779  17.074  0.00  0.00    +0.000 HD
ENDBRANCH  15  18
ENDBRANCH   1  11
BRANCH   3  25
ATOM     25  C   UNL     1       0.943  10.061  20.150  0.00  0.00    +0.000 A 
ATOM     26  C   UNL     1       1.266   8.835  20.774  0.00  0.00    +0.000 A 
ATOM     27  C   UNL     1       1.822   7.774  20.054  0.00  0.00    +0.000 A 
ATOM     28  C   UNL     1       2.058   7.910  18.690  0.00  0.00    +0.000 A 
ATOM     29  C   UNL     1       1.717   9.097  18.048  0.00  0.00    +0.000 A 
ATOM     30  C   UNL     1       1.164  10.156  18.767  0.00  0.00    +0.000 A 
ENDBRANCH   3  25
BRANCH   9  31
ATOM     31  C   UNL     1       2.660  14.959  21.625  0.00  0.00    +0.000 C 
BRANCH  31  32
ATOM     32  C   UNL     1       2.714  15.487  20.215  0.00  0.00    +0.000 A 
ATOM     33  C   UNL     1       2.149  16.732  19.901  0.00  0.00    +0.000 A 
ATOM     34  C   UNL     1       2.136  17.190  18.584  0.00  0.00    +0.000 A 
ATOM     35  C   UNL     1       2.685  16.410  17.566  0.00  0.00    +0.000 A 
ATOM     36  C   UNL     1       3.260  15.177  17.867  0.00  0.00    +0.000 A 
ATOM     37  C   UNL     1       3.274  14.717  19.184  0.00  0.00    +0.000 A 
ENDBRANCH  31  32
ENDBRANCH   9  31
TORSDOF 5
ENDMDL
MODEL 9
REMARK VINA RESULT:      -7.8      4.160      7.776
REMARK  Name = 
REMARK  5 active torsions:
REMARK  status: ('A' for Active; 'I' for Inactive)
REMARK    1  A    between atoms: C_2  and  C_3
REMARK    2  A    between atoms: C_5  and  C_6
REMARK    3  A    between atoms: N_17  and  C_18
REMARK    4  A    between atoms: C_18  and  C_19
REMARK    5  A    between atoms: C_28  and  N_29
REMARK                            x       y       z     vdW  Elec       q    Type
REMARK                         _______ _______ _______ _____ _____    ______ ____
ROOT
ATOM      1  C   UNL     1       0.192  12.114  20.582  0.00  0.00    +0.000 A 
ATOM      2  C   UNL     1      -0.836  12.035  19.640  0.00  0.00    +0.000 A 
ATOM      3  C   UNL     1      -1.184  10.800  19.093  0.00  0.00    +0.000 A 
ATOM      4  N   UNL     1      -0.667   9.618  19.526  0.00  0.00    +0.000 NA
ATOM      5  C   UNL     1       0.231   9.739  20.531  0.00  0.00    +0.000 A 
ATOM      6  C   UNL     1       0.699  10.919  21.093  0.00  0.00    +0.000 A 
ATOM      7  C   UNL     1       1.628  10.509  22.072  0.00  0.00    +0.000 A 
ATOM      8  N   UNL     1       1.764   9.181  22.135  0.00  0.00    +0.000 NA
ATOM      9  N   UNL     1       0.883   8.732  21.202  0.00  0.00    +0.000 N 
ENDROOT
BRANCH   1  11
ATOM     10  O   UNL     1       0.356  13.833  22.122  0.00  0.00    +0.000 OA
ATOM     11  C   UNL     1       0.738  13.406  21.034  0.00  0.00    +0.000 C 
ATOM     12  N   UNL     1       1.657  14.082  20.221  0.00  0.00    +0.000 N 
ATOM     13  C   UNL     1       2.275  15.291  20.765  0.00  0.00    +0.000 C 
ATOM     14  C   UNL     1       2.495  16.343  19.685  0.00  0.00    +0.000 C 
ATOM     15  C   UNL     1       3.131  15.805  18.398  0.00  0.00    +0.000 C 
ATOM     16  C   UNL     1       2.537  14.462  17.965  0.00  0.00    +0.000 C 
ATOM     17  C   UNL     1       2.410  13.478  19.117  0.00  0.00    +0.000 C 
BRANCH  15  18
ATOM     18  N   UNL     1       4.597  15.814  18.415  0.00  0.00    +0.000 N 
ATOM     19  C   UNL     1       5.353  14.639  18.024  0.00  0.00    +0.000 C 
ATOM     20  C   UNL     1       6.787  15.143  18.010  0.00  0.00    +0.000 C 
ATOM     21  N   UNL     1       6.743  16.254  18.911  0.00  0.00    +0.000 N 
ATOM     22  C   UNL     1       5.453  16.755  18.987  0.00  0.00    +0.000 C 
ATOM     23  O   UNL     1       5.194  17.836  19.477  0.00  0.00    +0.000 OA
ATOM     24  H   UNL     1       7.510  16.880  19.124  0.00  0.00    +0.000 HD
ENDBRANCH  15  18
ENDBRANCH   1  11
BRANCH   3  25
ATOM     25  C   UNL     1      -2.153  10.725  17.974  0.00  0.00    +0.000 A 
ATOM     26  C   UNL     1      -1.933   9.905  16.843  0.00  0.00    +0.000 A 
ATOM     27  C   UNL     1      -2.820   9.897  15.764  0.00  0.00    +0.000 A 
ATOM     28  C   UNL     1      -3.954  10.701  15.794  0.00  0.00    +0.000 A 
ATOM     29  C   UNL     1      -4.208  11.492  16.911  0.00  0.00    +0.000 A 
ATOM     30  C   UNL     1      -3.323  11.500  17.987  0.00  0.00    +0.000 A 
ENDBRANCH   3  25
BRANCH   9  31
ATOM     31  C   UNL     1       0.736   7.303  20.984  0.00  0.00    +0.000 C 
BRANCH  31  32
ATOM     32  C   UNL     1       1.820   6.779  20.078  0.00  0.00    +0.000 A 
ATOM     33  C   UNL     1       2.480   5.579  20.382  0.00  0.00    +0.000 A 
ATOM     34  C   UNL     1       3.530   5.129  19.582  0.00  0.00    +0.000 A 
ATOM     35  C   UNL     1       3.934   5.872  18.474  0.00  0.00    +0.000 A 
ATOM     36  C   UNL     1       3.280   7.060  18.155  0.00  0.00    +0.000 A 
ATOM     37  C   UNL     1       2.228   7.512  18.953  0.00  0.00    +0.000 A 
ENDBRANCH  31  32
ENDBRANCH   9  31
TORSDOF 5
ENDMDL
