MODEL 1
REMARK VINA RESULT:      -8.7      0.000      0.000
REMARK  Name = 
REMARK  2 active torsions:
REMARK  status: ('A' for Active; 'I' for Inactive)
REMARK    1  A    between atoms: C_2  and  C_3
REMARK    2  A    between atoms: C_3  and  C_4
REMARK                            x       y       z     vdW  Elec       q    Type
REMARK                         _______ _______ _______ _____ _____    ______ ____
ROOT
ATOM      1  O   UNL     1       4.124   7.769  17.513  0.00  0.00    +0.000 OA
ATOM      2  C   UNL     1       3.189   7.295  18.157  0.00  0.00    +0.000 C 
ATOM      3  N   UNL     1       3.360   6.221  19.042  0.00  0.00    +0.000 N 
ATOM      4  C   UNL     1       4.728   5.712  19.197  0.00  0.00    +0.000 C 
ATOM      5  C   UNL     1       5.252   5.027  17.956  0.00  0.00    +0.000 A 
ATOM      6  N   UNL     1       6.397   5.551  17.434  0.00  0.00    +0.000 NA
ATOM      7  C   UNL     1       6.786   5.101  16.230  0.00  0.00    +0.000 A 
ATOM      8  C   UNL     1       6.125   4.098  15.547  0.00  0.00    +0.000 A 
ATOM      9  C   UNL     1       5.014   3.504  16.148  0.00  0.00    +0.000 A 
ATOM     10  C   UNL     1       4.538   3.963  17.378  0.00  0.00    +0.000 A 
ATOM     11  N   UNL     1       3.400   3.442  17.946  0.00  0.00    +0.000 N 
ATOM     12  C   UNL     1       3.239   2.046  18.304  0.00  0.00    +0.000 C 
ATOM     13  C   UNL     1       1.845   1.986  18.929  0.00  0.00    +0.000 C 
ATOM     14  C   UNL     1       1.098   3.181  18.348  0.00  0.00    +0.000 C 
ATOM     15  C   UNL     1       2.181   4.236  18.097  0.00  0.00    +0.000 C 
ATOM     16  C   UNL     1       2.298   5.232  19.266  0.00  0.00    +0.000 C 
ENDROOT
BRANCH   2  17
ATOM     17  C   UNL     1       1.773   7.843  18.047  0.00  0.00    +0.000 C 
BRANCH  17  18
ATOM     18  C   UNL     1       1.503   9.102  18.812  0.00  0.00    +0.000 A 
ATOM     19  C   UNL     1       1.636  10.385  18.302  0.00  0.00    +0.000 A 
ATOM     20  N   UNL     1       1.220  11.274  19.258  0.00  0.00    +0.000 N 
ATOM     21  C   UNL     1       0.812  10.597  20.372  0.00  0.00    +0.000 A 
ATOM     22  N   UNL     1       0.325  11.189  21.479  0.00  0.00    +0.000 NA
ATOM     23  C   UNL     1       0.006  10.310  22.450  0.00  0.00    +0.000 A 
ATOM     24  C   UNL     1       0.128   8.933  22.367  0.00  0.00    +0.000 A 
ATOM     25  C   UNL     1       0.611   8.374  21.188  0.00  0.00    +0.000 A 
ATOM     26  C   UNL     1       0.981   9.239  20.140  0.00  0.00    +0.000 A 
ATOM     27  H   UNL     1       1.188  12.279  19.174  0.00  0.00    +0.000 HD
ENDBRANCH  17  18
ENDBRANCH   2  17
TORSDOF 2
ENDMDL
MODEL 2
REMARK VINA RESULT:      -8.0      0.830      1.643
REMARK  Name = 
REMARK  2 active torsions:
REMARK  status: ('A' for Active; 'I' for Inactive)
REMARK    1  A    between atoms: C_2  and  C_3
REMARK    2  A    between atoms: C_3  and  C_4
REMARK                            x       y       z     vdW  Elec       q    Type
REMARK                         _______ _______ _______ _____ _____    ______ ____
ROOT
ATOM      1  O   UNL     1       4.123   7.731  17.764  0.00  0.00    +0.000 OA
ATOM      2  C   UNL     1       3.238   7.174  18.413  0.00  0.00    +0.000 C 
ATOM      3  N   UNL     1       3.484   6.028  19.183  0.00  0.00    +0.000 N 
ATOM      4  C   UNL     1       4.870   5.545  19.213  0.00  0.00    +0.000 C 
ATOM      5  C   UNL     1       5.337   4.993  17.885  0.00  0.00    +0.000 A 
ATOM      6  N   UNL     1       6.437   5.595  17.351  0.00  0.00    +0.000 NA
ATOM      7  C   UNL     1       6.766   5.268  16.091  0.00  0.00    +0.000 A 
ATOM      8  C   UNL     1       6.089   4.315  15.355  0.00  0.00    +0.000 A 
ATOM      9  C   UNL     1       5.029   3.637  15.959  0.00  0.00    +0.000 A 
ATOM     10  C   UNL     1       4.615   3.967  17.251  0.00  0.00    +0.000 A 
ATOM     11  N   UNL     1       3.524   3.364  17.830  0.00  0.00    +0.000 N 
ATOM     12  C   UNL     1       3.416   1.937  18.065  0.00  0.00    +0.000 C 
ATOM     13  C   UNL     1       2.062   1.781  18.758  0.00  0.00    +0.000 C 
ATOM     14  C   UNL     1       1.256   3.002  18.333  0.00  0.00    +0.000 C 
ATOM     15  C   UNL     1       2.298   4.106  18.123  0.00  0.00    +0.000 C 
ATOM     16  C   UNL     1       2.461   4.993  19.372  0.00  0.00    +0.000 C 
ENDROOT
BRANCH   2  17
ATOM     17  C   UNL     1       1.805   7.689  18.433  0.00  0.00    +0.000 C 
BRANCH  17  18
ATOM     18  C   UNL     1       1.442   8.549  19.605  0.00  0.00    +0.000 A 
ATOM     19  C   UNL     1       1.424   8.125  20.926  0.00  0.00    +0.000 A 
ATOM     20  N   UNL     1       1.133   9.202  21.720  0.00  0.00    +0.000 N 
ATOM     21  C   UNL     1       0.970  10.316  20.946  0.00  0.00    +0.000 A 
ATOM     22  N   UNL     1       0.697  11.541  21.435  0.00  0.00    +0.000 NA
ATOM     23  C   UNL     1       0.566  12.475  20.472  0.00  0.00    +0.000 A 
ATOM     24  C   UNL     1       0.703  12.259  19.110  0.00  0.00    +0.000 A 
ATOM     25  C   UNL     1       1.012  10.978  18.664  0.00  0.00    +0.000 A 
ATOM     26  C   UNL     1       1.145   9.951  19.618  0.00  0.00    +0.000 A 
ATOM     27  H   UNL     1       1.063   9.208  22.727  0.00  0.00    +0.000 HD
ENDBRANCH  17  18
ENDBRANCH   2  17
TORSDOF 2
ENDMDL
MODEL 3
REMARK VINA RESULT:      -7.9      2.530      7.543
REMARK  Name = 
REMARK  2 active torsions:
REMARK  status: ('A' for Active; 'I' for Inactive)
REMARK    1  A    between atoms: C_2  and  C_3
REMARK    2  A    between atoms: C_3  and  C_4
REMARK                            x       y       z     vdW  Elec       q    Type
REMARK                         _______ _______ _______ _____ _____    ______ ____
ROOT
ATOM      1  O   UNL     1       4.201   2.813  17.751  0.00  0.00    +0.000 OA
ATOM      2  C   UNL     1       4.287   3.975  17.356  0.00  0.00    +0.000 C 
ATOM      3  N   UNL     1       4.509   5.048  18.231  0.00  0.00    +0.000 N 
ATOM      4  C   UNL     1       4.681   4.711  19.649  0.00  0.00    +0.000 C 
ATOM      5  C   UNL     1       3.416   4.192  20.294  0.00  0.00    +0.000 A 
ATOM      6  N   UNL     1       3.505   2.949  20.847  0.00  0.00    +0.000 NA
ATOM      7  C   UNL     1       2.362   2.374  21.254  0.00  0.00    +0.000 A 
ATOM      8  C   UNL     1       1.135   3.007  21.201  0.00  0.00    +0.000 A 
ATOM      9  C   UNL     1       1.083   4.319  20.726  0.00  0.00    +0.000 A 
ATOM     10  C   UNL     1       2.233   4.950  20.248  0.00  0.00    +0.000 A 
ATOM     11  N   UNL     1       2.185   6.212  19.705  0.00  0.00    +0.000 N 
ATOM     12  C   UNL     1       1.732   7.387  20.424  0.00  0.00    +0.000 C 
ATOM     13  C   UNL     1       1.911   8.524  19.418  0.00  0.00    +0.000 C 
ATOM     14  C   UNL     1       1.874   7.853  18.050  0.00  0.00    +0.000 C 
ATOM     15  C   UNL     1       2.447   6.451  18.286  0.00  0.00    +0.000 C 
ATOM     16  C   UNL     1       3.953   6.382  17.971  0.00  0.00    +0.000 C 
ENDROOT
BRANCH   2  17
ATOM     17  C   UNL     1       4.161   4.338  15.883  0.00  0.00    +0.000 C 
BRANCH  17  18
ATOM     18  C   UNL     1       5.443   4.677  15.187  0.00  0.00    +0.000 A 
ATOM     19  C   UNL     1       6.496   5.377  15.757  0.00  0.00    +0.000 A 
ATOM     20  N   UNL     1       7.526   5.418  14.855  0.00  0.00    +0.000 N 
ATOM     21  C   UNL     1       7.170   4.752  13.717  0.00  0.00    +0.000 A 
ATOM     22  N   UNL     1       7.976   4.596  12.650  0.00  0.00    +0.000 NA
ATOM     23  C   UNL     1       7.393   3.917  11.643  0.00  0.00    +0.000 A 
ATOM     24  C   UNL     1       6.108   3.397  11.654  0.00  0.00    +0.000 A 
ATOM     25  C   UNL     1       5.329   3.565  12.795  0.00  0.00    +0.000 A 
ATOM     26  C   UNL     1       5.873   4.282  13.877  0.00  0.00    +0.000 A 
ATOM     27  H   UNL     1       8.430   5.846  14.990  0.00  0.00    +0.000 HD
ENDBRANCH  17  18
ENDBRANCH   2  17
TORSDOF 2
ENDMDL
MODEL 4
REMARK VINA RESULT:      -7.8      1.905      7.504
REMARK  Name = 
REMARK  2 active torsions:
REMARK  status: ('A' for Active; 'I' for Inactive)
REMARK    1  A    between atoms: C_2  and  C_3
REMARK    2  A    between atoms: C_3  and  C_4
REMARK                            x       y       z     vdW  Elec       q    Type
REMARK                         _______ _______ _______ _____ _____    ______ ____
ROOT
ATOM      1  O   UNL     1       2.625   9.200  18.318  0.00  0.00    +0.000 OA
ATOM      2  C   UNL     1       1.854   8.649  19.102  0.00  0.00    +0.000 C 
ATOM      3  N   UNL     1       0.577   9.158  19.377  0.00  0.00    +0.000 N 
ATOM      4  C   UNL     1       0.183  10.368  18.644  0.00  0.00    +0.000 C 
ATOM      5  C   UNL     1       0.973  11.592  19.049  0.00  0.00    +0.000 A 
ATOM      6  N   UNL     1       1.653  12.212  18.044  0.00  0.00    +0.000 NA
ATOM      7  C   UNL     1       2.517  13.179  18.391  0.00  0.00    +0.000 A 
ATOM      8  C   UNL     1       2.687  13.610  19.693  0.00  0.00    +0.000 A 
ATOM      9  C   UNL     1       1.904  13.031  20.693  0.00  0.00    +0.000 A 
ATOM     10  C   UNL     1       1.022  11.991  20.396  0.00  0.00    +0.000 A 
ATOM     11  N   UNL     1       0.302  11.358  21.381  0.00  0.00    +0.000 N 
ATOM     12  C   UNL     1      -0.644  12.029  22.251  0.00  0.00    +0.000 C 
ATOM     13  C   UNL     1      -1.202  10.904  23.123  0.00  0.00    +0.000 C 
ATOM     14  C   UNL     1      -0.131   9.820  23.106  0.00  0.00    +0.000 C 
ATOM     15  C   UNL     1       0.548   9.961  21.739  0.00  0.00    +0.000 C 
ATOM     16  C   UNL     1      -0.049   8.998  20.695  0.00  0.00    +0.000 C 
ENDROOT
BRANCH   2  17
ATOM     17  C   UNL     1       2.226   7.366  19.834  0.00  0.00    +0.000 C 
BRANCH  17  18
ATOM     18  C   UNL     1       2.511   6.182  18.963  0.00  0.00    +0.000 A 
ATOM     19  C   UNL     1       3.424   6.166  17.918  0.00  0.00    +0.000 A 
ATOM     20  N   UNL     1       3.476   4.894  17.411  0.00  0.00    +0.000 N 
ATOM     21  C   UNL     1       2.627   4.084  18.109  0.00  0.00    +0.000 A 
ATOM     22  N   UNL     1       2.469   2.768  17.866  0.00  0.00    +0.000 NA
ATOM     23  C   UNL     1       1.562   2.188  18.677  0.00  0.00    +0.000 A 
ATOM     24  C   UNL     1       0.850   2.824  19.681  0.00  0.00    +0.000 A 
ATOM     25  C   UNL     1       1.074   4.178  19.906  0.00  0.00    +0.000 A 
ATOM     26  C   UNL     1       1.996   4.849  19.080  0.00  0.00    +0.000 A 
ATOM     27  H   UNL     1       4.060   4.570  16.654  0.00  0.00    +0.000 HD
ENDBRANCH  17  18
ENDBRANCH   2  17
TORSDOF 2
ENDMDL
MODEL 5
REMARK VINA RESULT:      -7.7      1.656      1.834
REMARK  Name = 
REMARK  2 active torsions:
REMARK  status: ('A' for Active; 'I' for Inactive)
REMARK    1  A    between atoms: C_2  and  C_3
REMARK    2  A    between atoms: C_3  and  C_4
REMARK                            x       y       z     vdW  Elec       q    Type
REMARK                         _______ _______ _______ _____ _____    ______ ____
ROOT
ATOM      1  O   UNL     1       3.916   7.913  17.360  0.00  0.00    +0.000 OA
ATOM      2  C   UNL     1       2.993   7.420  18.006  0.00  0.00    +0.000 C 
ATOM      3  N   UNL     1       3.197   6.390  18.936  0.00  0.00    +0.000 N 
ATOM      4  C   UNL     1       4.585   5.954  19.135  0.00  0.00    +0.000 C 
ATOM      5  C   UNL     1       5.165   5.249  17.930  0.00  0.00    +0.000 A 
ATOM      6  N   UNL     1       6.294   5.807  17.408  0.00  0.00    +0.000 NA
ATOM      7  C   UNL     1       6.727   5.330  16.230  0.00  0.00    +0.000 A 
ATOM      8  C   UNL     1       6.128   4.271  15.576  0.00  0.00    +0.000 A 
ATOM      9  C   UNL     1       5.036   3.647  16.180  0.00  0.00    +0.000 A 
ATOM     10  C   UNL     1       4.514   4.129  17.382  0.00  0.00    +0.000 A 
ATOM     11  N   UNL     1       3.392   3.576  17.950  0.00  0.00    +0.000 N 
ATOM     12  C   UNL     1       3.291   2.189  18.361  0.00  0.00    +0.000 C 
ATOM     13  C   UNL     1       1.889   2.085  18.962  0.00  0.00    +0.000 C 
ATOM     14  C   UNL     1       1.098   3.219  18.321  0.00  0.00    +0.000 C 
ATOM     15  C   UNL     1       2.134   4.315  18.048  0.00  0.00    +0.000 C 
ATOM     16  C   UNL     1       2.180   5.360  19.180  0.00  0.00    +0.000 C 
ENDROOT
BRANCH   2  17
ATOM     17  C   UNL     1       1.554   7.893  17.849  0.00  0.00    +0.000 C 
BRANCH  17  18
ATOM     18  C   UNL     1       1.319   9.349  18.109  0.00  0.00    +0.000 A 
ATOM     19  C   UNL     1       2.316  10.307  18.225  0.00  0.00    +0.000 A 
ATOM     20  N   UNL     1       1.722  11.532  18.371  0.00  0.00    +0.000 N 
ATOM     21  C   UNL     1       0.363  11.393  18.344  0.00  0.00    +0.000 A 
ATOM     22  N   UNL     1      -0.503  12.420  18.442  0.00  0.00    +0.000 NA
ATOM     23  C   UNL     1      -1.792  12.027  18.406  0.00  0.00    +0.000 A 
ATOM     24  C   UNL     1      -2.237  10.723  18.268  0.00  0.00    +0.000 A 
ATOM     25  C   UNL     1      -1.297   9.705  18.143  0.00  0.00    +0.000 A 
ATOM     26  C   UNL     1       0.068  10.045  18.192  0.00  0.00    +0.000 A 
ATOM     27  H   UNL     1       2.189  12.422  18.465  0.00  0.00    +0.000 HD
ENDBRANCH  17  18
ENDBRANCH   2  17
TORSDOF 2
ENDMDL
MODEL 6
REMARK VINA RESULT:      -7.2      1.502      3.357
REMARK  Name = 
REMARK  2 active torsions:
REMARK  status: ('A' for Active; 'I' for Inactive)
REMARK    1  A    between atoms: C_2  and  C_3
REMARK    2  A    between atoms: C_3  and  C_4
REMARK                            x       y       z     vdW  Elec       q    Type
REMARK                         _______ _______ _______ _____ _____    ______ ____
ROOT
ATOM      1  O   UNL     1       1.178   5.247  20.301  0.00  0.00    +0.000 OA
ATOM      2  C   UNL     1       1.770   6.157  19.722  0.00  0.00    +0.000 C 
ATOM      3  N   UNL     1       2.026   6.124  18.343  0.00  0.00    +0.000 N 
ATOM      4  C   UNL     1       1.511   4.961  17.610  0.00  0.00    +0.000 C 
ATOM      5  C   UNL     1       2.214   3.671  17.971  0.00  0.00    +0.000 A 
ATOM      6  N   UNL     1       1.412   2.678  18.447  0.00  0.00    +0.000 NA
ATOM      7  C   UNL     1       2.015   1.593  18.960  0.00  0.00    +0.000 A 
ATOM      8  C   UNL     1       3.386   1.418  18.957  0.00  0.00    +0.000 A 
ATOM      9  C   UNL     1       4.182   2.402  18.370  0.00  0.00    +0.000 A 
ATOM     10  C   UNL     1       3.612   3.572  17.863  0.00  0.00    +0.000 A 
ATOM     11  N   UNL     1       4.388   4.585  17.353  0.00  0.00    +0.000 N 
ATOM     12  C   UNL     1       5.286   4.428  16.225  0.00  0.00    +0.000 C 
ATOM     13  C   UNL     1       5.870   5.827  16.025  0.00  0.00    +0.000 C 
ATOM     14  C   UNL     1       5.736   6.511  17.380  0.00  0.00    +0.000 C 
ATOM     15  C   UNL     1       4.487   5.886  18.012  0.00  0.00    +0.000 C 
ATOM     16  C   UNL     1       3.228   6.739  17.769  0.00  0.00    +0.000 C 
ENDROOT
BRANCH   2  17
ATOM     17  C   UNL     1       2.267   7.394  20.457  0.00  0.00    +0.000 C 
BRANCH  17  18
ATOM     18  C   UNL     1       1.429   8.624  20.297  0.00  0.00    +0.000 A 
ATOM     19  C   UNL     1       1.210   9.286  19.097  0.00  0.00    +0.000 A 
ATOM     20  N   UNL     1       0.327  10.308  19.324  0.00  0.00    +0.000 N 
ATOM     21  C   UNL     1      -0.039  10.320  20.640  0.00  0.00    +0.000 A 
ATOM     22  N   UNL     1      -0.915  11.193  21.173  0.00  0.00    +0.000 NA
ATOM     23  C   UNL     1      -1.100  11.013  22.496  0.00  0.00    +0.000 A 
ATOM     24  C   UNL     1      -0.494  10.040  23.273  0.00  0.00    +0.000 A 
ATOM     25  C   UNL     1       0.381   9.146  22.664  0.00  0.00    +0.000 A 
ATOM     26  C   UNL     1       0.633   9.291  21.286  0.00  0.00    +0.000 A 
ATOM     27  H   UNL     1      -0.034  10.956  18.640  0.00  0.00    +0.000 HD
ENDBRANCH  17  18
ENDBRANCH   2  17
TORSDOF 2
ENDMDL
MODEL 7
REMARK VINA RESULT:      -7.2      1.667      3.696
REMARK  Name = 
REMARK  2 active torsions:
REMARK  status: ('A' for Active; 'I' for Inactive)
REMARK    1  A    between atoms: C_2  and  C_3
REMARK    2  A    between atoms: C_3  and  C_4
REMARK                            x       y       z     vdW  Elec       q    Type
REMARK                         _______ _______ _______ _____ _____    ______ ____
ROOT
ATOM      1  O   UNL     1       1.303   5.357  20.471  0.00  0.00    +0.000 OA
ATOM      2  C   UNL     1       1.821   6.293  19.865  0.00  0.00    +0.000 C 
ATOM      3  N   UNL     1       1.966   6.291  18.470  0.00  0.00    +0.000 N 
ATOM      4  C   UNL     1       1.424   5.128  17.757  0.00  0.00    +0.000 C 
ATOM      5  C   UNL     1       2.188   3.852  18.034  0.00  0.00    +0.000 A 
ATOM      6  N   UNL     1       1.453   2.829  18.554  0.00  0.00    +0.000 NA
ATOM      7  C   UNL     1       2.124   1.752  18.994  0.00  0.00    +0.000 A 
ATOM      8  C   UNL     1       3.494   1.615  18.879  0.00  0.00    +0.000 A 
ATOM      9  C   UNL     1       4.214   2.632  18.249  0.00  0.00    +0.000 A 
ATOM     10  C   UNL     1       3.574   3.793  17.813  0.00  0.00    +0.000 A 
ATOM     11  N   UNL     1       4.280   4.837  17.262  0.00  0.00    +0.000 N 
ATOM     12  C   UNL     1       5.088   4.725  16.063  0.00  0.00    +0.000 C 
ATOM     13  C   UNL     1       5.617   6.143  15.845  0.00  0.00    +0.000 C 
ATOM     14  C   UNL     1       5.575   6.799  17.220  0.00  0.00    +0.000 C 
ATOM     15  C   UNL     1       4.398   6.128  17.938  0.00  0.00    +0.000 C 
ATOM     16  C   UNL     1       3.101   6.951  17.813  0.00  0.00    +0.000 C 
ENDROOT
BRANCH   2  17
ATOM     17  C   UNL     1       2.344   7.530  20.582  0.00  0.00    +0.000 C 
BRANCH  17  18
ATOM     18  C   UNL     1       1.312   8.551  20.950  0.00  0.00    +0.000 A 
ATOM     19  C   UNL     1       0.959   8.892  22.248  0.00  0.00    +0.000 A 
ATOM     20  N   UNL     1       0.052   9.917  22.192  0.00  0.00    +0.000 N 
ATOM     21  C   UNL     1      -0.185  10.255  20.890  0.00  0.00    +0.000 A 
ATOM     22  N   UNL     1      -1.014  11.244  20.505  0.00  0.00    +0.000 NA
ATOM     23  C   UNL     1      -1.094  11.373  19.166  0.00  0.00    +0.000 A 
ATOM     24  C   UNL     1      -0.407  10.610  18.237  0.00  0.00    +0.000 A 
ATOM     25  C   UNL     1       0.458   9.620  18.692  0.00  0.00    +0.000 A 
ATOM     26  C   UNL     1       0.573   9.420  20.081  0.00  0.00    +0.000 A 
ATOM     27  H   UNL     1      -0.377  10.387  22.976  0.00  0.00    +0.000 HD
ENDBRANCH  17  18
ENDBRANCH   2  17
TORSDOF 2
ENDMDL
MODEL 8
REMARK VINA RESULT:      -7.2      2.484      7.533
REMARK  Name = 
REMARK  2 active torsions:
REMARK  status: ('A' for Active; 'I' for Inactive)
REMARK    1  A    between atoms: C_2  and  C_3
REMARK    2  A    between atoms: C_3  and  C_4
REMARK                            x       y       z     vdW  Elec       q    Type
REMARK                         _______ _______ _______ _____ _____    ______ ____
ROOT
ATOM      1  O   UNL     1       4.581   3.429  16.748  0.00  0.00    +0.000 OA
ATOM      2  C   UNL     1       4.722   4.638  16.928  0.00  0.00    +0.000 C 
ATOM      3  N   UNL     1       4.742   5.205  18.210  0.00  0.00    +0.000 N 
ATOM      4  C   UNL     1       4.630   4.274  19.340  0.00  0.00    +0.000 C 
ATOM      5  C   UNL     1       3.271   3.619  19.438  0.00  0.00    +0.000 A 
ATOM      6  N   UNL     1       3.271   2.257  19.394  0.00  0.00    +0.000 NA
ATOM      7  C   UNL     1       2.080   1.645  19.281  0.00  0.00    +0.000 A 
ATOM      8  C   UNL     1       0.878   2.326  19.280  0.00  0.00    +0.000 A 
ATOM      9  C   UNL     1       0.898   3.713  19.430  0.00  0.00    +0.000 A 
ATOM     10  C   UNL     1       2.108   4.405  19.506  0.00  0.00    +0.000 A 
ATOM     11  N   UNL     1       2.146   5.777  19.575  0.00  0.00    +0.000 N 
ATOM     12  C   UNL     1       1.535   6.553  20.638  0.00  0.00    +0.000 C 
ATOM     13  C   UNL     1       1.891   7.998  20.288  0.00  0.00    +0.000 C 
ATOM     14  C   UNL     1       2.144   7.992  18.785  0.00  0.00    +0.000 C 
ATOM     15  C   UNL     1       2.684   6.589  18.484  0.00  0.00    +0.000 C 
ATOM     16  C   UNL     1       4.224   6.555  18.463  0.00  0.00    +0.000 C 
ENDROOT
BRANCH   2  17
ATOM     17  C   UNL     1       4.889   5.613  15.770  0.00  0.00    +0.000 C 
BRANCH  17  18
ATOM     18  C   UNL     1       5.942   5.254  14.768  0.00  0.00    +0.000 A 
ATOM     19  C   UNL     1       7.268   5.658  14.829  0.00  0.00    +0.000 A 
ATOM     20  N   UNL     1       7.947   5.067  13.796  0.00  0.00    +0.000 N 
ATOM     21  C   UNL     1       7.094   4.283  13.072  0.00  0.00    +0.000 A 
ATOM     22  N   UNL     1       7.465   3.552  12.004  0.00  0.00    +0.000 NA
ATOM     23  C   UNL     1       6.442   2.875  11.448  0.00  0.00    +0.000 A 
ATOM     24  C   UNL     1       5.130   2.880  11.894  0.00  0.00    +0.000 A 
ATOM     25  C   UNL     1       4.809   3.632  13.020  0.00  0.00    +0.000 A 
ATOM     26  C   UNL     1       5.830   4.379  13.638  0.00  0.00    +0.000 A 
ATOM     27  H   UNL     1       8.930   5.161  13.589  0.00  0.00    +0.000 HD
ENDBRANCH  17  18
ENDBRANCH   2  17
TORSDOF 2
ENDMDL
MODEL 9
REMARK VINA RESULT:      -7.2      1.685      7.615
REMARK  Name = 
REMARK  2 active torsions:
REMARK  status: ('A' for Active; 'I' for Inactive)
REMARK    1  A    between atoms: C_2  and  C_3
REMARK    2  A    between atoms: C_3  and  C_4
REMARK                            x       y       z     vdW  Elec       q    Type
REMARK                         _______ _______ _______ _____ _____    ______ ____
ROOT
ATOM      1  O   UNL     1       2.610   9.058  18.260  0.00  0.00    +0.000 OA
ATOM      2  C   UNL     1       1.877   8.497  19.073  0.00  0.00    +0.000 C 
ATOM      3  N   UNL     1       0.596   8.978  19.381  0.00  0.00    +0.000 N 
ATOM      4  C   UNL     1       0.150  10.169  18.647  0.00  0.00    +0.000 C 
ATOM      5  C   UNL     1       0.921  11.416  19.015  0.00  0.00    +0.000 A 
ATOM      6  N   UNL     1       1.555  12.041  17.983  0.00  0.00    +0.000 NA
ATOM      7  C   UNL     1       2.405  13.034  18.294  0.00  0.00    +0.000 A 
ATOM      8  C   UNL     1       2.602  13.484  19.585  0.00  0.00    +0.000 A 
ATOM      9  C   UNL     1       1.864  12.897  20.614  0.00  0.00    +0.000 A 
ATOM     10  C   UNL     1       1.000  11.832  20.355  0.00  0.00    +0.000 A 
ATOM     11  N   UNL     1       0.326  11.192  21.368  0.00  0.00    +0.000 N 
ATOM     12  C   UNL     1      -0.610  11.850  22.259  0.00  0.00    +0.000 C 
ATOM     13  C   UNL     1      -1.113  10.722  23.160  0.00  0.00    +0.000 C 
ATOM     14  C   UNL     1      -0.016   9.664  23.122  0.00  0.00    +0.000 C 
ATOM     15  C   UNL     1       0.618   9.807  21.734  0.00  0.00    +0.000 C 
ATOM     16  C   UNL     1       0.014   8.817  20.719  0.00  0.00    +0.000 C 
ENDROOT
BRANCH   2  17
ATOM     17  C   UNL     1       2.303   7.233  19.807  0.00  0.00    +0.000 C 
BRANCH  17  18
ATOM     18  C   UNL     1       2.622   6.055  18.938  0.00  0.00    +0.000 A 
ATOM     19  C   UNL     1       1.847   4.909  18.837  0.00  0.00    +0.000 A 
ATOM     20  N   UNL     1       2.404   4.095  17.886  0.00  0.00    +0.000 N 
ATOM     21  C   UNL     1       3.517   4.690  17.363  0.00  0.00    +0.000 A 
ATOM     22  N   UNL     1       4.274   4.149  16.389  0.00  0.00    +0.000 NA
ATOM     23  C   UNL     1       5.327   4.920  16.052  0.00  0.00    +0.000 A 
ATOM     24  C   UNL     1       5.638   6.152  16.603  0.00  0.00    +0.000 A 
ATOM     25  C   UNL     1       4.804   6.675  17.586  0.00  0.00    +0.000 A 
ATOM     26  C   UNL     1       3.695   5.911  17.998  0.00  0.00    +0.000 A 
ATOM     27  H   UNL     1       2.056   3.198  17.582  0.00  0.00    +0.000 HD
ENDBRANCH  17  18
ENDBRANCH   2  17
TORSDOF 2
ENDMDL
