MODEL 1
REMARK VINA RESULT:      -8.6      0.000      0.000
REMARK  Name = 
REMARK  6 active torsions:
REMARK  status: ('A' for Active; 'I' for Inactive)
REMARK    1  A    between atoms: C_1  and  C_2
REMARK    2  A    between atoms: N_4  and  C_5
REMARK    3  A    between atoms: C_11  and  C_12
REMARK    4  A    between atoms: C_13  and  C_14
REMARK    5  A    between atoms: N_16  and  C_17
REMARK    6  A    between atoms: C_21  and  C_22
REMARK                            x       y       z     vdW  Elec       q    Type
REMARK                         _______ _______ _______ _____ _____    ______ ____
ROOT
ATOM      1  C   UNL     1       1.854   7.971  19.544  0.00  0.00    +0.000 C 
ATOM      2  O   UNL     1       2.287   7.413  20.549  0.00  0.00    +0.000 OA
ATOM      3  N   UNL     1       1.979   7.422  18.272  0.00  0.00    +0.000 N 
ATOM      4  H   UNL     1       1.795   8.012  17.477  0.00  0.00    +0.000 HD
ENDROOT
BRANCH   1  11
ATOM      5  C   UNL     1       2.222  10.920  17.876  0.00  0.00    +0.000 C 
ATOM      6  C   UNL     1       1.310  10.520  18.979  0.00  0.00    +0.000 A 
ATOM      7  N   UNL     1       0.409  11.414  19.388  0.00  0.00    +0.000 NA
ATOM      8  N   UNL     1      -0.218  10.851  20.449  0.00  0.00    +0.000 N 
ATOM      9  C   UNL     1       0.188   9.538  20.618  0.00  0.00    +0.000 A 
ATOM     10  C   UNL     1      -0.456   8.567  21.558  0.00  0.00    +0.000 C 
ATOM     11  C   UNL     1       1.199   9.287  19.680  0.00  0.00    +0.000 A 
BRANCH   8  12
ATOM     12  C   UNL     1      -1.203  11.588  21.169  0.00  0.00    +0.000 A 
ATOM     13  C   UNL     1      -2.179  12.303  20.458  0.00  0.00    +0.000 A 
ATOM     14  C   UNL     1      -3.236  12.911  21.140  0.00  0.00    +0.000 A 
ATOM     15  C   UNL     1      -3.305  12.844  22.532  0.00  0.00    +0.000 A 
ATOM     16  C   UNL     1      -2.299  12.198  23.247  0.00  0.00    +0.000 A 
ATOM     17  C   UNL     1      -1.243  11.585  22.570  0.00  0.00    +0.000 A 
ENDBRANCH   8  12
ENDBRANCH   1  11
BRANCH   3  18
ATOM     18  C   UNL     1       2.514   6.130  17.991  0.00  0.00    +0.000 A 
ATOM     19  C   UNL     1       1.712   4.987  17.879  0.00  0.00    +0.000 A 
ATOM     20  C   UNL     1       2.267   3.730  17.643  0.00  0.00    +0.000 A 
ATOM     21  C   UNL     1       3.640   3.596  17.486  0.00  0.00    +0.000 A 
ATOM     22  C   UNL     1       4.472   4.723  17.540  0.00  0.00    +0.000 A 
ATOM     23  C   UNL     1       3.899   5.988  17.801  0.00  0.00    +0.000 A 
BRANCH  22  24
ATOM     24  C   UNL     1       5.909   4.576  17.334  0.00  0.00    +0.000 A 
ATOM     25  N   UNL     1       6.584   4.592  16.201  0.00  0.00    +0.000 NA
ATOM     26  N   UNL     1       7.911   4.441  16.534  0.00  0.00    +0.000 NA
ATOM     27  N   UNL     1       8.062   4.305  17.844  0.00  0.00    +0.000 NA
ATOM     28  N   UNL     1       6.819   4.377  18.339  0.00  0.00    +0.000 N 
ATOM     29  H   UNL     1       6.674   4.284  19.335  0.00  0.00    +0.000 HD
ENDBRANCH  22  24
ENDBRANCH   3  18
TORSDOF 4
ENDMDL
MODEL 2
REMARK VINA RESULT:      -8.3      2.272      3.101
REMARK  Name = 
REMARK  6 active torsions:
REMARK  status: ('A' for Active; 'I' for Inactive)
REMARK    1  A    between atoms: C_1  and  C_2
REMARK    2  A    between atoms: N_4  and  C_5
REMARK    3  A    between atoms: C_11  and  C_12
REMARK    4  A    between atoms: C_13  and  C_14
REMARK    5  A    between atoms: N_16  and  C_17
REMARK    6  A    between atoms: C_21  and  C_22
REMARK                            x       y       z     vdW  Elec       q    Type
REMARK                         _______ _______ _______ _____ _____    ______ ____
ROOT
ATOM      1  C   UNL     1       1.604   8.592  18.688  0.00  0.00    +0.000 C 
ATOM      2  O   UNL     1       1.289   8.614  17.500  0.00  0.00    +0.000 OA
ATOM      3  N   UNL     1       2.220   7.492  19.277  0.00  0.00    +0.000 N 
ATOM      4  H   UNL     1       2.263   7.451  20.282  0.00  0.00    +0.000 HD
ENDROOT
BRANCH   1  11
ATOM      5  C   UNL     1       0.133   8.912  21.745  0.00  0.00    +0.000 C 
ATOM      6  C   UNL     1       0.715   9.921  20.821  0.00  0.00    +0.000 A 
ATOM      7  N   UNL     1       0.753  11.188  21.238  0.00  0.00    +0.000 NA
ATOM      8  N   UNL     1       1.227  11.907  20.193  0.00  0.00    +0.000 N 
ATOM      9  C   UNL     1       1.627  11.073  19.163  0.00  0.00    +0.000 A 
ATOM     10  C   UNL     1       2.386  11.524  17.954  0.00  0.00    +0.000 C 
ATOM     11  C   UNL     1       1.296   9.761  19.533  0.00  0.00    +0.000 A 
BRANCH   8  12
ATOM     12  C   UNL     1       1.324  13.327  20.291  0.00  0.00    +0.000 A 
ATOM     13  C   UNL     1       2.429  13.894  20.941  0.00  0.00    +0.000 A 
ATOM     14  C   UNL     1       2.617  15.279  20.922  0.00  0.00    +0.000 A 
ATOM     15  C   UNL     1       1.687  16.105  20.290  0.00  0.00    +0.000 A 
ATOM     16  C   UNL     1       0.550  15.552  19.706  0.00  0.00    +0.000 A 
ATOM     17  C   UNL     1       0.360  14.168  19.719  0.00  0.00    +0.000 A 
ENDBRANCH   8  12
ENDBRANCH   1  11
BRANCH   3  18
ATOM     18  C   UNL     1       2.649   6.326  18.577  0.00  0.00    +0.000 A 
ATOM     19  C   UNL     1       1.836   5.196  18.418  0.00  0.00    +0.000 A 
ATOM     20  C   UNL     1       2.297   4.055  17.762  0.00  0.00    +0.000 A 
ATOM     21  C   UNL     1       3.578   4.034  17.225  0.00  0.00    +0.000 A 
ATOM     22  C   UNL     1       4.404   5.162  17.318  0.00  0.00    +0.000 A 
ATOM     23  C   UNL     1       3.932   6.304  18.005  0.00  0.00    +0.000 A 
BRANCH  22  24
ATOM     24  C   UNL     1       5.733   5.142  16.717  0.00  0.00    +0.000 A 
ATOM     25  N   UNL     1       6.225   5.931  15.781  0.00  0.00    +0.000 NA
ATOM     26  N   UNL     1       7.525   5.529  15.573  0.00  0.00    +0.000 NA
ATOM     27  N   UNL     1       7.832   4.493  16.341  0.00  0.00    +0.000 NA
ATOM     28  N   UNL     1       6.718   4.246  17.042  0.00  0.00    +0.000 N 
ATOM     29  H   UNL     1       6.702   3.477  17.698  0.00  0.00    +0.000 HD
ENDBRANCH  22  24
ENDBRANCH   3  18
TORSDOF 4
ENDMDL
MODEL 3
REMARK VINA RESULT:      -8.2      1.140      1.380
REMARK  Name = 
REMARK  6 active torsions:
REMARK  status: ('A' for Active; 'I' for Inactive)
REMARK    1  A    between atoms: C_1  and  C_2
REMARK    2  A    between atoms: N_4  and  C_5
REMARK    3  A    between atoms: C_11  and  C_12
REMARK    4  A    between atoms: C_13  and  C_14
REMARK    5  A    between atoms: N_16  and  C_17
REMARK    6  A    between atoms: C_21  and  C_22
REMARK                            x       y       z     vdW  Elec       q    Type
REMARK                         _______ _______ _______ _____ _____    ______ ____
ROOT
ATOM      1  C   UNL     1       1.885   8.882  18.379  0.00  0.00    +0.000 C 
ATOM      2  O   UNL     1       2.220   8.920  17.197  0.00  0.00    +0.000 OA
ATOM      3  N   UNL     1       2.007   7.732  19.153  0.00  0.00    +0.000 N 
ATOM      4  H   UNL     1       1.530   7.701  20.039  0.00  0.00    +0.000 HD
ENDROOT
BRANCH   1  11
ATOM      5  C   UNL     1       2.524  12.208  18.006  0.00  0.00    +0.000 C 
ATOM      6  C   UNL     1       1.528  11.484  18.839  0.00  0.00    +0.000 A 
ATOM      7  N   UNL     1       0.660  12.217  19.538  0.00  0.00    +0.000 NA
ATOM      8  N   UNL     1      -0.059  11.337  20.275  0.00  0.00    +0.000 N 
ATOM      9  C   UNL     1       0.257  10.034  19.930  0.00  0.00    +0.000 A 
ATOM     10  C   UNL     1      -0.497   8.828  20.397  0.00  0.00    +0.000 C 
ATOM     11  C   UNL     1       1.304  10.088  18.998  0.00  0.00    +0.000 A 
BRANCH   8  12
ATOM     12  C   UNL     1      -1.038  11.812  21.197  0.00  0.00    +0.000 A 
ATOM     13  C   UNL     1      -2.185  12.453  20.707  0.00  0.00    +0.000 A 
ATOM     14  C   UNL     1      -3.222  12.795  21.580  0.00  0.00    +0.000 A 
ATOM     15  C   UNL     1      -3.104  12.537  22.946  0.00  0.00    +0.000 A 
ATOM     16  C   UNL     1      -1.935  11.968  23.447  0.00  0.00    +0.000 A 
ATOM     17  C   UNL     1      -0.898  11.620  22.578  0.00  0.00    +0.000 A 
ENDBRANCH   8  12
ENDBRANCH   1  11
BRANCH   3  18
ATOM     18  C   UNL     1       2.619   6.519  18.720  0.00  0.00    +0.000 A 
ATOM     19  C   UNL     1       1.893   5.470  18.141  0.00  0.00    +0.000 A 
ATOM     20  C   UNL     1       2.512   4.279  17.763  0.00  0.00    +0.000 A 
ATOM     21  C   UNL     1       3.882   4.126  17.932  0.00  0.00    +0.000 A 
ATOM     22  C   UNL     1       4.652   5.171  18.460  0.00  0.00    +0.000 A 
ATOM     23  C   UNL     1       4.008   6.364  18.859  0.00  0.00    +0.000 A 
BRANCH  22  24
ATOM     24  C   UNL     1       6.096   5.014  18.596  0.00  0.00    +0.000 A 
ATOM     25  N   UNL     1       6.871   5.373  19.601  0.00  0.00    +0.000 NA
ATOM     26  N   UNL     1       8.149   4.986  19.267  0.00  0.00    +0.000 NA
ATOM     27  N   UNL     1       8.179   4.423  18.067  0.00  0.00    +0.000 NA
ATOM     28  N   UNL     1       6.908   4.450  17.647  0.00  0.00    +0.000 N 
ATOM     29  H   UNL     1       6.676   4.083  16.734  0.00  0.00    +0.000 HD
ENDBRANCH  22  24
ENDBRANCH   3  18
TORSDOF 4
ENDMDL
MODEL 4
REMARK VINA RESULT:      -8.2      0.703      1.339
REMARK  Name = 
REMARK  6 active torsions:
REMARK  status: ('A' for Active; 'I' for Inactive)
REMARK    1  A    between atoms: C_1  and  C_2
REMARK    2  A    between atoms: N_4  and  C_5
REMARK    3  A    between atoms: C_11  and  C_12
REMARK    4  A    between atoms: C_13  and  C_14
REMARK    5  A    between atoms: N_16  and  C_17
REMARK    6  A    between atoms: C_21  and  C_22
REMARK                            x       y       z     vdW  Elec       q    Type
REMARK                         _______ _______ _______ _____ _____    ______ ____
ROOT
ATOM      1  C   UNL     1       1.724   8.325  19.601  0.00  0.00    +0.000 C 
ATOM      2  O   UNL     1       2.008   7.660  20.595  0.00  0.00    +0.000 OA
ATOM      3  N   UNL     1       1.982   7.881  18.308  0.00  0.00    +0.000 N 
ATOM      4  H   UNL     1       1.921   8.547  17.554  0.00  0.00    +0.000 HD
ENDROOT
BRANCH   1  11
ATOM      5  C   UNL     1       2.189  11.312  18.030  0.00  0.00    +0.000 C 
ATOM      6  C   UNL     1       1.265  10.906  19.120  0.00  0.00    +0.000 A 
ATOM      7  N   UNL     1       0.392  11.816  19.558  0.00  0.00    +0.000 NA
ATOM      8  N   UNL     1      -0.253  11.239  20.600  0.00  0.00    +0.000 N 
ATOM      9  C   UNL     1       0.109   9.909  20.726  0.00  0.00    +0.000 A 
ATOM     10  C   UNL     1      -0.566   8.930  21.635  0.00  0.00    +0.000 C 
ATOM     11  C   UNL     1       1.113   9.655  19.780  0.00  0.00    +0.000 A 
BRANCH   8  12
ATOM     12  C   UNL     1      -1.214  11.985  21.344  0.00  0.00    +0.000 A 
ATOM     13  C   UNL     1      -0.880  12.446  22.625  0.00  0.00    +0.000 A 
ATOM     14  C   UNL     1      -1.751  13.299  23.311  0.00  0.00    +0.000 A 
ATOM     15  C   UNL     1      -2.970  13.664  22.740  0.00  0.00    +0.000 A 
ATOM     16  C   UNL     1      -3.338  13.150  21.499  0.00  0.00    +0.000 A 
ATOM     17  C   UNL     1      -2.471  12.300  20.808  0.00  0.00    +0.000 A 
ENDBRANCH   8  12
ENDBRANCH   1  11
BRANCH   3  18
ATOM     18  C   UNL     1       2.493   6.593  17.974  0.00  0.00    +0.000 A 
ATOM     19  C   UNL     1       1.736   5.421  18.104  0.00  0.00    +0.000 A 
ATOM     20  C   UNL     1       2.275   4.170  17.807  0.00  0.00    +0.000 A 
ATOM     21  C   UNL     1       3.581   4.070  17.345  0.00  0.00    +0.000 A 
ATOM     22  C   UNL     1       4.355   5.223  17.152  0.00  0.00    +0.000 A 
ATOM     23  C   UNL     1       3.803   6.482  17.478  0.00  0.00    +0.000 A 
BRANCH  22  24
ATOM     24  C   UNL     1       5.712   5.109  16.630  0.00  0.00    +0.000 A 
ATOM     25  N   UNL     1       6.716   4.391  17.095  0.00  0.00    +0.000 NA
ATOM     26  N   UNL     1       7.775   4.599  16.241  0.00  0.00    +0.000 NA
ATOM     27  N   UNL     1       7.452   5.451  15.278  0.00  0.00    +0.000 NA
ATOM     28  N   UNL     1       6.176   5.776  15.526  0.00  0.00    +0.000 N 
ATOM     29  H   UNL     1       5.704   6.436  14.923  0.00  0.00    +0.000 HD
ENDBRANCH  22  24
ENDBRANCH   3  18
TORSDOF 4
ENDMDL
MODEL 5
REMARK VINA RESULT:      -8.0      1.182      1.270
REMARK  Name = 
REMARK  6 active torsions:
REMARK  status: ('A' for Active; 'I' for Inactive)
REMARK    1  A    between atoms: C_1  and  C_2
REMARK    2  A    between atoms: N_4  and  C_5
REMARK    3  A    between atoms: C_11  and  C_12
REMARK    4  A    between atoms: C_13  and  C_14
REMARK    5  A    between atoms: N_16  and  C_17
REMARK    6  A    between atoms: C_21  and  C_22
REMARK                            x       y       z     vdW  Elec       q    Type
REMARK                         _______ _______ _______ _____ _____    ______ ____
ROOT
ATOM      1  C   UNL     1       1.810   8.880  18.397  0.00  0.00    +0.000 C 
ATOM      2  O   UNL     1       1.968   8.808  17.181  0.00  0.00    +0.000 OA
ATOM      3  N   UNL     1       2.086   7.816  19.251  0.00  0.00    +0.000 N 
ATOM      4  H   UNL     1       1.744   7.863  20.197  0.00  0.00    +0.000 HD
ENDROOT
BRANCH   1  11
ATOM      5  C   UNL     1       2.592  12.162  17.920  0.00  0.00    +0.000 C 
ATOM      6  C   UNL     1       1.567  11.508  18.775  0.00  0.00    +0.000 A 
ATOM      7  N   UNL     1       0.732  12.300  19.450  0.00  0.00    +0.000 NA
ATOM      8  N   UNL     1      -0.023  11.476  20.214  0.00  0.00    +0.000 N 
ATOM      9  C   UNL     1       0.236  10.150  19.911  0.00  0.00    +0.000 A 
ATOM     10  C   UNL     1      -0.569   8.993  20.416  0.00  0.00    +0.000 C 
ATOM     11  C   UNL     1       1.283  10.129  18.978  0.00  0.00    +0.000 A 
BRANCH   8  12
ATOM     12  C   UNL     1      -0.980  12.022  21.120  0.00  0.00    +0.000 A 
ATOM     13  C   UNL     1      -2.171  12.561  20.615  0.00  0.00    +0.000 A 
ATOM     14  C   UNL     1      -3.182  12.968  21.491  0.00  0.00    +0.000 A 
ATOM     15  C   UNL     1      -2.995  12.875  22.870  0.00  0.00    +0.000 A 
ATOM     16  C   UNL     1      -1.785  12.408  23.378  0.00  0.00    +0.000 A 
ATOM     17  C   UNL     1      -0.773  11.997  22.507  0.00  0.00    +0.000 A 
ENDBRANCH   8  12
ENDBRANCH   1  11
BRANCH   3  18
ATOM     18  C   UNL     1       2.671   6.579  18.849  0.00  0.00    +0.000 A 
ATOM     19  C   UNL     1       2.067   5.340  19.099  0.00  0.00    +0.000 A 
ATOM     20  C   UNL     1       2.682   4.145  18.729  0.00  0.00    +0.000 A 
ATOM     21  C   UNL     1       3.907   4.168  18.074  0.00  0.00    +0.000 A 
ATOM     22  C   UNL     1       4.519   5.389  17.760  0.00  0.00    +0.000 A 
ATOM     23  C   UNL     1       3.895   6.592  18.160  0.00  0.00    +0.000 A 
BRANCH  22  24
ATOM     24  C   UNL     1       5.786   5.403  17.037  0.00  0.00    +0.000 A 
ATOM     25  N   UNL     1       6.348   6.399  16.381  0.00  0.00    +0.000 NA
ATOM     26  N   UNL     1       7.545   5.922  15.896  0.00  0.00    +0.000 NA
ATOM     27  N   UNL     1       7.716   4.647  16.217  0.00  0.00    +0.000 NA
ATOM     28  N   UNL     1       6.620   4.322  16.915  0.00  0.00    +0.000 N 
ATOM     29  H   UNL     1       6.512   3.378  17.262  0.00  0.00    +0.000 HD
ENDBRANCH  22  24
ENDBRANCH   3  18
TORSDOF 4
ENDMDL
MODEL 6
REMARK VINA RESULT:      -8.0      2.009      2.951
REMARK  Name = 
REMARK  6 active torsions:
REMARK  status: ('A' for Active; 'I' for Inactive)
REMARK    1  A    between atoms: C_1  and  C_2
REMARK    2  A    between atoms: N_4  and  C_5
REMARK    3  A    between atoms: C_11  and  C_12
REMARK    4  A    between atoms: C_13  and  C_14
REMARK    5  A    between atoms: N_16  and  C_17
REMARK    6  A    between atoms: C_21  and  C_22
REMARK                            x       y       z     vdW  Elec       q    Type
REMARK                         _______ _______ _______ _____ _____    ______ ____
ROOT
ATOM      1  C   UNL     1       1.794   8.431  18.629  0.00  0.00    +0.000 C 
ATOM      2  O   UNL     1       2.055   8.563  17.436  0.00  0.00    +0.000 OA
ATOM      3  N   UNL     1       1.969   7.226  19.303  0.00  0.00    +0.000 N 
ATOM      4  H   UNL     1       1.548   7.122  20.212  0.00  0.00    +0.000 HD
ENDROOT
BRANCH   1  11
ATOM      5  C   UNL     1      -0.132   8.664  21.431  0.00  0.00    +0.000 C 
ATOM      6  C   UNL     1       0.470   9.707  20.560  0.00  0.00    +0.000 A 
ATOM      7  N   UNL     1       0.317  10.981  20.928  0.00  0.00    +0.000 NA
ATOM      8  N   UNL     1       0.861  11.722  19.933  0.00  0.00    +0.000 N 
ATOM      9  C   UNL     1       1.491  10.911  19.005  0.00  0.00    +0.000 A 
ATOM     10  C   UNL     1       2.367  11.411  17.899  0.00  0.00    +0.000 C 
ATOM     11  C   UNL     1       1.247   9.580  19.375  0.00  0.00    +0.000 A 
BRANCH   8  12
ATOM     12  C   UNL     1       0.795  13.145  19.988  0.00  0.00    +0.000 A 
ATOM     13  C   UNL     1       1.847  13.856  20.583  0.00  0.00    +0.000 A 
ATOM     14  C   UNL     1       1.872  15.253  20.518  0.00  0.00    +0.000 A 
ATOM     15  C   UNL     1       0.833  15.946  19.896  0.00  0.00    +0.000 A 
ATOM     16  C   UNL     1      -0.249  15.247  19.367  0.00  0.00    +0.000 A 
ATOM     17  C   UNL     1      -0.278  13.852  19.426  0.00  0.00    +0.000 A 
ENDBRANCH   8  12
ENDBRANCH   1  11
BRANCH   3  18
ATOM     18  C   UNL     1       2.558   6.056  18.741  0.00  0.00    +0.000 A 
ATOM     19  C   UNL     1       1.798   5.010  18.201  0.00  0.00    +0.000 A 
ATOM     20  C   UNL     1       2.401   3.860  17.694  0.00  0.00    +0.000 A 
ATOM     21  C   UNL     1       3.785   3.746  17.691  0.00  0.00    +0.000 A 
ATOM     22  C   UNL     1       4.583   4.792  18.174  0.00  0.00    +0.000 A 
ATOM     23  C   UNL     1       3.959   5.942  18.706  0.00  0.00    +0.000 A 
BRANCH  22  24
ATOM     24  C   UNL     1       6.037   4.678  18.130  0.00  0.00    +0.000 A 
ATOM     25  N   UNL     1       6.911   4.917  19.089  0.00  0.00    +0.000 NA
ATOM     26  N   UNL     1       8.153   4.639  18.564  0.00  0.00    +0.000 NA
ATOM     27  N   UNL     1       8.062   4.262  17.296  0.00  0.00    +0.000 NA
ATOM     28  N   UNL     1       6.751   4.297  17.024  0.00  0.00    +0.000 N 
ATOM     29  H   UNL     1       6.429   4.059  16.096  0.00  0.00    +0.000 HD
ENDBRANCH  22  24
ENDBRANCH   3  18
TORSDOF 4
ENDMDL
MODEL 7
REMARK VINA RESULT:      -8.0      1.905      2.886
REMARK  Name = 
REMARK  6 active torsions:
REMARK  status: ('A' for Active; 'I' for Inactive)
REMARK    1  A    between atoms: C_1  and  C_2
REMARK    2  A    between atoms: N_4  and  C_5
REMARK    3  A    between atoms: C_11  and  C_12
REMARK    4  A    between atoms: C_13  and  C_14
REMARK    5  A    between atoms: N_16  and  C_17
REMARK    6  A    between atoms: C_21  and  C_22
REMARK                            x       y       z     vdW  Elec       q    Type
REMARK                         _______ _______ _______ _____ _____    ______ ____
ROOT
ATOM      1  C   UNL     1       1.614   8.087  20.082  0.00  0.00    +0.000 C 
ATOM      2  O   UNL     1       1.417   7.151  20.853  0.00  0.00    +0.000 OA
ATOM      3  N   UNL     1       2.251   7.923  18.856  0.00  0.00    +0.000 N 
ATOM      4  H   UNL     1       2.567   8.745  18.369  0.00  0.00    +0.000 HD
ENDROOT
BRANCH   1  11
ATOM      5  C   UNL     1       0.301   9.350  22.961  0.00  0.00    +0.000 C 
ATOM      6  C   UNL     1       0.669  10.002  21.678  0.00  0.00    +0.000 A 
ATOM      7  N   UNL     1       0.544  11.328  21.603  0.00  0.00    +0.000 NA
ATOM      8  N   UNL     1       0.842  11.657  20.323  0.00  0.00    +0.000 N 
ATOM      9  C   UNL     1       1.298  10.551  19.625  0.00  0.00    +0.000 A 
ATOM     10  C   UNL     1       1.907  10.604  18.259  0.00  0.00    +0.000 C 
ATOM     11  C   UNL     1       1.188   9.443  20.477  0.00  0.00    +0.000 A 
BRANCH   8  12
ATOM     12  C   UNL     1       0.733  13.012  19.891  0.00  0.00    +0.000 A 
ATOM     13  C   UNL     1       1.864  13.838  19.940  0.00  0.00    +0.000 A 
ATOM     14  C   UNL     1       1.817  15.122  19.388  0.00  0.00    +0.000 A 
ATOM     15  C   UNL     1       0.635  15.600  18.822  0.00  0.00    +0.000 A 
ATOM     16  C   UNL     1      -0.512  14.810  18.838  0.00  0.00    +0.000 A 
ATOM     17  C   UNL     1      -0.469  13.525  19.384  0.00  0.00    +0.000 A 
ENDBRANCH   8  12
ENDBRANCH   1  11
BRANCH   3  18
ATOM     18  C   UNL     1       2.647   6.669  18.304  0.00  0.00    +0.000 A 
ATOM     19  C   UNL     1       1.798   5.555  18.268  0.00  0.00    +0.000 A 
ATOM     20  C   UNL     1       2.227   4.330  17.759  0.00  0.00    +0.000 A 
ATOM     21  C   UNL     1       3.511   4.203  17.246  0.00  0.00    +0.000 A 
ATOM     22  C   UNL     1       4.374   5.308  17.217  0.00  0.00    +0.000 A 
ATOM     23  C   UNL     1       3.935   6.537  17.757  0.00  0.00    +0.000 A 
BRANCH  22  24
ATOM     24  C   UNL     1       5.708   5.173  16.641  0.00  0.00    +0.000 A 
ATOM     25  N   UNL     1       6.211   5.777  15.581  0.00  0.00    +0.000 NA
ATOM     26  N   UNL     1       7.511   5.338  15.462  0.00  0.00    +0.000 NA
ATOM     27  N   UNL     1       7.807   4.457  16.408  0.00  0.00    +0.000 NA
ATOM     28  N   UNL     1       6.685   4.347  17.132  0.00  0.00    +0.000 N 
ATOM     29  H   UNL     1       6.659   3.710  17.917  0.00  0.00    +0.000 HD
ENDBRANCH  22  24
ENDBRANCH   3  18
TORSDOF 4
ENDMDL
MODEL 8
REMARK VINA RESULT:      -8.0      2.629      9.479
REMARK  Name = 
REMARK  6 active torsions:
REMARK  status: ('A' for Active; 'I' for Inactive)
REMARK    1  A    between atoms: C_1  and  C_2
REMARK    2  A    between atoms: N_4  and  C_5
REMARK    3  A    between atoms: C_11  and  C_12
REMARK    4  A    between atoms: C_13  and  C_14
REMARK    5  A    between atoms: N_16  and  C_17
REMARK    6  A    between atoms: C_21  and  C_22
REMARK                            x       y       z     vdW  Elec       q    Type
REMARK                         _______ _______ _______ _____ _____    ______ ____
ROOT
ATOM      1  C   UNL     1       1.696   7.916  19.710  0.00  0.00    +0.000 C 
ATOM      2  O   UNL     1       1.288   8.088  20.856  0.00  0.00    +0.000 OA
ATOM      3  N   UNL     1       1.384   8.783  18.668  0.00  0.00    +0.000 N 
ATOM      4  H   UNL     1       1.570   8.483  17.725  0.00  0.00    +0.000 HD
ENDROOT
BRANCH   1  11
ATOM      5  C   UNL     1       1.821   4.788  21.056  0.00  0.00    +0.000 C 
ATOM      6  C   UNL     1       2.577   5.410  19.937  0.00  0.00    +0.000 A 
ATOM      7  N   UNL     1       3.424   4.633  19.259  0.00  0.00    +0.000 NA
ATOM      8  N   UNL     1       4.047   5.448  18.375  0.00  0.00    +0.000 N 
ATOM      9  C   UNL     1       3.487   6.714  18.394  0.00  0.00    +0.000 A 
ATOM     10  C   UNL     1       3.794   7.791  17.402  0.00  0.00    +0.000 C 
ATOM     11  C   UNL     1       2.526   6.732  19.415  0.00  0.00    +0.000 A 
BRANCH   8  12
ATOM     12  C   UNL     1       5.079   4.932  17.536  0.00  0.00    +0.000 A 
ATOM     13  C   UNL     1       4.738   4.379  16.294  0.00  0.00    +0.000 A 
ATOM     14  C   UNL     1       5.742   4.002  15.396  0.00  0.00    +0.000 A 
ATOM     15  C   UNL     1       7.085   4.138  15.748  0.00  0.00    +0.000 A 
ATOM     16  C   UNL     1       7.428   4.619  17.009  0.00  0.00    +0.000 A 
ATOM     17  C   UNL     1       6.429   5.001  17.908  0.00  0.00    +0.000 A 
ENDBRANCH   8  12
ENDBRANCH   1  11
BRANCH   3  18
ATOM     18  C   UNL     1       0.663  10.005  18.813  0.00  0.00    +0.000 A 
ATOM     19  C   UNL     1       1.183  11.116  19.490  0.00  0.00    +0.000 A 
ATOM     20  C   UNL     1       0.438  12.283  19.650  0.00  0.00    +0.000 A 
ATOM     21  C   UNL     1      -0.837  12.373  19.107  0.00  0.00    +0.000 A 
ATOM     22  C   UNL     1      -1.372  11.303  18.377  0.00  0.00    +0.000 A 
ATOM     23  C   UNL     1      -0.616  10.117  18.242  0.00  0.00    +0.000 A 
BRANCH  22  24
ATOM     24  C   UNL     1      -2.697  11.422  17.778  0.00  0.00    +0.000 A 
ATOM     25  N   UNL     1      -3.101  11.024  16.587  0.00  0.00    +0.000 NA
ATOM     26  N   UNL     1      -4.438  11.339  16.501  0.00  0.00    +0.000 NA
ATOM     27  N   UNL     1      -4.857  11.946  17.602  0.00  0.00    +0.000 NA
ATOM     28  N   UNL     1      -3.775  12.008  18.389  0.00  0.00    +0.000 N 
ATOM     29  H   UNL     1      -3.843  12.450  19.296  0.00  0.00    +0.000 HD
ENDBRANCH  22  24
ENDBRANCH   3  18
TORSDOF 4
ENDMDL
MODEL 9
REMARK VINA RESULT:      -8.0      1.356      1.645
REMARK  Name = 
REMARK  6 active torsions:
REMARK  status: ('A' for Active; 'I' for Inactive)
REMARK    1  A    between atoms: C_1  and  C_2
REMARK    2  A    between atoms: N_4  and  C_5
REMARK    3  A    between atoms: C_11  and  C_12
REMARK    4  A    between atoms: C_13  and  C_14
REMARK    5  A    between atoms: N_16  and  C_17
REMARK    6  A    between atoms: C_21  and  C_22
REMARK                            x       y       z     vdW  Elec       q    Type
REMARK                         _______ _______ _______ _____ _____    ______ ____
ROOT
ATOM      1  C   UNL     1       1.663   8.993  18.370  0.00  0.00    +0.000 C 
ATOM      2  O   UNL     1       1.407   8.907  17.171  0.00  0.00    +0.000 OA
ATOM      3  N   UNL     1       2.216   7.941  19.093  0.00  0.00    +0.000 N 
ATOM      4  H   UNL     1       2.209   7.998  20.099  0.00  0.00    +0.000 HD
ENDROOT
BRANCH   1  11
ATOM      5  C   UNL     1       2.612  12.229  17.881  0.00  0.00    +0.000 C 
ATOM      6  C   UNL     1       1.704  11.610  18.880  0.00  0.00    +0.000 A 
ATOM      7  N   UNL     1       1.067  12.426  19.723  0.00  0.00    +0.000 NA
ATOM      8  N   UNL     1       0.394  11.622  20.579  0.00  0.00    +0.000 N 
ATOM      9  C   UNL     1       0.487  10.297  20.186  0.00  0.00    +0.000 A 
ATOM     10  C   UNL     1      -0.307   9.179  20.785  0.00  0.00    +0.000 C 
ATOM     11  C   UNL     1       1.349  10.247  19.081  0.00  0.00    +0.000 A 
BRANCH   8  12
ATOM     12  C   UNL     1      -0.341  12.190  21.661  0.00  0.00    +0.000 A 
ATOM     13  C   UNL     1      -0.066  13.507  22.059  0.00  0.00    +0.000 A 
ATOM     14  C   UNL     1      -0.871  14.130  23.017  0.00  0.00    +0.000 A 
ATOM     15  C   UNL     1      -1.925  13.435  23.609  0.00  0.00    +0.000 A 
ATOM     16  C   UNL     1      -2.157  12.104  23.270  0.00  0.00    +0.000 A 
ATOM     17  C   UNL     1      -1.359  11.477  22.311  0.00  0.00    +0.000 A 
ENDBRANCH   8  12
ENDBRANCH   1  11
BRANCH   3  18
ATOM     18  C   UNL     1       2.644   6.702  18.532  0.00  0.00    +0.000 A 
ATOM     19  C   UNL     1       1.829   5.564  18.500  0.00  0.00    +0.000 A 
ATOM     20  C   UNL     1       2.289   4.354  17.981  0.00  0.00    +0.000 A 
ATOM     21  C   UNL     1       3.571   4.269  17.454  0.00  0.00    +0.000 A 
ATOM     22  C   UNL     1       4.400   5.399  17.420  0.00  0.00    +0.000 A 
ATOM     23  C   UNL     1       3.929   6.612  17.970  0.00  0.00    +0.000 A 
BRANCH  22  24
ATOM     24  C   UNL     1       5.731   5.308  16.829  0.00  0.00    +0.000 A 
ATOM     25  N   UNL     1       6.649   4.378  17.010  0.00  0.00    +0.000 NA
ATOM     26  N   UNL     1       7.718   4.725  16.214  0.00  0.00    +0.000 NA
ATOM     27  N   UNL     1       7.486   5.861  15.571  0.00  0.00    +0.000 NA
ATOM     28  N   UNL     1       6.258   6.228  15.961  0.00  0.00    +0.000 N 
ATOM     29  H   UNL     1       5.860   7.087  15.608  0.00  0.00    +0.000 HD
ENDBRANCH  22  24
ENDBRANCH   3  18
TORSDOF 4
ENDMDL
