MODEL 1
REMARK VINA RESULT:      -8.5      0.000      0.000
REMARK  Name = 
REMARK  5 active torsions:
REMARK  status: ('A' for Active; 'I' for Inactive)
REMARK    1  A    between atoms: C_1  and  N_2
REMARK    2  A    between atoms: N_2  and  C_3
REMARK    3  A    between atoms: C_3  and  C_4
REMARK    4  A    between atoms: C_9  and  C_11
REMARK    5  A    between atoms: C_13  and  C_14
REMARK                            x       y       z     vdW  Elec       q    Type
REMARK                         _______ _______ _______ _____ _____    ______ ____
ROOT
ATOM      1  C   UNL     1       0.349   9.914  22.147  0.00  0.00    +0.000 A 
ATOM      2  C   UNL     1       0.172   8.998  21.072  0.00  0.00    +0.000 A 
ATOM      3  C   UNL     1       1.262   8.153  21.097  0.00  0.00    +0.000 A 
ATOM      4  N   UNL     1       2.012   8.597  22.152  0.00  0.00    +0.000 N 
ATOM      5  N   UNL     1       1.479   9.625  22.818  0.00  0.00    +0.000 NA
ATOM      6  H   UNL     1       2.906   8.238  22.466  0.00  0.00    +0.000 HD
ENDROOT
BRANCH   3   7
ATOM      7  C   UNL     1       1.638   7.023  20.258  0.00  0.00    +0.000 A 
ATOM      8  C   UNL     1       2.343   7.232  19.070  0.00  0.00    +0.000 A 
ATOM      9  C   UNL     1       2.689   6.155  18.250  0.00  0.00    +0.000 A 
ATOM     10  C   UNL     1       2.332   4.845  18.602  0.00  0.00    +0.000 A 
ATOM     11  C   UNL     1       2.659   3.754  17.782  0.00  0.00    +0.000 A 
ATOM     12  C   UNL     1       2.284   2.458  18.140  0.00  0.00    +0.000 A 
ATOM     13  C   UNL     1       1.583   2.237  19.323  0.00  0.00    +0.000 A 
ATOM     14  C   UNL     1       1.253   3.311  20.149  0.00  0.00    +0.000 A 
ATOM     15  C   UNL     1       1.621   4.621  19.801  0.00  0.00    +0.000 A 
ATOM     16  C   UNL     1       1.286   5.714  20.616  0.00  0.00    +0.000 A 
ENDBRANCH   3   7
BRANCH   1  19
ATOM     17  C   UNL     1      -1.417  13.262  22.417  0.00  0.00    +0.000 C 
ATOM     18  N   UNL     1      -0.425  12.281  22.022  0.00  0.00    +0.000 N 
ATOM     19  C   UNL     1      -0.599  10.981  22.522  0.00  0.00    +0.000 C 
ATOM     20  O   UNL     1      -1.541  10.715  23.275  0.00  0.00    +0.000 OA
BRANCH  18  21
ATOM     21  C   UNL     1       0.419  12.618  20.873  0.00  0.00    +0.000 C 
BRANCH  21  22
ATOM     22  C   UNL     1      -0.325  12.520  19.577  0.00  0.00    +0.000 A 
ATOM     23  C   UNL     1      -0.155  13.259  18.423  0.00  0.00    +0.000 A 
ATOM     24  N   UNL     1      -1.122  12.824  17.562  0.00  0.00    +0.000 N 
ATOM     25  C   UNL     1      -1.843  11.862  18.207  0.00  0.00    +0.000 A 
ATOM     26  N   UNL     1      -1.391  11.655  19.423  0.00  0.00    +0.000 NA
ATOM     27  H   UNL     1      -1.291  13.163  16.623  0.00  0.00    +0.000 HD
ENDBRANCH  21  22
ENDBRANCH  18  21
ENDBRANCH   1  19
TORSDOF 4
ENDMDL
MODEL 2
REMARK VINA RESULT:      -8.5      7.230     10.117
REMARK  Name = 
REMARK  5 active torsions:
REMARK  status: ('A' for Active; 'I' for Inactive)
REMARK    1  A    between atoms: C_1  and  N_2
REMARK    2  A    between atoms: N_2  and  C_3
REMARK    3  A    between atoms: C_3  and  C_4
REMARK    4  A    between atoms: C_9  and  C_11
REMARK    5  A    between atoms: C_13  and  C_14
REMARK                            x       y       z     vdW  Elec       q    Type
REMARK                         _______ _______ _______ _____ _____    ______ ____
ROOT
ATOM      1  C   UNL     1       7.508   6.495  17.636  0.00  0.00    +0.000 A 
ATOM      2  C   UNL     1       7.606   7.842  17.187  0.00  0.00    +0.000 A 
ATOM      3  C   UNL     1       8.267   8.536  18.179  0.00  0.00    +0.000 A 
ATOM      4  N   UNL     1       8.519   7.596  19.140  0.00  0.00    +0.000 N 
ATOM      5  N   UNL     1       8.108   6.363  18.833  0.00  0.00    +0.000 NA
ATOM      6  H   UNL     1       8.969   7.738  20.037  0.00  0.00    +0.000 HD
ENDROOT
BRANCH   3   7
ATOM      7  C   UNL     1       8.662   9.933  18.293  0.00  0.00    +0.000 A 
ATOM      8  C   UNL     1       8.041  10.907  17.506  0.00  0.00    +0.000 A 
ATOM      9  C   UNL     1       8.428  12.246  17.596  0.00  0.00    +0.000 A 
ATOM     10  C   UNL     1       9.451  12.638  18.472  0.00  0.00    +0.000 A 
ATOM     11  C   UNL     1       9.861  13.976  18.563  0.00  0.00    +0.000 A 
ATOM     12  C   UNL     1      10.890  14.347  19.431  0.00  0.00    +0.000 A 
ATOM     13  C   UNL     1      11.515  13.386  20.222  0.00  0.00    +0.000 A 
ATOM     14  C   UNL     1      11.115  12.052  20.145  0.00  0.00    +0.000 A 
ATOM     15  C   UNL     1      10.085  11.663  19.273  0.00  0.00    +0.000 A 
ATOM     16  C   UNL     1       9.679  10.323  19.176  0.00  0.00    +0.000 A 
ENDBRANCH   3   7
BRANCH   1  19
ATOM     17  C   UNL     1       4.998   4.191  15.963  0.00  0.00    +0.000 C 
ATOM     18  N   UNL     1       5.508   5.297  16.753  0.00  0.00    +0.000 N 
ATOM     19  C   UNL     1       6.904   5.385  16.874  0.00  0.00    +0.000 C 
ATOM     20  O   UNL     1       7.638   4.542  16.348  0.00  0.00    +0.000 OA
BRANCH  18  21
ATOM     21  C   UNL     1       4.584   6.400  17.021  0.00  0.00    +0.000 C 
BRANCH  21  22
ATOM     22  C   UNL     1       3.863   6.230  18.322  0.00  0.00    +0.000 A 
ATOM     23  C   UNL     1       4.152   5.372  19.367  0.00  0.00    +0.000 A 
ATOM     24  N   UNL     1       3.157   5.562  20.284  0.00  0.00    +0.000 N 
ATOM     25  C   UNL     1       2.306   6.500  19.777  0.00  0.00    +0.000 A 
ATOM     26  N   UNL     1       2.700   6.922  18.597  0.00  0.00    +0.000 NA
ATOM     27  H   UNL     1       3.054   5.083  21.169  0.00  0.00    +0.000 HD
ENDBRANCH  21  22
ENDBRANCH  18  21
ENDBRANCH   1  19
TORSDOF 4
ENDMDL
MODEL 3
REMARK VINA RESULT:      -8.4      7.505     10.601
REMARK  Name = 
REMARK  5 active torsions:
REMARK  status: ('A' for Active; 'I' for Inactive)
REMARK    1  A    between atoms: C_1  and  N_2
REMARK    2  A    between atoms: N_2  and  C_3
REMARK    3  A    between atoms: C_3  and  C_4
REMARK    4  A    between atoms: C_9  and  C_11
REMARK    5  A    between atoms: C_13  and  C_14
REMARK                            x       y       z     vdW  Elec       q    Type
REMARK                         _______ _______ _______ _____ _____    ______ ____
ROOT
ATOM      1  C   UNL     1       7.527   6.919  17.565  0.00  0.00    +0.000 A 
ATOM      2  C   UNL     1       7.808   8.302  17.382  0.00  0.00    +0.000 A 
ATOM      3  C   UNL     1       8.519   8.705  18.493  0.00  0.00    +0.000 A 
ATOM      4  N   UNL     1       8.619   7.577  19.260  0.00  0.00    +0.000 N 
ATOM      5  N   UNL     1       8.066   6.487  18.719  0.00  0.00    +0.000 NA
ATOM      6  H   UNL     1       9.053   7.487  20.171  0.00  0.00    +0.000 HD
ENDROOT
BRANCH   3   7
ATOM      7  C   UNL     1       9.082   9.993  18.875  0.00  0.00    +0.000 A 
ATOM      8  C   UNL     1       9.183  10.345  20.223  0.00  0.00    +0.000 A 
ATOM      9  C   UNL     1       9.704  11.587  20.596  0.00  0.00    +0.000 A 
ATOM     10  C   UNL     1      10.129  12.505  19.625  0.00  0.00    +0.000 A 
ATOM     11  C   UNL     1      10.640  13.762  19.983  0.00  0.00    +0.000 A 
ATOM     12  C   UNL     1      11.045  14.670  19.003  0.00  0.00    +0.000 A 
ATOM     13  C   UNL     1      10.951  14.330  17.656  0.00  0.00    +0.000 A 
ATOM     14  C   UNL     1      10.448  13.082  17.285  0.00  0.00    +0.000 A 
ATOM     15  C   UNL     1      10.032  12.161  18.260  0.00  0.00    +0.000 A 
ATOM     16  C   UNL     1       9.513  10.906  17.902  0.00  0.00    +0.000 A 
ENDBRANCH   3   7
BRANCH   1  19
ATOM     17  C   UNL     1       4.937   4.671  15.938  0.00  0.00    +0.000 C 
ATOM     18  N   UNL     1       5.586   5.479  16.955  0.00  0.00    +0.000 N 
ATOM     19  C   UNL     1       6.813   6.060  16.600  0.00  0.00    +0.000 C 
ATOM     20  O   UNL     1       7.306   5.863  15.485  0.00  0.00    +0.000 OA
BRANCH  18  21
ATOM     21  C   UNL     1       4.757   5.918  18.079  0.00  0.00    +0.000 C 
BRANCH  21  22
ATOM     22  C   UNL     1       4.101   4.769  18.781  0.00  0.00    +0.000 A 
ATOM     23  C   UNL     1       4.689   3.688  19.408  0.00  0.00    +0.000 A 
ATOM     24  N   UNL     1       3.655   2.900  19.827  0.00  0.00    +0.000 N 
ATOM     25  C   UNL     1       2.495   3.506  19.442  0.00  0.00    +0.000 A 
ATOM     26  N   UNL     1       2.727   4.633  18.809  0.00  0.00    +0.000 NA
ATOM     27  H   UNL     1       3.729   2.017  20.317  0.00  0.00    +0.000 HD
ENDBRANCH  21  22
ENDBRANCH  18  21
ENDBRANCH   1  19
TORSDOF 4
ENDMDL
MODEL 4
REMARK VINA RESULT:      -8.4      4.159      8.158
REMARK  Name = 
REMARK  5 active torsions:
REMARK  status: ('A' for Active; 'I' for Inactive)
REMARK    1  A    between atoms: C_1  and  N_2
REMARK    2  A    between atoms: N_2  and  C_3
REMARK    3  A    between atoms: C_3  and  C_4
REMARK    4  A    between atoms: C_9  and  C_11
REMARK    5  A    between atoms: C_13  and  C_14
REMARK                            x       y       z     vdW  Elec       q    Type
REMARK                         _______ _______ _______ _____ _____    ______ ____
ROOT
ATOM      1  C   UNL     1       3.629   5.222  18.542  0.00  0.00    +0.000 A 
ATOM      2  C   UNL     1       2.903   6.418  18.282  0.00  0.00    +0.000 A 
ATOM      3  C   UNL     1       2.430   6.859  19.500  0.00  0.00    +0.000 A 
ATOM      4  N   UNL     1       2.884   5.931  20.397  0.00  0.00    +0.000 N 
ATOM      5  N   UNL     1       3.629   4.960  19.862  0.00  0.00    +0.000 NA
ATOM      6  H   UNL     1       2.713   5.904  21.395  0.00  0.00    +0.000 HD
ENDROOT
BRANCH   3   7
ATOM      7  C   UNL     1       1.632   8.019  19.874  0.00  0.00    +0.000 A 
ATOM      8  C   UNL     1       1.417   9.051  18.956  0.00  0.00    +0.000 A 
ATOM      9  C   UNL     1       0.669  10.175  19.314  0.00  0.00    +0.000 A 
ATOM     10  C   UNL     1       0.125  10.292  20.601  0.00  0.00    +0.000 A 
ATOM     11  C   UNL     1      -0.616  11.422  20.981  0.00  0.00    +0.000 A 
ATOM     12  C   UNL     1      -1.140  11.528  22.271  0.00  0.00    +0.000 A 
ATOM     13  C   UNL     1      -0.934  10.506  23.193  0.00  0.00    +0.000 A 
ATOM     14  C   UNL     1      -0.203   9.375  22.829  0.00  0.00    +0.000 A 
ATOM     15  C   UNL     1       0.334   9.256  21.537  0.00  0.00    +0.000 A 
ATOM     16  C   UNL     1       1.082   8.129  21.159  0.00  0.00    +0.000 A 
ENDBRANCH   3   7
BRANCH   1  19
ATOM     17  C   UNL     1       5.729   4.204  15.548  0.00  0.00    +0.000 C 
ATOM     18  N   UNL     1       5.028   5.064  16.485  0.00  0.00    +0.000 N 
ATOM     19  C   UNL     1       4.344   4.422  17.529  0.00  0.00    +0.000 C 
ATOM     20  O   UNL     1       4.334   3.190  17.614  0.00  0.00    +0.000 OA
BRANCH  18  21
ATOM     21  C   UNL     1       5.399   6.480  16.487  0.00  0.00    +0.000 C 
BRANCH  21  22
ATOM     22  C   UNL     1       6.597   6.750  17.344  0.00  0.00    +0.000 A 
ATOM     23  C   UNL     1       7.094   6.006  18.397  0.00  0.00    +0.000 A 
ATOM     24  N   UNL     1       8.157   6.715  18.879  0.00  0.00    +0.000 N 
ATOM     25  C   UNL     1       8.267   7.850  18.128  0.00  0.00    +0.000 A 
ATOM     26  N   UNL     1       7.343   7.903  17.197  0.00  0.00    +0.000 NA
ATOM     27  H   UNL     1       8.747   6.461  19.660  0.00  0.00    +0.000 HD
ENDBRANCH  21  22
ENDBRANCH  18  21
ENDBRANCH   1  19
TORSDOF 4
ENDMDL
MODEL 5
REMARK VINA RESULT:      -8.4      7.500     10.691
REMARK  Name = 
REMARK  5 active torsions:
REMARK  status: ('A' for Active; 'I' for Inactive)
REMARK    1  A    between atoms: C_1  and  N_2
REMARK    2  A    between atoms: N_2  and  C_3
REMARK    3  A    between atoms: C_3  and  C_4
REMARK    4  A    between atoms: C_9  and  C_11
REMARK    5  A    between atoms: C_13  and  C_14
REMARK                            x       y       z     vdW  Elec       q    Type
REMARK                         _______ _______ _______ _____ _____    ______ ____
ROOT
ATOM      1  C   UNL     1       7.498   6.729  17.554  0.00  0.00    +0.000 A 
ATOM      2  C   UNL     1       7.630   8.084  17.138  0.00  0.00    +0.000 A 
ATOM      3  C   UNL     1       8.327   8.732  18.137  0.00  0.00    +0.000 A 
ATOM      4  N   UNL     1       8.564   7.761  19.070  0.00  0.00    +0.000 N 
ATOM      5  N   UNL     1       8.111   6.548  18.738  0.00  0.00    +0.000 NA
ATOM      6  H   UNL     1       9.031   7.866  19.964  0.00  0.00    +0.000 HD
ENDROOT
BRANCH   3   7
ATOM      7  C   UNL     1       8.765  10.113  18.280  0.00  0.00    +0.000 A 
ATOM      8  C   UNL     1       8.082  11.140  17.623  0.00  0.00    +0.000 A 
ATOM      9  C   UNL     1       8.509  12.466  17.740  0.00  0.00    +0.000 A 
ATOM     10  C   UNL     1       9.633  12.790  18.514  0.00  0.00    +0.000 A 
ATOM     11  C   UNL     1      10.083  14.113  18.629  0.00  0.00    +0.000 A 
ATOM     12  C   UNL     1      11.212  14.417  19.393  0.00  0.00    +0.000 A 
ATOM     13  C   UNL     1      11.899  13.402  20.054  0.00  0.00    +0.000 A 
ATOM     14  C   UNL     1      11.462  12.082  19.952  0.00  0.00    +0.000 A 
ATOM     15  C   UNL     1      10.330  11.761  19.184  0.00  0.00    +0.000 A 
ATOM     16  C   UNL     1       9.884  10.435  19.061  0.00  0.00    +0.000 A 
ENDBRANCH   3   7
BRANCH   1  19
ATOM     17  C   UNL     1       5.182   3.919  16.484  0.00  0.00    +0.000 C 
ATOM     18  N   UNL     1       5.781   4.936  17.328  0.00  0.00    +0.000 N 
ATOM     19  C   UNL     1       6.850   5.657  16.774  0.00  0.00    +0.000 C 
ATOM     20  O   UNL     1       7.256   5.408  15.634  0.00  0.00    +0.000 OA
BRANCH  18  21
ATOM     21  C   UNL     1       5.005   5.371  18.491  0.00  0.00    +0.000 C 
BRANCH  21  22
ATOM     22  C   UNL     1       4.311   4.229  19.167  0.00  0.00    +0.000 A 
ATOM     23  C   UNL     1       2.968   4.081  19.456  0.00  0.00    +0.000 A 
ATOM     24  N   UNL     1       2.865   2.898  20.131  0.00  0.00    +0.000 N 
ATOM     25  C   UNL     1       4.122   2.378  20.240  0.00  0.00    +0.000 A 
ATOM     26  N   UNL     1       5.016   3.154  19.671  0.00  0.00    +0.000 NA
ATOM     27  H   UNL     1       2.018   2.487  20.502  0.00  0.00    +0.000 HD
ENDBRANCH  21  22
ENDBRANCH  18  21
ENDBRANCH   1  19
TORSDOF 4
ENDMDL
MODEL 6
REMARK VINA RESULT:      -8.3      2.605      3.854
REMARK  Name = 
REMARK  5 active torsions:
REMARK  status: ('A' for Active; 'I' for Inactive)
REMARK    1  A    between atoms: C_1  and  N_2
REMARK    2  A    between atoms: N_2  and  C_3
REMARK    3  A    between atoms: C_3  and  C_4
REMARK    4  A    between atoms: C_9  and  C_11
REMARK    5  A    between atoms: C_13  and  C_14
REMARK                            x       y       z     vdW  Elec       q    Type
REMARK                         _______ _______ _______ _____ _____    ______ ____
ROOT
ATOM      1  C   UNL     1       1.090   9.872  19.362  0.00  0.00    +0.000 A 
ATOM      2  C   UNL     1       1.710   9.190  18.279  0.00  0.00    +0.000 A 
ATOM      3  C   UNL     1       2.134   7.975  18.775  0.00  0.00    +0.000 A 
ATOM      4  N   UNL     1       1.758   7.996  20.090  0.00  0.00    +0.000 N 
ATOM      5  N   UNL     1       1.104   9.100  20.463  0.00  0.00    +0.000 NA
ATOM      6  H   UNL     1       1.924   7.282  20.790  0.00  0.00    +0.000 HD
ENDROOT
BRANCH   3   7
ATOM      7  C   UNL     1       2.825   6.855  18.151  0.00  0.00    +0.000 A 
ATOM      8  C   UNL     1       2.370   5.549  18.348  0.00  0.00    +0.000 A 
ATOM      9  C   UNL     1       3.041   4.468  17.770  0.00  0.00    +0.000 A 
ATOM     10  C   UNL     1       4.185   4.673  16.985  0.00  0.00    +0.000 A 
ATOM     11  C   UNL     1       4.878   3.597  16.409  0.00  0.00    +0.000 A 
ATOM     12  C   UNL     1       6.023   3.818  15.642  0.00  0.00    +0.000 A 
ATOM     13  C   UNL     1       6.485   5.115  15.438  0.00  0.00    +0.000 A 
ATOM     14  C   UNL     1       5.805   6.195  16.001  0.00  0.00    +0.000 A 
ATOM     15  C   UNL     1       4.654   5.988  16.778  0.00  0.00    +0.000 A 
ATOM     16  C   UNL     1       3.965   7.064  17.361  0.00  0.00    +0.000 A 
ENDBRANCH   3   7
BRANCH   1  19
ATOM     17  C   UNL     1      -1.377  12.674  18.674  0.00  0.00    +0.000 C 
ATOM     18  N   UNL     1      -0.811  11.338  18.688  0.00  0.00    +0.000 N 
ATOM     19  C   UNL     1       0.454  11.202  19.280  0.00  0.00    +0.000 C 
ATOM     20  O   UNL     1       1.046  12.185  19.738  0.00  0.00    +0.000 OA
BRANCH  18  21
ATOM     21  C   UNL     1      -1.733  10.227  18.443  0.00  0.00    +0.000 C 
BRANCH  21  22
ATOM     22  C   UNL     1      -2.706  10.531  17.347  0.00  0.00    +0.000 A 
ATOM     23  C   UNL     1      -4.050  10.836  17.442  0.00  0.00    +0.000 A 
ATOM     24  N   UNL     1      -4.491  10.961  16.154  0.00  0.00    +0.000 N 
ATOM     25  C   UNL     1      -3.428  10.724  15.333  0.00  0.00    +0.000 A 
ATOM     26  N   UNL     1      -2.338  10.460  16.017  0.00  0.00    +0.000 NA
ATOM     27  H   UNL     1      -5.435  11.172  15.858  0.00  0.00    +0.000 HD
ENDBRANCH  21  22
ENDBRANCH  18  21
ENDBRANCH   1  19
TORSDOF 4
ENDMDL
MODEL 7
REMARK VINA RESULT:      -8.2      7.337     10.552
REMARK  Name = 
REMARK  5 active torsions:
REMARK  status: ('A' for Active; 'I' for Inactive)
REMARK    1  A    between atoms: C_1  and  N_2
REMARK    2  A    between atoms: N_2  and  C_3
REMARK    3  A    between atoms: C_3  and  C_4
REMARK    4  A    between atoms: C_9  and  C_11
REMARK    5  A    between atoms: C_13  and  C_14
REMARK                            x       y       z     vdW  Elec       q    Type
REMARK                         _______ _______ _______ _____ _____    ______ ____
ROOT
ATOM      1  C   UNL     1       7.537   6.807  17.560  0.00  0.00    +0.000 A 
ATOM      2  C   UNL     1       7.763   8.189  17.308  0.00  0.00    +0.000 A 
ATOM      3  C   UNL     1       8.467   8.672  18.391  0.00  0.00    +0.000 A 
ATOM      4  N   UNL     1       8.618   7.587  19.210  0.00  0.00    +0.000 N 
ATOM      5  N   UNL     1       8.103   6.452  18.729  0.00  0.00    +0.000 NA
ATOM      6  H   UNL     1       9.063   7.559  20.120  0.00  0.00    +0.000 HD
ENDROOT
BRANCH   3   7
ATOM      7  C   UNL     1       8.983   9.998  18.705  0.00  0.00    +0.000 A 
ATOM      8  C   UNL     1       9.593  10.769  17.712  0.00  0.00    +0.000 A 
ATOM      9  C   UNL     1      10.108  12.033  18.010  0.00  0.00    +0.000 A 
ATOM     10  C   UNL     1      10.028  12.549  19.312  0.00  0.00    +0.000 A 
ATOM     11  C   UNL     1      10.554  13.810  19.631  0.00  0.00    +0.000 A 
ATOM     12  C   UNL     1      10.478  14.303  20.935  0.00  0.00    +0.000 A 
ATOM     13  C   UNL     1       9.871  13.545  21.932  0.00  0.00    +0.000 A 
ATOM     14  C   UNL     1       9.341  12.291  21.630  0.00  0.00    +0.000 A 
ATOM     15  C   UNL     1       9.413  11.780  20.323  0.00  0.00    +0.000 A 
ATOM     16  C   UNL     1       8.894  10.514  20.006  0.00  0.00    +0.000 A 
ENDBRANCH   3   7
BRANCH   1  19
ATOM     17  C   UNL     1       5.091   4.289  16.118  0.00  0.00    +0.000 C 
ATOM     18  N   UNL     1       5.724   5.162  17.089  0.00  0.00    +0.000 N 
ATOM     19  C   UNL     1       6.850   5.875  16.646  0.00  0.00    +0.000 C 
ATOM     20  O   UNL     1       7.274   5.733  15.494  0.00  0.00    +0.000 OA
BRANCH  18  21
ATOM     21  C   UNL     1       4.942   5.507  18.278  0.00  0.00    +0.000 C 
BRANCH  21  22
ATOM     22  C   UNL     1       4.303   4.306  18.902  0.00  0.00    +0.000 A 
ATOM     23  C   UNL     1       2.960   4.022  19.058  0.00  0.00    +0.000 A 
ATOM     24  N   UNL     1       2.910   2.841  19.743  0.00  0.00    +0.000 N 
ATOM     25  C   UNL     1       4.196   2.455  19.987  0.00  0.00    +0.000 A 
ATOM     26  N   UNL     1       5.060   3.314  19.496  0.00  0.00    +0.000 NA
ATOM     27  H   UNL     1       2.077   2.348  20.035  0.00  0.00    +0.000 HD
ENDBRANCH  21  22
ENDBRANCH  18  21
ENDBRANCH   1  19
TORSDOF 4
ENDMDL
MODEL 8
REMARK VINA RESULT:      -8.2      4.093      8.174
REMARK  Name = 
REMARK  5 active torsions:
REMARK  status: ('A' for Active; 'I' for Inactive)
REMARK    1  A    between atoms: C_1  and  N_2
REMARK    2  A    between atoms: N_2  and  C_3
REMARK    3  A    between atoms: C_3  and  C_4
REMARK    4  A    between atoms: C_9  and  C_11
REMARK    5  A    between atoms: C_13  and  C_14
REMARK                            x       y       z     vdW  Elec       q    Type
REMARK                         _______ _______ _______ _____ _____    ______ ____
ROOT
ATOM      1  C   UNL     1       3.345   5.267  18.499  0.00  0.00    +0.000 A 
ATOM      2  C   UNL     1       2.654   6.491  18.277  0.00  0.00    +0.000 A 
ATOM      3  C   UNL     1       2.280   6.958  19.520  0.00  0.00    +0.000 A 
ATOM      4  N   UNL     1       2.750   6.015  20.393  0.00  0.00    +0.000 N 
ATOM      5  N   UNL     1       3.418   5.011  19.818  0.00  0.00    +0.000 NA
ATOM      6  H   UNL     1       2.642   6.000  21.400  0.00  0.00    +0.000 HD
ENDROOT
BRANCH   3   7
ATOM      7  C   UNL     1       1.557   8.152  19.935  0.00  0.00    +0.000 A 
ATOM      8  C   UNL     1       1.475   9.257  19.084  0.00  0.00    +0.000 A 
ATOM      9  C   UNL     1       0.800  10.414  19.484  0.00  0.00    +0.000 A 
ATOM     10  C   UNL     1       0.197  10.489  20.748  0.00  0.00    +0.000 A 
ATOM     11  C   UNL     1      -0.472  11.648  21.169  0.00  0.00    +0.000 A 
ATOM     12  C   UNL     1      -1.055  11.711  22.436  0.00  0.00    +0.000 A 
ATOM     13  C   UNL     1      -0.982  10.616  23.292  0.00  0.00    +0.000 A 
ATOM     14  C   UNL     1      -0.324   9.455  22.886  0.00  0.00    +0.000 A 
ATOM     15  C   UNL     1       0.271   9.378  21.616  0.00  0.00    +0.000 A 
ATOM     16  C   UNL     1       0.948   8.221  21.197  0.00  0.00    +0.000 A 
ENDBRANCH   3   7
BRANCH   1  19
ATOM     17  C   UNL     1       5.879   3.517  16.281  0.00  0.00    +0.000 C 
ATOM     18  N   UNL     1       5.356   4.384  17.320  0.00  0.00    +0.000 N 
ATOM     19  C   UNL     1       3.959   4.433  17.448  0.00  0.00    +0.000 C 
ATOM     20  O   UNL     1       3.233   3.781  16.691  0.00  0.00    +0.000 OA
BRANCH  18  21
ATOM     21  C   UNL     1       6.297   4.816  18.356  0.00  0.00    +0.000 C 
BRANCH  21  22
ATOM     22  C   UNL     1       6.869   6.170  18.069  0.00  0.00    +0.000 A 
ATOM     23  C   UNL     1       6.493   7.083  17.103  0.00  0.00    +0.000 A 
ATOM     24  N   UNL     1       7.369   8.125  17.220  0.00  0.00    +0.000 N 
ATOM     25  C   UNL     1       8.239   7.817  18.225  0.00  0.00    +0.000 A 
ATOM     26  N   UNL     1       7.968   6.647  18.757  0.00  0.00    +0.000 NA
ATOM     27  H   UNL     1       7.387   8.964  16.655  0.00  0.00    +0.000 HD
ENDBRANCH  21  22
ENDBRANCH  18  21
ENDBRANCH   1  19
TORSDOF 4
ENDMDL
MODEL 9
REMARK VINA RESULT:      -8.0      3.771      8.637
REMARK  Name = 
REMARK  5 active torsions:
REMARK  status: ('A' for Active; 'I' for Inactive)
REMARK    1  A    between atoms: C_1  and  N_2
REMARK    2  A    between atoms: N_2  and  C_3
REMARK    3  A    between atoms: C_3  and  C_4
REMARK    4  A    between atoms: C_9  and  C_11
REMARK    5  A    between atoms: C_13  and  C_14
REMARK                            x       y       z     vdW  Elec       q    Type
REMARK                         _______ _______ _______ _____ _____    ______ ____
ROOT
ATOM      1  C   UNL     1       3.442   6.830  18.156  0.00  0.00    +0.000 A 
ATOM      2  C   UNL     1       2.621   7.979  17.980  0.00  0.00    +0.000 A 
ATOM      3  C   UNL     1       1.959   8.171  19.175  0.00  0.00    +0.000 A 
ATOM      4  N   UNL     1       2.404   7.156  19.977  0.00  0.00    +0.000 N 
ATOM      5  N   UNL     1       3.314   6.359  19.410  0.00  0.00    +0.000 NA
ATOM      6  H   UNL     1       2.119   6.951  20.928  0.00  0.00    +0.000 HD
ENDROOT
BRANCH   3   7
ATOM      7  C   UNL     1       0.994   9.175  19.604  0.00  0.00    +0.000 A 
ATOM      8  C   UNL     1       0.441  10.062  18.677  0.00  0.00    +0.000 A 
ATOM      9  C   UNL     1      -0.469  11.040  19.085  0.00  0.00    +0.000 A 
ATOM     10  C   UNL     1      -0.840  11.154  20.433  0.00  0.00    +0.000 A 
ATOM     11  C   UNL     1      -1.741  12.140  20.861  0.00  0.00    +0.000 A 
ATOM     12  C   UNL     1      -2.090  12.249  22.208  0.00  0.00    +0.000 A 
ATOM     13  C   UNL     1      -1.547  11.369  23.141  0.00  0.00    +0.000 A 
ATOM     14  C   UNL     1      -0.652  10.381  22.730  0.00  0.00    +0.000 A 
ATOM     15  C   UNL     1      -0.289  10.263  21.379  0.00  0.00    +0.000 A 
ATOM     16  C   UNL     1       0.619   9.281  20.952  0.00  0.00    +0.000 A 
ENDBRANCH   3   7
BRANCH   1  19
ATOM     17  C   UNL     1       5.274   4.437  15.850  0.00  0.00    +0.000 C 
ATOM     18  N   UNL     1       4.363   4.896  16.881  0.00  0.00    +0.000 N 
ATOM     19  C   UNL     1       4.360   6.275  17.142  0.00  0.00    +0.000 C 
ATOM     20  O   UNL     1       5.116   7.036  16.530  0.00  0.00    +0.000 OA
BRANCH  18  21
ATOM     21  C   UNL     1       3.292   3.978  17.274  0.00  0.00    +0.000 C 
BRANCH  21  22
ATOM     22  C   UNL     1       3.764   2.945  18.250  0.00  0.00    +0.000 A 
ATOM     23  C   UNL     1       4.605   3.098  19.335  0.00  0.00    +0.000 A 
ATOM     24  N   UNL     1       4.769   1.845  19.854  0.00  0.00    +0.000 N 
ATOM     25  C   UNL     1       4.047   0.984  19.080  0.00  0.00    +0.000 A 
ATOM     26  N   UNL     1       3.431   1.612  18.105  0.00  0.00    +0.000 NA
ATOM     27  H   UNL     1       5.336   1.592  20.653  0.00  0.00    +0.000 HD
ENDBRANCH  21  22
ENDBRANCH  18  21
ENDBRANCH   1  19
TORSDOF 4
ENDMDL
