MODEL 1
REMARK VINA RESULT:      -8.9      0.000      0.000
REMARK  Name = 
REMARK  3 active torsions:
REMARK  status: ('A' for Active; 'I' for Inactive)
REMARK    1  A    between atoms: C_7  and  C_8
REMARK    2  A    between atoms: C_14  and  C_15
REMARK    3  A    between atoms: C_19  and  C_20
REMARK                            x       y       z     vdW  Elec       q    Type
REMARK                         _______ _______ _______ _____ _____    ______ ____
ROOT
ATOM      1  C   UNL     1       4.485   3.701  18.884  0.00  0.00    +0.000 C 
ATOM      2  O   UNL     1       4.647   2.517  19.173  0.00  0.00    +0.000 OA
ATOM      3  N   UNL     1       3.593   4.527  19.596  0.00  0.00    +0.000 N 
ATOM      4  C   UNL     1       3.061   4.026  20.863  0.00  0.00    +0.000 C 
ATOM      5  C   UNL     1       1.572   4.324  21.007  0.00  0.00    +0.000 C 
ATOM      6  C   UNL     1       1.277   5.812  20.832  0.00  0.00    +0.000 C 
ATOM      7  C   UNL     1       1.834   6.321  19.497  0.00  0.00    +0.000 C 
ATOM      8  C   UNL     1       3.309   5.941  19.320  0.00  0.00    +0.000 C 
ENDROOT
BRANCH   1  15
ATOM      9  O   UNL     1       8.442   5.362  12.451  0.00  0.00    +0.000 OA
ATOM     10  C   UNL     1       7.601   5.094  13.304  0.00  0.00    +0.000 C 
ATOM     11  C   UNL     1       6.263   4.483  12.948  0.00  0.00    +0.000 C 
ATOM     12  C   UNL     1       5.733   3.594  14.053  0.00  0.00    +0.000 C 
ATOM     13  C   UNL     1       5.847   4.261  15.391  0.00  0.00    +0.000 A 
ATOM     14  C   UNL     1       4.980   3.913  16.427  0.00  0.00    +0.000 A 
ATOM     15  C   UNL     1       5.282   4.245  17.751  0.00  0.00    +0.000 A 
ATOM     16  C   UNL     1       6.356   5.108  17.996  0.00  0.00    +0.000 A 
ATOM     17  F   UNL     1       6.666   5.501  19.239  0.00  0.00    +0.000 F 
ATOM     18  C   UNL     1       7.166   5.559  16.950  0.00  0.00    +0.000 A 
ATOM     19  C   UNL     1       6.931   5.103  15.657  0.00  0.00    +0.000 A 
ATOM     20  N   UNL     1       7.796   5.441  14.616  0.00  0.00    +0.000 N 
ATOM     21  H   UNL     1       8.650   5.950  14.807  0.00  0.00    +0.000 HD
ENDBRANCH   1  15
BRANCH   7  22
ATOM     22  C   UNL     1       1.651   7.821  19.320  0.00  0.00    +0.000 A 
ATOM     23  C   UNL     1       2.054   8.478  18.146  0.00  0.00    +0.000 A 
ATOM     24  C   UNL     1       1.880   9.854  18.002  0.00  0.00    +0.000 A 
ATOM     25  C   UNL     1       1.304  10.598  19.030  0.00  0.00    +0.000 A 
ATOM     26  C   UNL     1       0.885   9.968  20.210  0.00  0.00    +0.000 A 
ATOM     27  C   UNL     1       1.049   8.578  20.337  0.00  0.00    +0.000 A 
BRANCH  26  28
ATOM     28  C   UNL     1       0.277  10.761  21.341  0.00  0.00    +0.000 C 
ATOM     29  F   UNL     1       0.778  12.022  21.457  0.00  0.00    +0.000 F 
ATOM     30  F   UNL     1      -1.070  10.905  21.212  0.00  0.00    +0.000 F 
ATOM     31  F   UNL     1       0.476  10.169  22.552  0.00  0.00    +0.000 F 
ENDBRANCH  26  28
ENDBRANCH   7  22
TORSDOF 3
ENDMDL
MODEL 2
REMARK VINA RESULT:      -8.3      4.136      6.622
REMARK  Name = 
REMARK  3 active torsions:
REMARK  status: ('A' for Active; 'I' for Inactive)
REMARK    1  A    between atoms: C_7  and  C_8
REMARK    2  A    between atoms: C_14  and  C_15
REMARK    3  A    between atoms: C_19  and  C_20
REMARK                            x       y       z     vdW  Elec       q    Type
REMARK                         _______ _______ _______ _____ _____    ______ ____
ROOT
ATOM      1  C   UNL     1       1.552   8.933  21.124  0.00  0.00    +0.000 C 
ATOM      2  O   UNL     1       2.234   8.993  22.145  0.00  0.00    +0.000 OA
ATOM      3  N   UNL     1       0.692   9.981  20.739  0.00  0.00    +0.000 N 
ATOM      4  C   UNL     1       0.826  11.263  21.431  0.00  0.00    +0.000 C 
ATOM      5  C   UNL     1      -0.534  11.870  21.763  0.00  0.00    +0.000 C 
ATOM      6  C   UNL     1      -1.409  12.001  20.519  0.00  0.00    +0.000 C 
ATOM      7  C   UNL     1      -1.547  10.648  19.810  0.00  0.00    +0.000 C 
ATOM      8  C   UNL     1      -0.179  10.002  19.558  0.00  0.00    +0.000 C 
ENDROOT
BRANCH   1  15
ATOM      9  O   UNL     1       2.442   1.959  17.904  0.00  0.00    +0.000 OA
ATOM     10  C   UNL     1       2.080   2.954  18.525  0.00  0.00    +0.000 C 
ATOM     11  C   UNL     1       1.148   2.863  19.715  0.00  0.00    +0.000 C 
ATOM     12  C   UNL     1       1.408   3.961  20.724  0.00  0.00    +0.000 C 
ATOM     13  C   UNL     1       1.533   5.297  20.055  0.00  0.00    +0.000 A 
ATOM     14  C   UNL     1       1.234   6.466  20.755  0.00  0.00    +0.000 A 
ATOM     15  C   UNL     1       1.674   7.708  20.289  0.00  0.00    +0.000 A 
ATOM     16  C   UNL     1       2.234   7.781  19.009  0.00  0.00    +0.000 A 
ATOM     17  F   UNL     1       2.632   8.951  18.486  0.00  0.00    +0.000 F 
ATOM     18  C   UNL     1       2.435   6.627  18.246  0.00  0.00    +0.000 A 
ATOM     19  C   UNL     1       2.118   5.386  18.788  0.00  0.00    +0.000 A 
ATOM     20  N   UNL     1       2.419   4.212  18.098  0.00  0.00    +0.000 N 
ATOM     21  H   UNL     1       2.948   4.248  17.235  0.00  0.00    +0.000 HD
ENDBRANCH   1  15
BRANCH   7  22
ATOM     22  C   UNL     1      -2.332  10.745  18.510  0.00  0.00    +0.000 A 
ATOM     23  C   UNL     1      -1.857  10.173  17.319  0.00  0.00    +0.000 A 
ATOM     24  C   UNL     1      -2.589  10.273  16.136  0.00  0.00    +0.000 A 
ATOM     25  C   UNL     1      -3.806  10.951  16.123  0.00  0.00    +0.000 A 
ATOM     26  C   UNL     1      -4.309  11.526  17.298  0.00  0.00    +0.000 A 
ATOM     27  C   UNL     1      -3.572  11.403  18.488  0.00  0.00    +0.000 A 
BRANCH  26  28
ATOM     28  C   UNL     1      -5.616  12.281  17.297  0.00  0.00    +0.000 C 
ATOM     29  F   UNL     1      -5.798  13.060  16.195  0.00  0.00    +0.000 F 
ATOM     30  F   UNL     1      -6.696  11.453  17.352  0.00  0.00    +0.000 F 
ATOM     31  F   UNL     1      -5.731  13.117  18.366  0.00  0.00    +0.000 F 
ENDBRANCH  26  28
ENDBRANCH   7  22
TORSDOF 3
ENDMDL
MODEL 3
REMARK VINA RESULT:      -8.1      1.620      2.136
REMARK  Name = 
REMARK  3 active torsions:
REMARK  status: ('A' for Active; 'I' for Inactive)
REMARK    1  A    between atoms: C_7  and  C_8
REMARK    2  A    between atoms: C_14  and  C_15
REMARK    3  A    between atoms: C_19  and  C_20
REMARK                            x       y       z     vdW  Elec       q    Type
REMARK                         _______ _______ _______ _____ _____    ______ ____
ROOT
ATOM      1  C   UNL     1       4.378   2.895  18.921  0.00  0.00    +0.000 C 
ATOM      2  O   UNL     1       4.551   1.677  18.944  0.00  0.00    +0.000 OA
ATOM      3  N   UNL     1       3.479   3.537  19.795  0.00  0.00    +0.000 N 
ATOM      4  C   UNL     1       2.953   2.765  20.921  0.00  0.00    +0.000 C 
ATOM      5  C   UNL     1       1.461   3.010  21.126  0.00  0.00    +0.000 C 
ATOM      6  C   UNL     1       1.152   4.498  21.281  0.00  0.00    +0.000 C 
ATOM      7  C   UNL     1       1.702   5.292  20.089  0.00  0.00    +0.000 C 
ATOM      8  C   UNL     1       3.181   4.973  19.835  0.00  0.00    +0.000 C 
ENDROOT
BRANCH   1  15
ATOM      9  O   UNL     1       8.490   5.885  13.094  0.00  0.00    +0.000 OA
ATOM     10  C   UNL     1       7.638   5.404  13.835  0.00  0.00    +0.000 C 
ATOM     11  C   UNL     1       6.416   4.691  13.298  0.00  0.00    +0.000 C 
ATOM     12  C   UNL     1       5.937   3.601  14.233  0.00  0.00    +0.000 C 
ATOM     13  C   UNL     1       5.877   4.088  15.650  0.00  0.00    +0.000 A 
ATOM     14  C   UNL     1       4.998   3.499  16.560  0.00  0.00    +0.000 A 
ATOM     15  C   UNL     1       5.168   3.680  17.935  0.00  0.00    +0.000 A 
ATOM     16  C   UNL     1       6.102   4.625  18.374  0.00  0.00    +0.000 A 
ATOM     17  F   UNL     1       6.279   4.879  19.679  0.00  0.00    +0.000 F 
ATOM     18  C   UNL     1       6.913   5.309  17.463  0.00  0.00    +0.000 A 
ATOM     19  C   UNL     1       6.823   5.010  16.108  0.00  0.00    +0.000 A 
ATOM     20  N   UNL     1       7.701   5.589  15.193  0.00  0.00    +0.000 N 
ATOM     21  H   UNL     1       8.468   6.167  15.516  0.00  0.00    +0.000 HD
ENDBRANCH   1  15
BRANCH   7  22
ATOM     22  C   UNL     1       1.505   6.792  20.244  0.00  0.00    +0.000 A 
ATOM     23  C   UNL     1       1.176   7.368  21.482  0.00  0.00    +0.000 A 
ATOM     24  C   UNL     1       0.997   8.745  21.605  0.00  0.00    +0.000 A 
ATOM     25  C   UNL     1       1.140   9.571  20.493  0.00  0.00    +0.000 A 
ATOM     26  C   UNL     1       1.476   9.026  19.245  0.00  0.00    +0.000 A 
ATOM     27  C   UNL     1       1.671   7.638  19.137  0.00  0.00    +0.000 A 
BRANCH  26  28
ATOM     28  C   UNL     1       1.615   9.903  18.025  0.00  0.00    +0.000 C 
ATOM     29  F   UNL     1       2.200  11.107  18.280  0.00  0.00    +0.000 F 
ATOM     30  F   UNL     1       2.366   9.323  17.049  0.00  0.00    +0.000 F 
ATOM     31  F   UNL     1       0.413  10.188  17.453  0.00  0.00    +0.000 F 
ENDBRANCH  26  28
ENDBRANCH   7  22
TORSDOF 3
ENDMDL
MODEL 4
REMARK VINA RESULT:      -8.1      5.350      8.674
REMARK  Name = 
REMARK  3 active torsions:
REMARK  status: ('A' for Active; 'I' for Inactive)
REMARK    1  A    between atoms: C_7  and  C_8
REMARK    2  A    between atoms: C_14  and  C_15
REMARK    3  A    between atoms: C_19  and  C_20
REMARK                            x       y       z     vdW  Elec       q    Type
REMARK                         _______ _______ _______ _____ _____    ______ ____
ROOT
ATOM      1  C   UNL     1       0.774  13.112  21.245  0.00  0.00    +0.000 C 
ATOM      2  O   UNL     1       0.220  13.977  21.921  0.00  0.00    +0.000 OA
ATOM      3  N   UNL     1       0.347  11.770  21.256  0.00  0.00    +0.000 N 
ATOM      4  C   UNL     1      -0.943  11.468  21.877  0.00  0.00    +0.000 C 
ATOM      5  C   UNL     1      -0.877  10.205  22.730  0.00  0.00    +0.000 C 
ATOM      6  C   UNL     1      -0.355   9.014  21.930  0.00  0.00    +0.000 C 
ATOM      7  C   UNL     1       1.000   9.342  21.292  0.00  0.00    +0.000 C 
ATOM      8  C   UNL     1       0.949  10.659  20.508  0.00  0.00    +0.000 C 
ENDROOT
BRANCH   1  15
ATOM      9  O   UNL     1       7.029  16.094  17.812  0.00  0.00    +0.000 OA
ATOM     10  C   UNL     1       6.218  15.508  18.524  0.00  0.00    +0.000 C 
ATOM     11  C   UNL     1       6.561  15.054  19.926  0.00  0.00    +0.000 C 
ATOM     12  C   UNL     1       5.351  15.058  20.836  0.00  0.00    +0.000 C 
ATOM     13  C   UNL     1       4.171  14.409  20.176  0.00  0.00    +0.000 A 
ATOM     14  C   UNL     1       3.168  13.822  20.947  0.00  0.00    +0.000 A 
ATOM     15  C   UNL     1       1.917  13.537  20.393  0.00  0.00    +0.000 A 
ATOM     16  C   UNL     1       1.757  13.656  19.008  0.00  0.00    +0.000 A 
ATOM     17  F   UNL     1       0.596  13.352  18.410  0.00  0.00    +0.000 F 
ATOM     18  C   UNL     1       2.795  14.136  18.204  0.00  0.00    +0.000 A 
ATOM     19  C   UNL     1       3.985  14.546  18.797  0.00  0.00    +0.000 A 
ATOM     20  N   UNL     1       4.991  15.140  18.035  0.00  0.00    +0.000 N 
ATOM     21  H   UNL     1       4.831  15.356  17.058  0.00  0.00    +0.000 HD
ENDBRANCH   1  15
BRANCH   7  22
ATOM     22  C   UNL     1       1.516   8.220  20.403  0.00  0.00    +0.000 A 
ATOM     23  C   UNL     1       1.995   8.468  19.107  0.00  0.00    +0.000 A 
ATOM     24  C   UNL     1       2.463   7.427  18.306  0.00  0.00    +0.000 A 
ATOM     25  C   UNL     1       2.457   6.119  18.785  0.00  0.00    +0.000 A 
ATOM     26  C   UNL     1       1.992   5.841  20.078  0.00  0.00    +0.000 A 
ATOM     27  C   UNL     1       1.539   6.901  20.883  0.00  0.00    +0.000 A 
BRANCH  26  28
ATOM     28  C   UNL     1       1.959   4.428  20.606  0.00  0.00    +0.000 C 
ATOM     29  F   UNL     1       2.375   4.317  21.898  0.00  0.00    +0.000 F 
ATOM     30  F   UNL     1       0.710   3.886  20.568  0.00  0.00    +0.000 F 
ATOM     31  F   UNL     1       2.754   3.588  19.887  0.00  0.00    +0.000 F 
ENDBRANCH  26  28
ENDBRANCH   7  22
TORSDOF 3
ENDMDL
MODEL 5
REMARK VINA RESULT:      -8.0      5.658      9.511
REMARK  Name = 
REMARK  3 active torsions:
REMARK  status: ('A' for Active; 'I' for Inactive)
REMARK    1  A    between atoms: C_7  and  C_8
REMARK    2  A    between atoms: C_14  and  C_15
REMARK    3  A    between atoms: C_19  and  C_20
REMARK                            x       y       z     vdW  Elec       q    Type
REMARK                         _______ _______ _______ _____ _____    ______ ____
ROOT
ATOM      1  C   UNL     1      -0.510  12.979  22.105  0.00  0.00    +0.000 C 
ATOM      2  O   UNL     1      -1.003  13.530  23.088  0.00  0.00    +0.000 OA
ATOM      3  N   UNL     1      -0.399  11.578  22.014  0.00  0.00    +0.000 N 
ATOM      4  C   UNL     1      -1.128  10.769  22.991  0.00  0.00    +0.000 C 
ATOM      5  C   UNL     1      -0.285   9.606  23.505  0.00  0.00    +0.000 C 
ATOM      6  C   UNL     1       0.244   8.747  22.359  0.00  0.00    +0.000 C 
ATOM      7  C   UNL     1       1.013   9.606  21.348  0.00  0.00    +0.000 C 
ATOM      8  C   UNL     1       0.191  10.822  20.902  0.00  0.00    +0.000 C 
ENDROOT
BRANCH   1  15
ATOM      9  O   UNL     1       2.984  17.691  17.067  0.00  0.00    +0.000 OA
ATOM     10  C   UNL     1       2.632  16.774  17.803  0.00  0.00    +0.000 C 
ATOM     11  C   UNL     1       3.591  15.697  18.260  0.00  0.00    +0.000 C 
ATOM     12  C   UNL     1       3.233  15.161  19.630  0.00  0.00    +0.000 C 
ATOM     13  C   UNL     1       1.768  14.859  19.730  0.00  0.00    +0.000 A 
ATOM     14  C   UNL     1       1.307  13.897  20.630  0.00  0.00    +0.000 A 
ATOM     15  C   UNL     1      -0.041  13.850  20.994  0.00  0.00    +0.000 A 
ATOM     16  C   UNL     1      -0.953  14.643  20.288  0.00  0.00    +0.000 A 
ATOM     17  F   UNL     1      -2.265  14.607  20.558  0.00  0.00    +0.000 F 
ATOM     18  C   UNL     1      -0.516  15.530  19.300  0.00  0.00    +0.000 A 
ATOM     19  C   UNL     1       0.846  15.661  19.052  0.00  0.00    +0.000 A 
ATOM     20  N   UNL     1       1.316  16.624  18.158  0.00  0.00    +0.000 N 
ATOM     21  H   UNL     1       0.676  17.293  17.746  0.00  0.00    +0.000 HD
ENDBRANCH   1  15
BRANCH   7  22
ATOM     22  C   UNL     1       1.476   8.811  20.136  0.00  0.00    +0.000 A 
ATOM     23  C   UNL     1       1.438   9.353  18.841  0.00  0.00    +0.000 A 
ATOM     24  C   UNL     1       1.866   8.609  17.742  0.00  0.00    +0.000 A 
ATOM     25  C   UNL     1       2.336   7.309  17.917  0.00  0.00    +0.000 A 
ATOM     26  C   UNL     1       2.392   6.744  19.199  0.00  0.00    +0.000 A 
ATOM     27  C   UNL     1       1.975   7.510  20.302  0.00  0.00    +0.000 A 
BRANCH  26  28
ATOM     28  C   UNL     1       2.879   5.330  19.405  0.00  0.00    +0.000 C 
ATOM     29  F   UNL     1       2.136   4.621  20.299  0.00  0.00    +0.000 F 
ATOM     30  F   UNL     1       2.874   4.604  18.254  0.00  0.00    +0.000 F 
ATOM     31  F   UNL     1       4.159   5.287  19.869  0.00  0.00    +0.000 F 
ENDBRANCH  26  28
ENDBRANCH   7  22
TORSDOF 3
ENDMDL
MODEL 6
REMARK VINA RESULT:      -8.0      5.808      9.763
REMARK  Name = 
REMARK  3 active torsions:
REMARK  status: ('A' for Active; 'I' for Inactive)
REMARK    1  A    between atoms: C_7  and  C_8
REMARK    2  A    between atoms: C_14  and  C_15
REMARK    3  A    between atoms: C_19  and  C_20
REMARK                            x       y       z     vdW  Elec       q    Type
REMARK                         _______ _______ _______ _____ _____    ______ ____
ROOT
ATOM      1  C   UNL     1      -0.423  13.670  22.148  0.00  0.00    +0.000 C 
ATOM      2  O   UNL     1      -0.969  14.223  23.101  0.00  0.00    +0.000 OA
ATOM      3  N   UNL     1      -0.484  12.275  21.960  0.00  0.00    +0.000 N 
ATOM      4  C   UNL     1      -1.438  11.518  22.769  0.00  0.00    +0.000 C 
ATOM      5  C   UNL     1      -0.831  10.219  23.290  0.00  0.00    +0.000 C 
ATOM      6  C   UNL     1      -0.268   9.367  22.155  0.00  0.00    +0.000 C 
ATOM      7  C   UNL     1       0.736  10.171  21.321  0.00  0.00    +0.000 C 
ATOM      8  C   UNL     1       0.148  11.515  20.874  0.00  0.00    +0.000 C 
ENDROOT
BRANCH   1  15
ATOM      9  O   UNL     1       2.312  17.984  16.341  0.00  0.00    +0.000 OA
ATOM     10  C   UNL     1       1.695  17.498  17.285  0.00  0.00    +0.000 C 
ATOM     11  C   UNL     1       0.272  17.900  17.607  0.00  0.00    +0.000 C 
ATOM     12  C   UNL     1      -0.510  16.767  18.235  0.00  0.00    +0.000 C 
ATOM     13  C   UNL     1       0.276  16.102  19.326  0.00  0.00    +0.000 A 
ATOM     14  C   UNL     1      -0.381  15.445  20.366  0.00  0.00    +0.000 A 
ATOM     15  C   UNL     1       0.302  14.535  21.178  0.00  0.00    +0.000 A 
ATOM     16  C   UNL     1       1.694  14.452  21.065  0.00  0.00    +0.000 A 
ATOM     17  F   UNL     1       2.411  13.633  21.848  0.00  0.00    +0.000 F 
ATOM     18  C   UNL     1       2.381  15.194  20.100  0.00  0.00    +0.000 A 
ATOM     19  C   UNL     1       1.664  15.988  19.210  0.00  0.00    +0.000 A 
ATOM     20  N   UNL     1       2.312  16.644  18.163  0.00  0.00    +0.000 N 
ATOM     21  H   UNL     1       3.297  16.481  17.990  0.00  0.00    +0.000 HD
ENDBRANCH   1  15
BRANCH   7  22
ATOM     22  C   UNL     1       1.253   9.396  20.118  0.00  0.00    +0.000 A 
ATOM     23  C   UNL     1       1.245   9.949  18.827  0.00  0.00    +0.000 A 
ATOM     24  C   UNL     1       1.721   9.223  17.736  0.00  0.00    +0.000 A 
ATOM     25  C   UNL     1       2.209   7.930  17.915  0.00  0.00    +0.000 A 
ATOM     26  C   UNL     1       2.236   7.355  19.192  0.00  0.00    +0.000 A 
ATOM     27  C   UNL     1       1.770   8.102  20.288  0.00  0.00    +0.000 A 
BRANCH  26  28
ATOM     28  C   UNL     1       2.742   5.949  19.402  0.00  0.00    +0.000 C 
ATOM     29  F   UNL     1       4.097   5.866  19.517  0.00  0.00    +0.000 F 
ATOM     30  F   UNL     1       2.236   5.375  20.528  0.00  0.00    +0.000 F 
ATOM     31  F   UNL     1       2.406   5.119  18.376  0.00  0.00    +0.000 F 
ENDBRANCH  26  28
ENDBRANCH   7  22
TORSDOF 3
ENDMDL
MODEL 7
REMARK VINA RESULT:      -8.0      5.365      9.053
REMARK  Name = 
REMARK  3 active torsions:
REMARK  status: ('A' for Active; 'I' for Inactive)
REMARK    1  A    between atoms: C_7  and  C_8
REMARK    2  A    between atoms: C_14  and  C_15
REMARK    3  A    between atoms: C_19  and  C_20
REMARK                            x       y       z     vdW  Elec       q    Type
REMARK                         _______ _______ _______ _____ _____    ______ ____
ROOT
ATOM      1  C   UNL     1      -0.914  12.537  22.452  0.00  0.00    +0.000 C 
ATOM      2  O   UNL     1      -0.475  12.966  23.518  0.00  0.00    +0.000 OA
ATOM      3  N   UNL     1      -2.051  13.094  21.835  0.00  0.00    +0.000 N 
ATOM      4  C   UNL     1      -2.545  14.373  22.343  0.00  0.00    +0.000 C 
ATOM      5  C   UNL     1      -4.068  14.390  22.445  0.00  0.00    +0.000 C 
ATOM      6  C   UNL     1      -4.724  14.031  21.114  0.00  0.00    +0.000 C 
ATOM      7  C   UNL     1      -4.201  12.685  20.598  0.00  0.00    +0.000 C 
ATOM      8  C   UNL     1      -2.669  12.645  20.582  0.00  0.00    +0.000 C 
ENDROOT
BRANCH   1  15
ATOM      9  O   UNL     1       2.373   7.093  18.051  0.00  0.00    +0.000 OA
ATOM     10  C   UNL     1       2.023   8.123  18.620  0.00  0.00    +0.000 C 
ATOM     11  C   UNL     1       2.282   9.493  18.033  0.00  0.00    +0.000 C 
ATOM     12  C   UNL     1       1.214  10.491  18.428  0.00  0.00    +0.000 C 
ATOM     13  C   UNL     1       0.919  10.421  19.896  0.00  0.00    +0.000 A 
ATOM     14  C   UNL     1       0.419  11.537  20.568  0.00  0.00    +0.000 A 
ATOM     15  C   UNL     1      -0.188  11.402  21.820  0.00  0.00    +0.000 A 
ATOM     16  C   UNL     1      -0.097  10.170  22.478  0.00  0.00    +0.000 A 
ATOM     17  F   UNL     1      -0.617   9.992  23.700  0.00  0.00    +0.000 F 
ATOM     18  C   UNL     1       0.506   9.070  21.861  0.00  0.00    +0.000 A 
ATOM     19  C   UNL     1       0.978   9.191  20.558  0.00  0.00    +0.000 A 
ATOM     20  N   UNL     1       1.475   8.080  19.877  0.00  0.00    +0.000 N 
ATOM     21  H   UNL     1       1.418   7.158  20.293  0.00  0.00    +0.000 HD
ENDBRANCH   1  15
BRANCH   7  22
ATOM     22  C   UNL     1      -4.753  12.329  19.226  0.00  0.00    +0.000 A 
ATOM     23  C   UNL     1      -6.070  12.647  18.857  0.00  0.00    +0.000 A 
ATOM     24  C   UNL     1      -6.560  12.312  17.594  0.00  0.00    +0.000 A 
ATOM     25  C   UNL     1      -5.743  11.650  16.681  0.00  0.00    +0.000 A 
ATOM     26  C   UNL     1      -4.422  11.326  17.018  0.00  0.00    +0.000 A 
ATOM     27  C   UNL     1      -3.933  11.684  18.287  0.00  0.00    +0.000 A 
BRANCH  26  28
ATOM     28  C   UNL     1      -3.529  10.590  16.049  0.00  0.00    +0.000 C 
ATOM     29  F   UNL     1      -4.179  10.139  14.940  0.00  0.00    +0.000 F 
ATOM     30  F   UNL     1      -2.506  11.364  15.593  0.00  0.00    +0.000 F 
ATOM     31  F   UNL     1      -2.947   9.494  16.610  0.00  0.00    +0.000 F 
ENDBRANCH  26  28
ENDBRANCH   7  22
TORSDOF 3
ENDMDL
MODEL 8
REMARK VINA RESULT:      -8.0      5.684      9.390
REMARK  Name = 
REMARK  3 active torsions:
REMARK  status: ('A' for Active; 'I' for Inactive)
REMARK    1  A    between atoms: C_7  and  C_8
REMARK    2  A    between atoms: C_14  and  C_15
REMARK    3  A    between atoms: C_19  and  C_20
REMARK                            x       y       z     vdW  Elec       q    Type
REMARK                         _______ _______ _______ _____ _____    ______ ____
ROOT
ATOM      1  C   UNL     1       0.138  13.452  21.903  0.00  0.00    +0.000 C 
ATOM      2  O   UNL     1      -0.444  14.119  22.757  0.00  0.00    +0.000 OA
ATOM      3  N   UNL     1      -0.113  12.077  21.733  0.00  0.00    +0.000 N 
ATOM      4  C   UNL     1      -1.279  11.506  22.407  0.00  0.00    +0.000 C 
ATOM      5  C   UNL     1      -0.962  10.152  23.034  0.00  0.00    +0.000 C 
ATOM      6  C   UNL     1      -0.385   9.179  22.008  0.00  0.00    +0.000 C 
ATOM      7  C   UNL     1       0.841   9.788  21.315  0.00  0.00    +0.000 C 
ATOM      8  C   UNL     1       0.539  11.187  20.764  0.00  0.00    +0.000 C 
ENDROOT
BRANCH   1  15
ATOM      9  O   UNL     1       5.773  17.514  18.504  0.00  0.00    +0.000 OA
ATOM     10  C   UNL     1       5.083  16.710  19.123  0.00  0.00    +0.000 C 
ATOM     11  C   UNL     1       5.662  15.814  20.197  0.00  0.00    +0.000 C 
ATOM     12  C   UNL     1       4.648  15.493  21.276  0.00  0.00    +0.000 C 
ATOM     13  C   UNL     1       3.332  15.086  20.683  0.00  0.00    +0.000 A 
ATOM     14  C   UNL     1       2.466  14.258  21.395  0.00  0.00    +0.000 A 
ATOM     15  C   UNL     1       1.119  14.157  21.034  0.00  0.00    +0.000 A 
ATOM     16  C   UNL     1       0.705  14.734  19.829  0.00  0.00    +0.000 A 
ATOM     17  F   UNL     1      -0.563  14.631  19.405  0.00  0.00    +0.000 F 
ATOM     18  C   UNL     1       1.595  15.473  19.044  0.00  0.00    +0.000 A 
ATOM     19  C   UNL     1       2.895  15.677  19.494  0.00  0.00    +0.000 A 
ATOM     20  N   UNL     1       3.768  16.509  18.791  0.00  0.00    +0.000 N 
ATOM     21  H   UNL     1       3.436  17.039  17.994  0.00  0.00    +0.000 HD
ENDBRANCH   1  15
BRANCH   7  22
ATOM     22  C   UNL     1       1.394   8.896  20.214  0.00  0.00    +0.000 A 
ATOM     23  C   UNL     1       1.492   9.341  18.885  0.00  0.00    +0.000 A 
ATOM     24  C   UNL     1       2.001   8.508  17.889  0.00  0.00    +0.000 A 
ATOM     25  C   UNL     1       2.416   7.216  18.201  0.00  0.00    +0.000 A 
ATOM     26  C   UNL     1       2.337   6.747  19.520  0.00  0.00    +0.000 A 
ATOM     27  C   UNL     1       1.839   7.600  20.520  0.00  0.00    +0.000 A 
BRANCH  26  28
ATOM     28  C   UNL     1       2.763   5.342  19.873  0.00  0.00    +0.000 C 
ATOM     29  F   UNL     1       4.092   5.110  19.685  0.00  0.00    +0.000 F 
ATOM     30  F   UNL     1       2.511   5.033  21.175  0.00  0.00    +0.000 F 
ATOM     31  F   UNL     1       2.113   4.402  19.132  0.00  0.00    +0.000 F 
ENDBRANCH  26  28
ENDBRANCH   7  22
TORSDOF 3
ENDMDL
MODEL 9
REMARK VINA RESULT:      -7.8      6.118     11.542
REMARK  Name = 
REMARK  3 active torsions:
REMARK  status: ('A' for Active; 'I' for Inactive)
REMARK    1  A    between atoms: C_7  and  C_8
REMARK    2  A    between atoms: C_14  and  C_15
REMARK    3  A    between atoms: C_19  and  C_20
REMARK                            x       y       z     vdW  Elec       q    Type
REMARK                         _______ _______ _______ _____ _____    ______ ____
ROOT
ATOM      1  C   UNL     1      -1.161  14.335  20.346  0.00  0.00    +0.000 C 
ATOM      2  O   UNL     1      -1.261  15.512  20.002  0.00  0.00    +0.000 OA
ATOM      3  N   UNL     1      -0.059  13.541  19.975  0.00  0.00    +0.000 N 
ATOM      4  C   UNL     1       1.105  14.214  19.399  0.00  0.00    +0.000 C 
ATOM      5  C   UNL     1       1.671  13.445  18.209  0.00  0.00    +0.000 C 
ATOM      6  C   UNL     1       1.993  11.999  18.577  0.00  0.00    +0.000 C 
ATOM      7  C   UNL     1       0.762  11.304  19.171  0.00  0.00    +0.000 C 
ATOM      8  C   UNL     1       0.146  12.126  20.310  0.00  0.00    +0.000 C 
ENDROOT
BRANCH   1  15
ATOM      9  O   UNL     1      -7.608  12.187  24.037  0.00  0.00    +0.000 OA
ATOM     10  C   UNL     1      -6.699  12.400  23.241  0.00  0.00    +0.000 C 
ATOM     11  C   UNL     1      -6.910  12.337  21.744  0.00  0.00    +0.000 C 
ATOM     12  C   UNL     1      -5.996  13.288  21.001  0.00  0.00    +0.000 C 
ATOM     13  C   UNL     1      -4.585  13.186  21.496  0.00  0.00    +0.000 A 
ATOM     14  C   UNL     1      -3.519  13.519  20.660  0.00  0.00    +0.000 A 
ATOM     15  C   UNL     1      -2.251  13.773  21.189  0.00  0.00    +0.000 A 
ATOM     16  C   UNL     1      -2.019  13.485  22.539  0.00  0.00    +0.000 A 
ATOM     17  F   UNL     1      -0.812  13.662  23.093  0.00  0.00    +0.000 F 
ATOM     18  C   UNL     1      -3.055  13.038  23.365  0.00  0.00    +0.000 A 
ATOM     19  C   UNL     1      -4.342  12.926  22.848  0.00  0.00    +0.000 A 
ATOM     20  N   UNL     1      -5.414  12.599  23.678  0.00  0.00    +0.000 N 
ATOM     21  H   UNL     1      -5.280  12.523  24.680  0.00  0.00    +0.000 HD
ENDBRANCH   1  15
BRANCH   7  22
ATOM     22  C   UNL     1       1.059   9.889  19.644  0.00  0.00    +0.000 A 
ATOM     23  C   UNL     1       0.622   9.423  20.895  0.00  0.00    +0.000 A 
ATOM     24  C   UNL     1       0.905   8.123  21.313  0.00  0.00    +0.000 A 
ATOM     25  C   UNL     1       1.632   7.267  20.489  0.00  0.00    +0.000 A 
ATOM     26  C   UNL     1       2.075   7.701  19.232  0.00  0.00    +0.000 A 
ATOM     27  C   UNL     1       1.769   9.008  18.814  0.00  0.00    +0.000 A 
BRANCH  26  28
ATOM     28  C   UNL     1       2.881   6.793  18.335  0.00  0.00    +0.000 C 
ATOM     29  F   UNL     1       3.449   7.434  17.276  0.00  0.00    +0.000 F 
ATOM     30  F   UNL     1       3.904   6.184  18.995  0.00  0.00    +0.000 F 
ATOM     31  F   UNL     1       2.129   5.791  17.802  0.00  0.00    +0.000 F 
ENDBRANCH  26  28
ENDBRANCH   7  22
TORSDOF 3
ENDMDL
