MODEL 1
REMARK VINA RESULT:      -8.0      0.000      0.000
REMARK  Name = 
REMARK  3 active torsions:
REMARK  status: ('A' for Active; 'I' for Inactive)
REMARK    1  A    between atoms: C_2  and  C_13
REMARK    2  A    between atoms: N_16  and  C_17
REMARK    3  A    between atoms: C_24  and  C_25
REMARK                            x       y       z     vdW  Elec       q    Type
REMARK                         _______ _______ _______ _____ _____    ______ ____
ROOT
ATOM      1  C   UNL     1       7.241   6.570  18.210  0.00  0.00    +0.000 A 
ATOM      2  C   UNL     1       7.737   5.428  18.863  0.00  0.00    +0.000 A 
ATOM      3  N   UNL     1       6.816   4.483  19.016  0.00  0.00    +0.000 NA
ATOM      4  N   UNL     1       5.725   4.940  18.351  0.00  0.00    +0.000 N 
ATOM      5  C   UNL     1       5.915   6.242  17.929  0.00  0.00    +0.000 A 
ENDROOT
BRANCH   1   7
ATOM      6  O   UNL     1       8.047   8.243  16.785  0.00  0.00    +0.000 OA
ATOM      7  C   UNL     1       7.883   7.848  17.935  0.00  0.00    +0.000 C 
ATOM      8  N   UNL     1       8.299   8.554  19.043  0.00  0.00    +0.000 N 
ATOM      9  C   UNL     1       8.952   9.745  18.853  0.00  0.00    +0.000 A 
ATOM     10  N   UNL     1      10.020  10.115  19.515  0.00  0.00    +0.000 NA
ATOM     11  C   UNL     1      10.422  11.279  18.911  0.00  0.00    +0.000 A 
ATOM     12  C   UNL     1      11.602  12.013  19.083  0.00  0.00    +0.000 A 
ATOM     13  C   UNL     1      11.758  13.206  18.365  0.00  0.00    +0.000 A 
ATOM     14  C   UNL     1      10.758  13.661  17.498  0.00  0.00    +0.000 A 
ATOM     15  C   UNL     1       9.591  12.916  17.285  0.00  0.00    +0.000 A 
ATOM     16  C   UNL     1       9.485  11.711  17.982  0.00  0.00    +0.000 A 
ATOM     17  N   UNL     1       8.568  10.698  17.946  0.00  0.00    +0.000 N 
ATOM     18  H   UNL     1       8.547   8.064  19.889  0.00  0.00    +0.000 HD
ATOM     19  H   UNL     1       7.768  10.628  17.333  0.00  0.00    +0.000 HD
ENDBRANCH   1   7
BRANCH   4  20
ATOM     20  C   UNL     1       4.592   4.088  18.231  0.00  0.00    +0.000 A 
ATOM     21  C   UNL     1       4.132   3.643  16.986  0.00  0.00    +0.000 A 
ATOM     22  C   UNL     1       2.960   2.880  16.899  0.00  0.00    +0.000 A 
ATOM     23  C   UNL     1       2.259   2.543  18.055  0.00  0.00    +0.000 A 
ATOM     24  C   UNL     1       2.747   2.935  19.299  0.00  0.00    +0.000 A 
ATOM     25 CL   UNL     1       1.880   2.509  20.722  0.00  0.00    +0.000 Cl
ATOM     26  C   UNL     1       3.917   3.689  19.397  0.00  0.00    +0.000 A 
ENDBRANCH   4  20
BRANCH   5  27
ATOM     27  C   UNL     1       4.799   7.079  17.437  0.00  0.00    +0.000 C 
ATOM     28  F   UNL     1       4.976   8.402  17.638  0.00  0.00    +0.000 F 
ATOM     29  F   UNL     1       4.587   6.913  16.108  0.00  0.00    +0.000 F 
ATOM     30  F   UNL     1       3.639   6.780  18.071  0.00  0.00    +0.000 F 
ENDBRANCH   5  27
TORSDOF 3
ENDMDL
MODEL 2
REMARK VINA RESULT:      -7.9      7.418     10.145
REMARK  Name = 
REMARK  3 active torsions:
REMARK  status: ('A' for Active; 'I' for Inactive)
REMARK    1  A    between atoms: C_2  and  C_13
REMARK    2  A    between atoms: N_16  and  C_17
REMARK    3  A    between atoms: C_24  and  C_25
REMARK                            x       y       z     vdW  Elec       q    Type
REMARK                         _______ _______ _______ _____ _____    ______ ____
ROOT
ATOM      1  C   UNL     1       0.576   9.240  21.681  0.00  0.00    +0.000 A 
ATOM      2  C   UNL     1       0.591   9.240  23.087  0.00  0.00    +0.000 A 
ATOM      3  N   UNL     1      -0.009  10.306  23.606  0.00  0.00    +0.000 NA
ATOM      4  N   UNL     1      -0.542  10.965  22.547  0.00  0.00    +0.000 N 
ATOM      5  C   UNL     1      -0.128  10.399  21.356  0.00  0.00    +0.000 A 
ENDROOT
BRANCH   1   7
ATOM      6  O   UNL     1       1.537   8.696  19.616  0.00  0.00    +0.000 OA
ATOM      7  C   UNL     1       1.197   8.322  20.734  0.00  0.00    +0.000 C 
ATOM      8  N   UNL     1       1.351   7.027  21.179  0.00  0.00    +0.000 N 
ATOM      9  C   UNL     1       1.888   6.101  20.321  0.00  0.00    +0.000 A 
ATOM     10  N   UNL     1       1.429   4.883  20.170  0.00  0.00    +0.000 NA
ATOM     11  C   UNL     1       2.150   4.364  19.125  0.00  0.00    +0.000 A 
ATOM     12  C   UNL     1       1.962   3.172  18.415  0.00  0.00    +0.000 A 
ATOM     13  C   UNL     1       2.873   2.846  17.400  0.00  0.00    +0.000 A 
ATOM     14  C   UNL     1       3.951   3.688  17.103  0.00  0.00    +0.000 A 
ATOM     15  C   UNL     1       4.127   4.904  17.777  0.00  0.00    +0.000 A 
ATOM     16  C   UNL     1       3.179   5.220  18.752  0.00  0.00    +0.000 A 
ATOM     17  N   UNL     1       2.972   6.334  19.516  0.00  0.00    +0.000 N 
ATOM     18  H   UNL     1       0.718   6.651  21.868  0.00  0.00    +0.000 HD
ATOM     19  H   UNL     1       3.489   7.200  19.473  0.00  0.00    +0.000 HD
ENDBRANCH   1   7
BRANCH   4  20
ATOM     20  C   UNL     1      -1.360  12.104  22.792  0.00  0.00    +0.000 A 
ATOM     21  C   UNL     1      -0.848  13.405  22.731  0.00  0.00    +0.000 A 
ATOM     22  C   UNL     1      -1.659  14.497  23.067  0.00  0.00    +0.000 A 
ATOM     23  C   UNL     1      -2.985  14.293  23.443  0.00  0.00    +0.000 A 
ATOM     24  C   UNL     1      -3.511  13.004  23.448  0.00  0.00    +0.000 A 
ATOM     25 CL   UNL     1      -5.152  12.759  23.907  0.00  0.00    +0.000 Cl
ATOM     26  C   UNL     1      -2.714  11.910  23.108  0.00  0.00    +0.000 A 
ENDBRANCH   4  20
BRANCH   5  27
ATOM     27  C   UNL     1      -0.320  11.078  20.055  0.00  0.00    +0.000 C 
ATOM     28  F   UNL     1      -1.266  12.041  20.074  0.00  0.00    +0.000 F 
ATOM     29  F   UNL     1       0.822  11.662  19.614  0.00  0.00    +0.000 F 
ATOM     30  F   UNL     1      -0.724  10.208  19.098  0.00  0.00    +0.000 F 
ENDBRANCH   5  27
TORSDOF 3
ENDMDL
MODEL 3
REMARK VINA RESULT:      -7.7      7.483     10.199
REMARK  Name = 
REMARK  3 active torsions:
REMARK  status: ('A' for Active; 'I' for Inactive)
REMARK    1  A    between atoms: C_2  and  C_13
REMARK    2  A    between atoms: N_16  and  C_17
REMARK    3  A    between atoms: C_24  and  C_25
REMARK                            x       y       z     vdW  Elec       q    Type
REMARK                         _______ _______ _______ _____ _____    ______ ____
ROOT
ATOM      1  C   UNL     1       0.564   9.227  21.637  0.00  0.00    +0.000 A 
ATOM      2  C   UNL     1       0.640   9.245  23.041  0.00  0.00    +0.000 A 
ATOM      3  N   UNL     1       0.029  10.297  23.574  0.00  0.00    +0.000 NA
ATOM      4  N   UNL     1      -0.571  10.926  22.532  0.00  0.00    +0.000 N 
ATOM      5  C   UNL     1      -0.191  10.358  21.330  0.00  0.00    +0.000 A 
ENDROOT
BRANCH   1   7
ATOM      6  O   UNL     1       1.478   8.695  19.548  0.00  0.00    +0.000 OA
ATOM      7  C   UNL     1       1.172   8.317  20.675  0.00  0.00    +0.000 C 
ATOM      8  N   UNL     1       1.357   7.024  21.115  0.00  0.00    +0.000 N 
ATOM      9  C   UNL     1       1.883   6.105  20.244  0.00  0.00    +0.000 A 
ATOM     10  N   UNL     1       1.438   4.881  20.105  0.00  0.00    +0.000 NA
ATOM     11  C   UNL     1       2.138   4.372  19.041  0.00  0.00    +0.000 A 
ATOM     12  C   UNL     1       1.948   3.177  18.336  0.00  0.00    +0.000 A 
ATOM     13  C   UNL     1       2.836   2.864  17.299  0.00  0.00    +0.000 A 
ATOM     14  C   UNL     1       3.894   3.720  16.973  0.00  0.00    +0.000 A 
ATOM     15  C   UNL     1       4.071   4.938  17.643  0.00  0.00    +0.000 A 
ATOM     16  C   UNL     1       3.145   5.241  18.642  0.00  0.00    +0.000 A 
ATOM     17  N   UNL     1       2.942   6.353  19.411  0.00  0.00    +0.000 N 
ATOM     18  H   UNL     1       0.747   6.640  21.821  0.00  0.00    +0.000 HD
ATOM     19  H   UNL     1       3.446   7.226  19.354  0.00  0.00    +0.000 HD
ENDBRANCH   1   7
BRANCH   4  20
ATOM     20  C   UNL     1      -1.413  12.041  22.800  0.00  0.00    +0.000 A 
ATOM     21  C   UNL     1      -2.780  11.886  23.062  0.00  0.00    +0.000 A 
ATOM     22  C   UNL     1      -3.596  13.012  23.232  0.00  0.00    +0.000 A 
ATOM     23  C   UNL     1      -3.047  14.290  23.160  0.00  0.00    +0.000 A 
ATOM     24  C   UNL     1      -1.678  14.444  22.957  0.00  0.00    +0.000 A 
ATOM     25 CL   UNL     1      -1.005  16.026  22.876  0.00  0.00    +0.000 Cl
ATOM     26  C   UNL     1      -0.855  13.329  22.794  0.00  0.00    +0.000 A 
ENDBRANCH   4  20
BRANCH   5  27
ATOM     27  C   UNL     1      -0.461  11.014  20.032  0.00  0.00    +0.000 C 
ATOM     28  F   UNL     1      -1.437  11.945  20.081  0.00  0.00    +0.000 F 
ATOM     29  F   UNL     1       0.641  11.630  19.535  0.00  0.00    +0.000 F 
ATOM     30  F   UNL     1      -0.877  10.119  19.103  0.00  0.00    +0.000 F 
ENDBRANCH   5  27
TORSDOF 3
ENDMDL
MODEL 4
REMARK VINA RESULT:      -7.7      5.475      7.378
REMARK  Name = 
REMARK  3 active torsions:
REMARK  status: ('A' for Active; 'I' for Inactive)
REMARK    1  A    between atoms: C_2  and  C_13
REMARK    2  A    between atoms: N_16  and  C_17
REMARK    3  A    between atoms: C_24  and  C_25
REMARK                            x       y       z     vdW  Elec       q    Type
REMARK                         _______ _______ _______ _____ _____    ______ ____
ROOT
ATOM      1  C   UNL     1       3.063   5.281  18.654  0.00  0.00    +0.000 A 
ATOM      2  C   UNL     1       3.128   3.881  18.538  0.00  0.00    +0.000 A 
ATOM      3  N   UNL     1       3.887   3.485  17.522  0.00  0.00    +0.000 NA
ATOM      4  N   UNL     1       4.439   4.622  17.027  0.00  0.00    +0.000 N 
ATOM      5  C   UNL     1       3.890   5.738  17.629  0.00  0.00    +0.000 A 
ENDROOT
BRANCH   1   7
ATOM      6  O   UNL     1       1.516   5.616  20.380  0.00  0.00    +0.000 OA
ATOM      7  C   UNL     1       2.278   6.113  19.556  0.00  0.00    +0.000 C 
ATOM      8  N   UNL     1       2.442   7.473  19.402  0.00  0.00    +0.000 N 
ATOM      9  C   UNL     1       1.698   8.315  20.189  0.00  0.00    +0.000 A 
ATOM     10  N   UNL     1       1.100   9.396  19.753  0.00  0.00    +0.000 NA
ATOM     11  C   UNL     1       0.359   9.840  20.818  0.00  0.00    +0.000 A 
ATOM     12  C   UNL     1      -0.614  10.846  20.871  0.00  0.00    +0.000 A 
ATOM     13  C   UNL     1      -1.205  11.140  22.107  0.00  0.00    +0.000 A 
ATOM     14  C   UNL     1      -0.832  10.450  23.266  0.00  0.00    +0.000 A 
ATOM     15  C   UNL     1       0.110   9.413  23.220  0.00  0.00    +0.000 A 
ATOM     16  C   UNL     1       0.649   9.116  21.967  0.00  0.00    +0.000 A 
ATOM     17  N   UNL     1       1.489   8.130  21.530  0.00  0.00    +0.000 N 
ATOM     18  H   UNL     1       2.703   7.851  18.504  0.00  0.00    +0.000 HD
ATOM     19  H   UNL     1       1.860   7.367  22.078  0.00  0.00    +0.000 HD
ENDBRANCH   1   7
BRANCH   4  20
ATOM     20  C   UNL     1       5.408   4.515  15.990  0.00  0.00    +0.000 A 
ATOM     21  C   UNL     1       6.731   4.935  16.171  0.00  0.00    +0.000 A 
ATOM     22  C   UNL     1       7.633   4.900  15.100  0.00  0.00    +0.000 A 
ATOM     23  C   UNL     1       7.223   4.427  13.856  0.00  0.00    +0.000 A 
ATOM     24  C   UNL     1       5.924   3.954  13.690  0.00  0.00    +0.000 A 
ATOM     25 CL   UNL     1       5.425   3.365  12.152  0.00  0.00    +0.000 Cl
ATOM     26  C   UNL     1       5.018   3.979  14.752  0.00  0.00    +0.000 A 
ENDBRANCH   4  20
BRANCH   5  27
ATOM     27  C   UNL     1       4.093   7.101  17.089  0.00  0.00    +0.000 C 
ATOM     28  F   UNL     1       2.978   7.863  17.093  0.00  0.00    +0.000 F 
ATOM     29  F   UNL     1       5.035   7.786  17.782  0.00  0.00    +0.000 F 
ATOM     30  F   UNL     1       4.489   7.066  15.794  0.00  0.00    +0.000 F 
ENDBRANCH   5  27
TORSDOF 3
ENDMDL
MODEL 5
REMARK VINA RESULT:      -7.6      6.398      7.981
REMARK  Name = 
REMARK  3 active torsions:
REMARK  status: ('A' for Active; 'I' for Inactive)
REMARK    1  A    between atoms: C_2  and  C_13
REMARK    2  A    between atoms: N_16  and  C_17
REMARK    3  A    between atoms: C_24  and  C_25
REMARK                            x       y       z     vdW  Elec       q    Type
REMARK                         _______ _______ _______ _____ _____    ______ ____
ROOT
ATOM      1  C   UNL     1       1.530   7.049  20.653  0.00  0.00    +0.000 A 
ATOM      2  C   UNL     1       1.770   5.776  21.201  0.00  0.00    +0.000 A 
ATOM      3  N   UNL     1       2.586   5.041  20.452  0.00  0.00    +0.000 NA
ATOM      4  N   UNL     1       2.999   5.868  19.459  0.00  0.00    +0.000 N 
ATOM      5  C   UNL     1       2.306   7.064  19.495  0.00  0.00    +0.000 A 
ENDROOT
BRANCH   1   7
ATOM      6  O   UNL     1      -0.583   7.973  21.056  0.00  0.00    +0.000 OA
ATOM      7  C   UNL     1       0.636   8.109  21.098  0.00  0.00    +0.000 C 
ATOM      8  N   UNL     1       1.253   9.259  21.542  0.00  0.00    +0.000 N 
ATOM      9  C   UNL     1       0.469  10.314  21.933  0.00  0.00    +0.000 A 
ATOM     10  N   UNL     1       0.702  11.564  21.616  0.00  0.00    +0.000 NA
ATOM     11  C   UNL     1      -0.392  12.251  22.075  0.00  0.00    +0.000 A 
ATOM     12  C   UNL     1      -0.767  13.583  21.854  0.00  0.00    +0.000 A 
ATOM     13  C   UNL     1      -1.927  14.063  22.477  0.00  0.00    +0.000 A 
ATOM     14  C   UNL     1      -2.694  13.236  23.306  0.00  0.00    +0.000 A 
ATOM     15  C   UNL     1      -2.353  11.891  23.502  0.00  0.00    +0.000 A 
ATOM     16  C   UNL     1      -1.217  11.432  22.834  0.00  0.00    +0.000 A 
ATOM     17  N   UNL     1      -0.656  10.192  22.705  0.00  0.00    +0.000 N 
ATOM     18  H   UNL     1       2.161   9.514  21.184  0.00  0.00    +0.000 HD
ATOM     19  H   UNL     1      -1.021   9.323  23.070  0.00  0.00    +0.000 HD
ENDBRANCH   1   7
BRANCH   4  20
ATOM     20  C   UNL     1       3.986   5.401  18.547  0.00  0.00    +0.000 A 
ATOM     21  C   UNL     1       3.640   4.777  17.343  0.00  0.00    +0.000 A 
ATOM     22  C   UNL     1       4.637   4.248  16.512  0.00  0.00    +0.000 A 
ATOM     23  C   UNL     1       5.978   4.360  16.872  0.00  0.00    +0.000 A 
ATOM     24  C   UNL     1       6.326   5.031  18.042  0.00  0.00    +0.000 A 
ATOM     25 CL   UNL     1       7.985   5.171  18.477  0.00  0.00    +0.000 Cl
ATOM     26  C   UNL     1       5.342   5.567  18.872  0.00  0.00    +0.000 A 
ENDBRANCH   4  20
BRANCH   5  27
ATOM     27  C   UNL     1       2.345   8.028  18.373  0.00  0.00    +0.000 C 
ATOM     28  F   UNL     1       1.943   9.273  18.706  0.00  0.00    +0.000 F 
ATOM     29  F   UNL     1       3.590   8.147  17.848  0.00  0.00    +0.000 F 
ATOM     30  F   UNL     1       1.518   7.649  17.368  0.00  0.00    +0.000 F 
ENDBRANCH   5  27
TORSDOF 3
ENDMDL
MODEL 6
REMARK VINA RESULT:      -7.6      7.578      9.857
REMARK  Name = 
REMARK  3 active torsions:
REMARK  status: ('A' for Active; 'I' for Inactive)
REMARK    1  A    between atoms: C_2  and  C_13
REMARK    2  A    between atoms: N_16  and  C_17
REMARK    3  A    between atoms: C_24  and  C_25
REMARK                            x       y       z     vdW  Elec       q    Type
REMARK                         _______ _______ _______ _____ _____    ______ ____
ROOT
ATOM      1  C   UNL     1       0.448  10.241  20.250  0.00  0.00    +0.000 A 
ATOM      2  C   UNL     1       0.088  11.300  19.397  0.00  0.00    +0.000 A 
ATOM      3  N   UNL     1      -0.735  12.167  19.975  0.00  0.00    +0.000 NA
ATOM      4  N   UNL     1      -0.831  11.760  21.266  0.00  0.00    +0.000 N 
ATOM      5  C   UNL     1      -0.201  10.543  21.446  0.00  0.00    +0.000 A 
ENDROOT
BRANCH   1   7
ATOM      6  O   UNL     1       1.564   8.285  20.887  0.00  0.00    +0.000 OA
ATOM      7  C   UNL     1       1.241   9.048  19.983  0.00  0.00    +0.000 C 
ATOM      8  N   UNL     1       1.605   8.859  18.668  0.00  0.00    +0.000 N 
ATOM      9  C   UNL     1       2.391   7.779  18.354  0.00  0.00    +0.000 A 
ATOM     10  N   UNL     1       3.414   7.823  17.537  0.00  0.00    +0.000 NA
ATOM     11  C   UNL     1       3.992   6.583  17.633  0.00  0.00    +0.000 A 
ATOM     12  C   UNL     1       5.215   6.127  17.125  0.00  0.00    +0.000 A 
ATOM     13  C   UNL     1       5.565   4.785  17.330  0.00  0.00    +0.000 A 
ATOM     14  C   UNL     1       4.712   3.916  18.021  0.00  0.00    +0.000 A 
ATOM     15  C   UNL     1       3.506   4.370  18.570  0.00  0.00    +0.000 A 
ATOM     16  C   UNL     1       3.207   5.721  18.387  0.00  0.00    +0.000 A 
ATOM     17  N   UNL     1       2.202   6.519  18.857  0.00  0.00    +0.000 N 
ATOM     18  H   UNL     1       1.711   9.654  18.055  0.00  0.00    +0.000 HD
ATOM     19  H   UNL     1       1.469   6.252  19.499  0.00  0.00    +0.000 HD
ENDBRANCH   1   7
BRANCH   4  20
ATOM     20  C   UNL     1      -1.561  12.566  22.184  0.00  0.00    +0.000 A 
ATOM     21  C   UNL     1      -0.923  13.477  23.034  0.00  0.00    +0.000 A 
ATOM     22  C   UNL     1      -1.663  14.187  23.988  0.00  0.00    +0.000 A 
ATOM     23  C   UNL     1      -3.042  14.004  24.081  0.00  0.00    +0.000 A 
ATOM     24  C   UNL     1      -3.685  13.141  23.198  0.00  0.00    +0.000 A 
ATOM     25 CL   UNL     1      -5.388  12.925  23.313  0.00  0.00    +0.000 Cl
ATOM     26  C   UNL     1      -2.958  12.434  22.239  0.00  0.00    +0.000 A 
ENDBRANCH   4  20
BRANCH   5  27
ATOM     27  C   UNL     1      -0.392   9.733  22.670  0.00  0.00    +0.000 C 
ATOM     28  F   UNL     1      -1.196  10.310  23.589  0.00  0.00    +0.000 F 
ATOM     29  F   UNL     1      -0.924   8.516  22.396  0.00  0.00    +0.000 F 
ATOM     30  F   UNL     1       0.783   9.526  23.313  0.00  0.00    +0.000 F 
ENDBRANCH   5  27
TORSDOF 3
ENDMDL
MODEL 7
REMARK VINA RESULT:      -7.6      7.711      9.933
REMARK  Name = 
REMARK  3 active torsions:
REMARK  status: ('A' for Active; 'I' for Inactive)
REMARK    1  A    between atoms: C_2  and  C_13
REMARK    2  A    between atoms: N_16  and  C_17
REMARK    3  A    between atoms: C_24  and  C_25
REMARK                            x       y       z     vdW  Elec       q    Type
REMARK                         _______ _______ _______ _____ _____    ______ ____
ROOT
ATOM      1  C   UNL     1       0.417  10.285  20.355  0.00  0.00    +0.000 A 
ATOM      2  C   UNL     1       0.078  11.354  19.506  0.00  0.00    +0.000 A 
ATOM      3  N   UNL     1      -0.793  12.191  20.059  0.00  0.00    +0.000 NA
ATOM      4  N   UNL     1      -0.946  11.754  21.334  0.00  0.00    +0.000 N 
ATOM      5  C   UNL     1      -0.301  10.547  21.521  0.00  0.00    +0.000 A 
ENDROOT
BRANCH   1   7
ATOM      6  O   UNL     1       1.674   8.429  21.030  0.00  0.00    +0.000 OA
ATOM      7  C   UNL     1       1.249   9.115  20.106  0.00  0.00    +0.000 C 
ATOM      8  N   UNL     1       1.527   8.855  18.781  0.00  0.00    +0.000 N 
ATOM      9  C   UNL     1       2.342   7.794  18.479  0.00  0.00    +0.000 A 
ATOM     10  N   UNL     1       3.300   7.831  17.587  0.00  0.00    +0.000 NA
ATOM     11  C   UNL     1       3.946   6.628  17.717  0.00  0.00    +0.000 A 
ATOM     12  C   UNL     1       5.151   6.195  17.149  0.00  0.00    +0.000 A 
ATOM     13  C   UNL     1       5.583   4.888  17.411  0.00  0.00    +0.000 A 
ATOM     14  C   UNL     1       4.828   4.029  18.218  0.00  0.00    +0.000 A 
ATOM     15  C   UNL     1       3.643   4.462  18.826  0.00  0.00    +0.000 A 
ATOM     16  C   UNL     1       3.262   5.782  18.581  0.00  0.00    +0.000 A 
ATOM     17  N   UNL     1       2.254   6.563  19.073  0.00  0.00    +0.000 N 
ATOM     18  H   UNL     1       1.548   9.611  18.113  0.00  0.00    +0.000 HD
ATOM     19  H   UNL     1       1.584   6.306  19.784  0.00  0.00    +0.000 HD
ENDBRANCH   1   7
BRANCH   4  20
ATOM     20  C   UNL     1      -1.741  12.524  22.229  0.00  0.00    +0.000 A 
ATOM     21  C   UNL     1      -3.138  12.438  22.235  0.00  0.00    +0.000 A 
ATOM     22  C   UNL     1      -3.892  13.277  23.066  0.00  0.00    +0.000 A 
ATOM     23  C   UNL     1      -3.252  14.186  23.906  0.00  0.00    +0.000 A 
ATOM     24  C   UNL     1      -1.861  14.232  23.943  0.00  0.00    +0.000 A 
ATOM     25 CL   UNL     1      -1.078  15.353  24.987  0.00  0.00    +0.000 Cl
ATOM     26  C   UNL     1      -1.101  13.397  23.124  0.00  0.00    +0.000 A 
ENDBRANCH   4  20
BRANCH   5  27
ATOM     27  C   UNL     1      -0.537   9.707  22.717  0.00  0.00    +0.000 C 
ATOM     28  F   UNL     1      -1.471  10.201  23.557  0.00  0.00    +0.000 F 
ATOM     29  F   UNL     1      -0.935   8.453  22.386  0.00  0.00    +0.000 F 
ATOM     30  F   UNL     1       0.584   9.590  23.468  0.00  0.00    +0.000 F 
ENDBRANCH   5  27
TORSDOF 3
ENDMDL
MODEL 8
REMARK VINA RESULT:      -7.5      6.769     10.027
REMARK  Name = 
REMARK  3 active torsions:
REMARK  status: ('A' for Active; 'I' for Inactive)
REMARK    1  A    between atoms: C_2  and  C_13
REMARK    2  A    between atoms: N_16  and  C_17
REMARK    3  A    between atoms: C_24  and  C_25
REMARK                            x       y       z     vdW  Elec       q    Type
REMARK                         _______ _______ _______ _____ _____    ______ ____
ROOT
ATOM      1  C   UNL     1       0.995   9.041  21.128  0.00  0.00    +0.000 A 
ATOM      2  C   UNL     1       0.851   9.322  22.498  0.00  0.00    +0.000 A 
ATOM      3  N   UNL     1       0.349  10.531  22.724  0.00  0.00    +0.000 NA
ATOM      4  N   UNL     1       0.036  11.021  21.498  0.00  0.00    +0.000 N 
ATOM      5  C   UNL     1       0.499  10.183  20.501  0.00  0.00    +0.000 A 
ENDROOT
BRANCH   1   7
ATOM      6  O   UNL     1       2.201   8.008  19.408  0.00  0.00    +0.000 OA
ATOM      7  C   UNL     1       1.585   7.887  20.462  0.00  0.00    +0.000 C 
ATOM      8  N   UNL     1       1.386   6.675  21.087  0.00  0.00    +0.000 N 
ATOM      9  C   UNL     1       1.877   5.542  20.490  0.00  0.00    +0.000 A 
ATOM     10  N   UNL     1       1.218   4.413  20.395  0.00  0.00    +0.000 NA
ATOM     11  C   UNL     1       2.005   3.614  19.606  0.00  0.00    +0.000 A 
ATOM     12  C   UNL     1       1.717   2.372  19.027  0.00  0.00    +0.000 A 
ATOM     13  C   UNL     1       2.719   1.732  18.284  0.00  0.00    +0.000 A 
ATOM     14  C   UNL     1       3.982   2.315  18.127  0.00  0.00    +0.000 A 
ATOM     15  C   UNL     1       4.270   3.576  18.667  0.00  0.00    +0.000 A 
ATOM     16  C   UNL     1       3.237   4.206  19.363  0.00  0.00    +0.000 A 
ATOM     17  N   UNL     1       3.119   5.450  19.919  0.00  0.00    +0.000 N 
ATOM     18  H   UNL     1       0.570   6.533  21.663  0.00  0.00    +0.000 HD
ATOM     19  H   UNL     1       3.800   6.195  19.882  0.00  0.00    +0.000 HD
ENDBRANCH   1   7
BRANCH   4  20
ATOM     20  C   UNL     1      -0.638  12.271  21.413  0.00  0.00    +0.000 A 
ATOM     21  C   UNL     1      -2.031  12.351  21.296  0.00  0.00    +0.000 A 
ATOM     22  C   UNL     1      -2.652  13.594  21.123  0.00  0.00    +0.000 A 
ATOM     23  C   UNL     1      -1.888  14.759  21.089  0.00  0.00    +0.000 A 
ATOM     24  C   UNL     1      -0.509  14.686  21.264  0.00  0.00    +0.000 A 
ATOM     25 CL   UNL     1       0.429  16.128  21.228  0.00  0.00    +0.000 Cl
ATOM     26  C   UNL     1       0.120  13.453  21.443  0.00  0.00    +0.000 A 
ENDBRANCH   4  20
BRANCH   5  27
ATOM     27  C   UNL     1       0.552  10.604  19.083  0.00  0.00    +0.000 C 
ATOM     28  F   UNL     1      -0.214  11.680  18.802  0.00  0.00    +0.000 F 
ATOM     29  F   UNL     1       1.813  10.912  18.691  0.00  0.00    +0.000 F 
ATOM     30  F   UNL     1       0.100   9.627  18.260  0.00  0.00    +0.000 F 
ENDBRANCH   5  27
TORSDOF 3
ENDMDL
MODEL 9
REMARK VINA RESULT:      -7.5      6.973      8.453
REMARK  Name = 
REMARK  3 active torsions:
REMARK  status: ('A' for Active; 'I' for Inactive)
REMARK    1  A    between atoms: C_2  and  C_13
REMARK    2  A    between atoms: N_16  and  C_17
REMARK    3  A    between atoms: C_24  and  C_25
REMARK                            x       y       z     vdW  Elec       q    Type
REMARK                         _______ _______ _______ _____ _____    ______ ____
ROOT
ATOM      1  C   UNL     1       1.173   9.269  19.037  0.00  0.00    +0.000 A 
ATOM      2  C   UNL     1       1.758   9.588  17.798  0.00  0.00    +0.000 A 
ATOM      3  N   UNL     1       2.624   8.668  17.388  0.00  0.00    +0.000 NA
ATOM      4  N   UNL     1       2.530   7.662  18.294  0.00  0.00    +0.000 N 
ATOM      5  C   UNL     1       1.729   8.032  19.358  0.00  0.00    +0.000 A 
ENDROOT
BRANCH   1   7
ATOM      6  O   UNL     1      -0.953   9.984  19.707  0.00  0.00    +0.000 OA
ATOM      7  C   UNL     1       0.261  10.040  19.871  0.00  0.00    +0.000 C 
ATOM      8  N   UNL     1       0.859  10.834  20.827  0.00  0.00    +0.000 N 
ATOM      9  C   UNL     1       0.060  11.621  21.617  0.00  0.00    +0.000 A 
ATOM     10  N   UNL     1       0.324  12.867  21.924  0.00  0.00    +0.000 NA
ATOM     11  C   UNL     1      -0.791  13.307  22.589  0.00  0.00    +0.000 A 
ATOM     12  C   UNL     1      -1.140  14.605  22.986  0.00  0.00    +0.000 A 
ATOM     13  C   UNL     1      -2.333  14.788  23.697  0.00  0.00    +0.000 A 
ATOM     14  C   UNL     1      -3.159  13.703  24.010  0.00  0.00    +0.000 A 
ATOM     15  C   UNL     1      -2.843  12.406  23.584  0.00  0.00    +0.000 A 
ATOM     16  C   UNL     1      -1.671  12.263  22.840  0.00  0.00    +0.000 A 
ATOM     17  N   UNL     1      -1.113  11.200  22.185  0.00  0.00    +0.000 N 
ATOM     18  H   UNL     1       1.790  11.191  20.675  0.00  0.00    +0.000 HD
ATOM     19  H   UNL     1      -1.508  10.275  22.090  0.00  0.00    +0.000 HD
ENDBRANCH   1   7
BRANCH   4  20
ATOM     20  C   UNL     1       3.261   6.463  18.062  0.00  0.00    +0.000 A 
ATOM     21  C   UNL     1       4.654   6.464  17.931  0.00  0.00    +0.000 A 
ATOM     22  C   UNL     1       5.332   5.280  17.613  0.00  0.00    +0.000 A 
ATOM     23  C   UNL     1       4.622   4.092  17.446  0.00  0.00    +0.000 A 
ATOM     24  C   UNL     1       3.243   4.079  17.633  0.00  0.00    +0.000 A 
ATOM     25 CL   UNL     1       2.374   2.607  17.432  0.00  0.00    +0.000 Cl
ATOM     26  C   UNL     1       2.559   5.251  17.957  0.00  0.00    +0.000 A 
ENDBRANCH   4  20
BRANCH   5  27
ATOM     27  C   UNL     1       1.682   7.250  20.614  0.00  0.00    +0.000 C 
ATOM     28  F   UNL     1       2.678   6.347  20.735  0.00  0.00    +0.000 F 
ATOM     29  F   UNL     1       1.744   8.047  21.710  0.00  0.00    +0.000 F 
ATOM     30  F   UNL     1       0.540   6.527  20.704  0.00  0.00    +0.000 F 
ENDBRANCH   5  27
TORSDOF 3
ENDMDL
