MODEL 1
REMARK VINA RESULT:      -8.9      0.000      0.000
REMARK  Name = 
REMARK  8 active torsions:
REMARK  status: ('A' for Active; 'I' for Inactive)
REMARK    1  A    between atoms: C_1  and  C_2
REMARK    2  A    between atoms: C_6  and  N_7
REMARK    3  A    between atoms: C_8  and  C_10
REMARK    4  A    between atoms: C_14  and  C_15
REMARK    5  A    between atoms: C_15  and  C_16
REMARK    6  A    between atoms: C_15  and  S_17
REMARK    7  A    between atoms: S_17  and  C_18
REMARK    8  A    between atoms: N_22  and  C_23
REMARK                            x       y       z     vdW  Elec       q    Type
REMARK                         _______ _______ _______ _____ _____    ______ ____
ROOT
ATOM      1  C   UNL     1       3.130   6.240  18.972  0.00  0.00    +0.000 A 
ATOM      2  C   UNL     1       2.882   5.122  19.780  0.00  0.00    +0.000 A 
ATOM      3  C   UNL     1       3.696   4.000  19.681  0.00  0.00    +0.000 A 
ATOM      4  C   UNL     1       4.760   3.988  18.778  0.00  0.00    +0.000 A 
ATOM      5  C   UNL     1       5.018   5.098  17.954  0.00  0.00    +0.000 A 
ATOM      6  C   UNL     1       4.179   6.216  18.049  0.00  0.00    +0.000 A 
ENDROOT
BRANCH   1   8
ATOM      7  N   UNL     1       1.891   7.772  20.389  0.00  0.00    +0.000 N 
ATOM      8  C   UNL     1       2.243   7.424  19.093  0.00  0.00    +0.000 C 
ATOM      9  O   UNL     1       1.872   7.965  18.058  0.00  0.00    +0.000 OA
ATOM     10  H   UNL     1       2.141   7.125  21.124  0.00  0.00    +0.000 HD
BRANCH   7  16
ATOM     11  C   UNL     1      -1.188  13.025  23.071  0.00  0.00    +0.000 C 
ATOM     12  C   UNL     1      -0.970  11.638  22.661  0.00  0.00    +0.000 C 
ATOM     13  N   UNL     1      -1.181  10.487  23.226  0.00  0.00    +0.000 NA
ATOM     14  C   UNL     1      -0.442   9.883  22.216  0.00  0.00    +0.000 A 
ATOM     15  C   UNL     1       0.171   8.725  21.868  0.00  0.00    +0.000 A 
ATOM     16  C   UNL     1       1.011   8.815  20.757  0.00  0.00    +0.000 A 
ATOM     17  C   UNL     1       1.078  10.022  19.990  0.00  0.00    +0.000 A 
ATOM     18  C   UNL     1       0.415  11.191  20.402  0.00  0.00    +0.000 A 
ATOM     19  C   UNL     1      -0.284  11.063  21.564  0.00  0.00    +0.000 A 
ENDBRANCH   7  16
ENDBRANCH   1   8
BRANCH   5  20
ATOM     20  C   UNL     1       6.175   5.063  16.971  0.00  0.00    +0.000 C 
ATOM     21  C   UNL     1       7.466   4.658  17.698  0.00  0.00    +0.000 C 
BRANCH  20  22
ATOM     22  S   UNL     1       5.930   3.891  15.580  0.00  0.00    +0.000 S 
BRANCH  22  23
ATOM     23  C   UNL     1       6.888   4.577  14.319  0.00  0.00    +0.000 A 
ATOM     24  N   UNL     1       7.846   5.467  14.440  0.00  0.00    +0.000 NA
ATOM     25  N   UNL     1       8.294   5.781  13.177  0.00  0.00    +0.000 NA
ATOM     26  C   UNL     1       7.614   5.052  12.323  0.00  0.00    +0.000 A 
ATOM     27  N   UNL     1       6.734   4.259  12.998  0.00  0.00    +0.000 N 
ATOM     28  C   UNL     1       5.861   3.287  12.398  0.00  0.00    +0.000 C 
ENDBRANCH  22  23
ENDBRANCH  20  22
ENDBRANCH   5  20
TORSDOF 5
ENDMDL
MODEL 2
REMARK VINA RESULT:      -8.7      5.859      7.229
REMARK  Name = 
REMARK  8 active torsions:
REMARK  status: ('A' for Active; 'I' for Inactive)
REMARK    1  A    between atoms: C_1  and  C_2
REMARK    2  A    between atoms: C_6  and  N_7
REMARK    3  A    between atoms: C_8  and  C_10
REMARK    4  A    between atoms: C_14  and  C_15
REMARK    5  A    between atoms: C_15  and  C_16
REMARK    6  A    between atoms: C_15  and  S_17
REMARK    7  A    between atoms: S_17  and  C_18
REMARK    8  A    between atoms: N_22  and  C_23
REMARK                            x       y       z     vdW  Elec       q    Type
REMARK                         _______ _______ _______ _____ _____    ______ ____
ROOT
ATOM      1  C   UNL     1       7.852   7.754  18.235  0.00  0.00    +0.000 A 
ATOM      2  C   UNL     1       8.411   6.849  19.147  0.00  0.00    +0.000 A 
ATOM      3  C   UNL     1       7.975   5.530  19.172  0.00  0.00    +0.000 A 
ATOM      4  C   UNL     1       6.981   5.108  18.287  0.00  0.00    +0.000 A 
ATOM      5  C   UNL     1       6.403   6.005  17.372  0.00  0.00    +0.000 A 
ATOM      6  C   UNL     1       6.837   7.336  17.369  0.00  0.00    +0.000 A 
ENDROOT
BRANCH   1   8
ATOM      7  N   UNL     1       9.270   9.467  19.207  0.00  0.00    +0.000 N 
ATOM      8  C   UNL     1       8.331   9.159  18.233  0.00  0.00    +0.000 C 
ATOM      9  O   UNL     1       7.842   9.926  17.412  0.00  0.00    +0.000 OA
ATOM     10  H   UNL     1       9.445   8.768  19.916  0.00  0.00    +0.000 HD
BRANCH   7  16
ATOM     11  C   UNL     1      10.672  15.955  19.667  0.00  0.00    +0.000 C 
ATOM     12  C   UNL     1      10.842  14.547  19.306  0.00  0.00    +0.000 C 
ATOM     13  N   UNL     1      11.259  13.934  18.239  0.00  0.00    +0.000 NA
ATOM     14  C   UNL     1      10.806  12.737  18.778  0.00  0.00    +0.000 A 
ATOM     15  C   UNL     1      10.533  11.446  18.470  0.00  0.00    +0.000 A 
ATOM     16  C   UNL     1       9.826  10.744  19.448  0.00  0.00    +0.000 A 
ATOM     17  C   UNL     1       9.557  11.340  20.721  0.00  0.00    +0.000 A 
ATOM     18  C   UNL     1       9.868  12.686  20.981  0.00  0.00    +0.000 A 
ATOM     19  C   UNL     1      10.442  13.344  19.937  0.00  0.00    +0.000 A 
ENDBRANCH   7  16
ENDBRANCH   1   8
BRANCH   5  20
ATOM     20  C   UNL     1       5.317   5.529  16.422  0.00  0.00    +0.000 C 
ATOM     21  C   UNL     1       4.994   6.631  15.403  0.00  0.00    +0.000 C 
BRANCH  20  22
ATOM     22  S   UNL     1       5.767   4.018  15.482  0.00  0.00    +0.000 S 
BRANCH  22  23
ATOM     23  C   UNL     1       6.825   4.619  14.258  0.00  0.00    +0.000 A 
ATOM     24  N   UNL     1       7.820   5.461  14.410  0.00  0.00    +0.000 NA
ATOM     25  N   UNL     1       8.350   5.719  13.166  0.00  0.00    +0.000 NA
ATOM     26  C   UNL     1       7.677   5.004  12.294  0.00  0.00    +0.000 A 
ATOM     27  N   UNL     1       6.722   4.276  12.939  0.00  0.00    +0.000 N 
ATOM     28  C   UNL     1       5.831   3.335  12.316  0.00  0.00    +0.000 C 
ENDBRANCH  22  23
ENDBRANCH  20  22
ENDBRANCH   5  20
TORSDOF 5
ENDMDL
MODEL 3
REMARK VINA RESULT:      -8.7      5.706      7.859
REMARK  Name = 
REMARK  8 active torsions:
REMARK  status: ('A' for Active; 'I' for Inactive)
REMARK    1  A    between atoms: C_1  and  C_2
REMARK    2  A    between atoms: C_6  and  N_7
REMARK    3  A    between atoms: C_8  and  C_10
REMARK    4  A    between atoms: C_14  and  C_15
REMARK    5  A    between atoms: C_15  and  C_16
REMARK    6  A    between atoms: C_15  and  S_17
REMARK    7  A    between atoms: S_17  and  C_18
REMARK    8  A    between atoms: N_22  and  C_23
REMARK                            x       y       z     vdW  Elec       q    Type
REMARK                         _______ _______ _______ _____ _____    ______ ____
ROOT
ATOM      1  C   UNL     1       7.795   7.637  18.084  0.00  0.00    +0.000 A 
ATOM      2  C   UNL     1       8.329   6.704  18.983  0.00  0.00    +0.000 A 
ATOM      3  C   UNL     1       7.946   5.370  18.907  0.00  0.00    +0.000 A 
ATOM      4  C   UNL     1       7.032   4.962  17.935  0.00  0.00    +0.000 A 
ATOM      5  C   UNL     1       6.480   5.886  17.031  0.00  0.00    +0.000 A 
ATOM      6  C   UNL     1       6.858   7.231  17.130  0.00  0.00    +0.000 A 
ENDROOT
BRANCH   1   8
ATOM      7  N   UNL     1       9.183   9.320  19.149  0.00  0.00    +0.000 N 
ATOM      8  C   UNL     1       8.214   9.057  18.190  0.00  0.00    +0.000 C 
ATOM      9  O   UNL     1       7.658   9.871  17.464  0.00  0.00    +0.000 OA
ATOM     10  H   UNL     1       9.418   8.569  19.783  0.00  0.00    +0.000 HD
BRANCH   7  16
ATOM     11  C   UNL     1      10.397  15.803  20.020  0.00  0.00    +0.000 C 
ATOM     12  C   UNL     1      10.617  14.423  19.589  0.00  0.00    +0.000 C 
ATOM     13  N   UNL     1      11.091  13.880  18.508  0.00  0.00    +0.000 NA
ATOM     14  C   UNL     1      10.649  12.644  18.962  0.00  0.00    +0.000 A 
ATOM     15  C   UNL     1      10.422  11.366  18.572  0.00  0.00    +0.000 A 
ATOM     16  C   UNL     1       9.696  10.594  19.481  0.00  0.00    +0.000 A 
ATOM     17  C   UNL     1       9.362  11.112  20.773  0.00  0.00    +0.000 A 
ATOM     18  C   UNL     1       9.628  12.448  21.119  0.00  0.00    +0.000 A 
ATOM     19  C   UNL     1      10.224  13.177  20.136  0.00  0.00    +0.000 A 
ENDBRANCH   7  16
ENDBRANCH   1   8
BRANCH   5  20
ATOM     20  C   UNL     1       5.480   5.424  15.985  0.00  0.00    +0.000 C 
ATOM     21  C   UNL     1       6.223   4.892  14.751  0.00  0.00    +0.000 C 
BRANCH  20  22
ATOM     22  S   UNL     1       4.356   4.097  16.572  0.00  0.00    +0.000 S 
BRANCH  22  23
ATOM     23  C   UNL     1       3.585   4.815  17.939  0.00  0.00    +0.000 A 
ATOM     24  N   UNL     1       2.894   5.931  17.969  0.00  0.00    +0.000 NA
ATOM     25  N   UNL     1       2.519   6.161  19.273  0.00  0.00    +0.000 NA
ATOM     26  C   UNL     1       2.970   5.164  19.997  0.00  0.00    +0.000 A 
ATOM     27  N   UNL     1       3.626   4.277  19.195  0.00  0.00    +0.000 N 
ATOM     28  C   UNL     1       4.205   3.034  19.629  0.00  0.00    +0.000 C 
ENDBRANCH  22  23
ENDBRANCH  20  22
ENDBRANCH   5  20
TORSDOF 5
ENDMDL
MODEL 4
REMARK VINA RESULT:      -8.6      0.852      1.241
REMARK  Name = 
REMARK  8 active torsions:
REMARK  status: ('A' for Active; 'I' for Inactive)
REMARK    1  A    between atoms: C_1  and  C_2
REMARK    2  A    between atoms: C_6  and  N_7
REMARK    3  A    between atoms: C_8  and  C_10
REMARK    4  A    between atoms: C_14  and  C_15
REMARK    5  A    between atoms: C_15  and  C_16
REMARK    6  A    between atoms: C_15  and  S_17
REMARK    7  A    between atoms: S_17  and  C_18
REMARK    8  A    between atoms: N_22  and  C_23
REMARK                            x       y       z     vdW  Elec       q    Type
REMARK                         _______ _______ _______ _____ _____    ______ ____
ROOT
ATOM      1  C   UNL     1       2.852   6.455  19.047  0.00  0.00    +0.000 A 
ATOM      2  C   UNL     1       2.358   5.277  19.622  0.00  0.00    +0.000 A 
ATOM      3  C   UNL     1       2.972   4.060  19.348  0.00  0.00    +0.000 A 
ATOM      4  C   UNL     1       4.080   4.014  18.500  0.00  0.00    +0.000 A 
ATOM      5  C   UNL     1       4.583   5.185  17.908  0.00  0.00    +0.000 A 
ATOM      6  C   UNL     1       3.945   6.403  18.176  0.00  0.00    +0.000 A 
ENDROOT
BRANCH   1   8
ATOM      7  N   UNL     1       1.755   7.894  20.665  0.00  0.00    +0.000 N 
ATOM      8  C   UNL     1       2.176   7.741  19.351  0.00  0.00    +0.000 C 
ATOM      9  O   UNL     1       2.015   8.532  18.429  0.00  0.00    +0.000 OA
ATOM     10  H   UNL     1       1.810   7.082  21.263  0.00  0.00    +0.000 HD
BRANCH   7  16
ATOM     11  C   UNL     1      -2.801  12.344  22.590  0.00  0.00    +0.000 C 
ATOM     12  C   UNL     1      -1.624  11.809  21.904  0.00  0.00    +0.000 C 
ATOM     13  N   UNL     1      -1.131  11.958  20.711  0.00  0.00    +0.000 NA
ATOM     14  C   UNL     1      -0.256  10.910  20.968  0.00  0.00    +0.000 A 
ATOM     15  C   UNL     1       0.607  10.050  20.374  0.00  0.00    +0.000 A 
ATOM     16  C   UNL     1       1.035   8.995  21.181  0.00  0.00    +0.000 A 
ATOM     17  C   UNL     1       0.676   8.945  22.566  0.00  0.00    +0.000 A 
ATOM     18  C   UNL     1      -0.223   9.869  23.125  0.00  0.00    +0.000 A 
ATOM     19  C   UNL     1      -0.697  10.795  22.247  0.00  0.00    +0.000 A 
ENDBRANCH   7  16
ENDBRANCH   1   8
BRANCH   5  20
ATOM     20  C   UNL     1       5.785   5.114  16.982  0.00  0.00    +0.000 C 
ATOM     21  C   UNL     1       7.009   4.600  17.752  0.00  0.00    +0.000 C 
BRANCH  20  22
ATOM     22  S   UNL     1       5.538   4.014  15.533  0.00  0.00    +0.000 S 
BRANCH  22  23
ATOM     23  C   UNL     1       6.687   4.609  14.390  0.00  0.00    +0.000 A 
ATOM     24  N   UNL     1       7.655   5.468  14.609  0.00  0.00    +0.000 NA
ATOM     25  N   UNL     1       8.284   5.711  13.409  0.00  0.00    +0.000 NA
ATOM     26  C   UNL     1       7.696   4.972  12.497  0.00  0.00    +0.000 A 
ATOM     27  N   UNL     1       6.700   4.241  13.074  0.00  0.00    +0.000 N 
ATOM     28  C   UNL     1       5.877   3.276  12.396  0.00  0.00    +0.000 C 
ENDBRANCH  22  23
ENDBRANCH  20  22
ENDBRANCH   5  20
TORSDOF 5
ENDMDL
MODEL 5
REMARK VINA RESULT:      -8.6      2.227      3.277
REMARK  Name = 
REMARK  8 active torsions:
REMARK  status: ('A' for Active; 'I' for Inactive)
REMARK    1  A    between atoms: C_1  and  C_2
REMARK    2  A    between atoms: C_6  and  N_7
REMARK    3  A    between atoms: C_8  and  C_10
REMARK    4  A    between atoms: C_14  and  C_15
REMARK    5  A    between atoms: C_15  and  C_16
REMARK    6  A    between atoms: C_15  and  S_17
REMARK    7  A    between atoms: S_17  and  C_18
REMARK    8  A    between atoms: N_22  and  C_23
REMARK                            x       y       z     vdW  Elec       q    Type
REMARK                         _______ _______ _______ _____ _____    ______ ____
ROOT
ATOM      1  C   UNL     1       2.860   6.012  18.045  0.00  0.00    +0.000 A 
ATOM      2  C   UNL     1       1.957   4.959  18.243  0.00  0.00    +0.000 A 
ATOM      3  C   UNL     1       2.236   3.699  17.726  0.00  0.00    +0.000 A 
ATOM      4  C   UNL     1       3.416   3.485  17.012  0.00  0.00    +0.000 A 
ATOM      5  C   UNL     1       4.329   4.532  16.797  0.00  0.00    +0.000 A 
ATOM      6  C   UNL     1       4.027   5.802  17.306  0.00  0.00    +0.000 A 
ENDROOT
BRANCH   1   8
ATOM      7  N   UNL     1       1.778   7.340  19.765  0.00  0.00    +0.000 N 
ATOM      8  C   UNL     1       2.536   7.349  18.602  0.00  0.00    +0.000 C 
ATOM      9  O   UNL     1       2.924   8.333  17.984  0.00  0.00    +0.000 OA
ATOM     10  H   UNL     1       1.393   6.453  20.056  0.00  0.00    +0.000 HD
BRANCH   7  16
ATOM     11  C   UNL     1      -1.784  11.967  22.954  0.00  0.00    +0.000 C 
ATOM     12  C   UNL     1      -0.931  11.377  21.921  0.00  0.00    +0.000 C 
ATOM     13  N   UNL     1      -0.897  11.457  20.625  0.00  0.00    +0.000 NA
ATOM     14  C   UNL     1       0.011  10.407  20.607  0.00  0.00    +0.000 A 
ATOM     15  C   UNL     1       0.603   9.502  19.790  0.00  0.00    +0.000 A 
ATOM     16  C   UNL     1       1.291   8.479  20.445  0.00  0.00    +0.000 A 
ATOM     17  C   UNL     1       1.453   8.504  21.868  0.00  0.00    +0.000 A 
ATOM     18  C   UNL     1       0.814   9.473  22.661  0.00  0.00    +0.000 A 
ATOM     19  C   UNL     1       0.057  10.363  21.963  0.00  0.00    +0.000 A 
ENDBRANCH   7  16
ENDBRANCH   1   8
BRANCH   5  20
ATOM     20  C   UNL     1       5.604   4.282  16.011  0.00  0.00    +0.000 C 
ATOM     21  C   UNL     1       5.261   3.938  14.554  0.00  0.00    +0.000 C 
BRANCH  20  22
ATOM     22  S   UNL     1       6.752   5.714  15.988  0.00  0.00    +0.000 S 
BRANCH  22  23
ATOM     23  C   UNL     1       7.414   5.709  17.582  0.00  0.00    +0.000 A 
ATOM     24  N   UNL     1       7.583   4.673  18.371  0.00  0.00    +0.000 NA
ATOM     25  N   UNL     1       8.077   5.131  19.571  0.00  0.00    +0.000 NA
ATOM     26  C   UNL     1       8.221   6.432  19.469  0.00  0.00    +0.000 A 
ATOM     27  N   UNL     1       7.839   6.838  18.224  0.00  0.00    +0.000 N 
ATOM     28  C   UNL     1       7.912   8.187  17.731  0.00  0.00    +0.000 C 
ENDBRANCH  22  23
ENDBRANCH  20  22
ENDBRANCH   5  20
TORSDOF 5
ENDMDL
MODEL 6
REMARK VINA RESULT:      -8.5      1.435      1.728
REMARK  Name = 
REMARK  8 active torsions:
REMARK  status: ('A' for Active; 'I' for Inactive)
REMARK    1  A    between atoms: C_1  and  C_2
REMARK    2  A    between atoms: C_6  and  N_7
REMARK    3  A    between atoms: C_8  and  C_10
REMARK    4  A    between atoms: C_14  and  C_15
REMARK    5  A    between atoms: C_15  and  C_16
REMARK    6  A    between atoms: C_15  and  S_17
REMARK    7  A    between atoms: S_17  and  C_18
REMARK    8  A    between atoms: N_22  and  C_23
REMARK                            x       y       z     vdW  Elec       q    Type
REMARK                         _______ _______ _______ _____ _____    ______ ____
ROOT
ATOM      1  C   UNL     1       2.730   7.312  18.091  0.00  0.00    +0.000 A 
ATOM      2  C   UNL     1       2.084   6.123  18.458  0.00  0.00    +0.000 A 
ATOM      3  C   UNL     1       2.681   4.898  18.187  0.00  0.00    +0.000 A 
ATOM      4  C   UNL     1       3.922   4.852  17.550  0.00  0.00    +0.000 A 
ATOM      5  C   UNL     1       4.579   6.034  17.167  0.00  0.00    +0.000 A 
ATOM      6  C   UNL     1       3.959   7.263  17.428  0.00  0.00    +0.000 A 
ENDROOT
BRANCH   1   8
ATOM      7  N   UNL     1       1.371   8.659  19.584  0.00  0.00    +0.000 N 
ATOM      8  C   UNL     1       2.069   8.608  18.386  0.00  0.00    +0.000 C 
ATOM      9  O   UNL     1       2.162   9.498  17.549  0.00  0.00    +0.000 OA
ATOM     10  H   UNL     1       1.248   7.788  20.083  0.00  0.00    +0.000 HD
BRANCH   7  16
ATOM     11  C   UNL     1      -3.289  12.821  21.872  0.00  0.00    +0.000 C 
ATOM     12  C   UNL     1      -2.268  12.281  20.973  0.00  0.00    +0.000 C 
ATOM     13  N   UNL     1      -2.173  12.163  19.683  0.00  0.00    +0.000 NA
ATOM     14  C   UNL     1      -1.061  11.350  19.862  0.00  0.00    +0.000 A 
ATOM     15  C   UNL     1      -0.240  10.483  19.221  0.00  0.00    +0.000 A 
ATOM     16  C   UNL     1       0.610   9.753  20.054  0.00  0.00    +0.000 A 
ATOM     17  C   UNL     1       0.676  10.035  21.456  0.00  0.00    +0.000 A 
ATOM     18  C   UNL     1      -0.203  10.950  22.062  0.00  0.00    +0.000 A 
ATOM     19  C   UNL     1      -1.090  11.531  21.207  0.00  0.00    +0.000 A 
ENDBRANCH   7  16
ENDBRANCH   1   8
BRANCH   5  20
ATOM     20  C   UNL     1       5.925   5.965  16.468  0.00  0.00    +0.000 C 
ATOM     21  C   UNL     1       7.051   6.262  17.469  0.00  0.00    +0.000 C 
BRANCH  20  22
ATOM     22  S   UNL     1       6.278   4.333  15.703  0.00  0.00    +0.000 S 
BRANCH  22  23
ATOM     23  C   UNL     1       7.052   4.757  14.220  0.00  0.00    +0.000 A 
ATOM     24  N   UNL     1       8.071   5.569  14.057  0.00  0.00    +0.000 NA
ATOM     25  N   UNL     1       8.320   5.670  12.707  0.00  0.00    +0.000 NA
ATOM     26  C   UNL     1       7.461   4.894  12.087  0.00  0.00    +0.000 A 
ATOM     27  N   UNL     1       6.659   4.278  13.002  0.00  0.00    +0.000 N 
ATOM     28  C   UNL     1       5.638   3.313  12.696  0.00  0.00    +0.000 C 
ENDBRANCH  22  23
ENDBRANCH  20  22
ENDBRANCH   5  20
TORSDOF 5
ENDMDL
MODEL 7
REMARK VINA RESULT:      -8.4      2.535      4.175
REMARK  Name = 
REMARK  8 active torsions:
REMARK  status: ('A' for Active; 'I' for Inactive)
REMARK    1  A    between atoms: C_1  and  C_2
REMARK    2  A    between atoms: C_6  and  N_7
REMARK    3  A    between atoms: C_8  and  C_10
REMARK    4  A    between atoms: C_14  and  C_15
REMARK    5  A    between atoms: C_15  and  C_16
REMARK    6  A    between atoms: C_15  and  S_17
REMARK    7  A    between atoms: S_17  and  C_18
REMARK    8  A    between atoms: N_22  and  C_23
REMARK                            x       y       z     vdW  Elec       q    Type
REMARK                         _______ _______ _______ _____ _____    ______ ____
ROOT
ATOM      1  C   UNL     1       1.135   8.789  19.744  0.00  0.00    +0.000 A 
ATOM      2  C   UNL     1       1.486   9.353  18.510  0.00  0.00    +0.000 A 
ATOM      3  C   UNL     1       2.406   8.710  17.690  0.00  0.00    +0.000 A 
ATOM      4  C   UNL     1       2.976   7.502  18.096  0.00  0.00    +0.000 A 
ATOM      5  C   UNL     1       2.642   6.927  19.334  0.00  0.00    +0.000 A 
ATOM      6  C   UNL     1       1.729   7.594  20.161  0.00  0.00    +0.000 A 
ENDROOT
BRANCH   1   8
ATOM      7  N   UNL     1      -0.105  10.814  20.247  0.00  0.00    +0.000 N 
ATOM      8  C   UNL     1       0.155   9.498  20.604  0.00  0.00    +0.000 C 
ATOM      9  O   UNL     1      -0.308   8.890  21.561  0.00  0.00    +0.000 OA
ATOM     10  H   UNL     1       0.484  11.223  19.535  0.00  0.00    +0.000 HD
BRANCH   7  16
ATOM     11  C   UNL     1      -4.682  13.807  24.036  0.00  0.00    +0.000 C 
ATOM     12  C   UNL     1      -3.936  13.448  22.830  0.00  0.00    +0.000 C 
ATOM     13  N   UNL     1      -4.277  13.181  21.605  0.00  0.00    +0.000 NA
ATOM     14  C   UNL     1      -2.981  12.740  21.365  0.00  0.00    +0.000 A 
ATOM     15  C   UNL     1      -2.218  12.053  20.482  0.00  0.00    +0.000 A 
ATOM     16  C   UNL     1      -0.945  11.711  20.944  0.00  0.00    +0.000 A 
ATOM     17  C   UNL     1      -0.475  12.195  22.207  0.00  0.00    +0.000 A 
ATOM     18  C   UNL     1      -1.316  12.907  23.079  0.00  0.00    +0.000 A 
ATOM     19  C   UNL     1      -2.582  13.093  22.614  0.00  0.00    +0.000 A 
ENDBRANCH   7  16
ENDBRANCH   1   8
BRANCH   5  20
ATOM     20  C   UNL     1       3.279   5.617  19.762  0.00  0.00    +0.000 C 
ATOM     21  C   UNL     1       2.326   4.850  20.690  0.00  0.00    +0.000 C 
BRANCH  20  22
ATOM     22  S   UNL     1       3.703   4.508  18.362  0.00  0.00    +0.000 S 
BRANCH  22  23
ATOM     23  C   UNL     1       5.427   4.570  18.321  0.00  0.00    +0.000 A 
ATOM     24  N   UNL     1       6.240   4.785  19.330  0.00  0.00    +0.000 NA
ATOM     25  N   UNL     1       7.525   4.818  18.838  0.00  0.00    +0.000 NA
ATOM     26  C   UNL     1       7.460   4.596  17.546  0.00  0.00    +0.000 A 
ATOM     27  N   UNL     1       6.160   4.409  17.179  0.00  0.00    +0.000 N 
ATOM     28  C   UNL     1       5.708   4.087  15.852  0.00  0.00    +0.000 C 
ENDBRANCH  22  23
ENDBRANCH  20  22
ENDBRANCH   5  20
TORSDOF 5
ENDMDL
MODEL 8
REMARK VINA RESULT:      -8.3      1.633      1.761
REMARK  Name = 
REMARK  8 active torsions:
REMARK  status: ('A' for Active; 'I' for Inactive)
REMARK    1  A    between atoms: C_1  and  C_2
REMARK    2  A    between atoms: C_6  and  N_7
REMARK    3  A    between atoms: C_8  and  C_10
REMARK    4  A    between atoms: C_14  and  C_15
REMARK    5  A    between atoms: C_15  and  C_16
REMARK    6  A    between atoms: C_15  and  S_17
REMARK    7  A    between atoms: S_17  and  C_18
REMARK    8  A    between atoms: N_22  and  C_23
REMARK                            x       y       z     vdW  Elec       q    Type
REMARK                         _______ _______ _______ _____ _____    ______ ____
ROOT
ATOM      1  C   UNL     1       2.840   7.320  18.278  0.00  0.00    +0.000 A 
ATOM      2  C   UNL     1       2.248   6.380  19.132  0.00  0.00    +0.000 A 
ATOM      3  C   UNL     1       2.834   5.131  19.301  0.00  0.00    +0.000 A 
ATOM      4  C   UNL     1       4.012   4.816  18.622  0.00  0.00    +0.000 A 
ATOM      5  C   UNL     1       4.614   5.745  17.755  0.00  0.00    +0.000 A 
ATOM      6  C   UNL     1       4.004   6.993  17.577  0.00  0.00    +0.000 A 
ENDROOT
BRANCH   1   8
ATOM      7  N   UNL     1       1.408   9.062  19.176  0.00  0.00    +0.000 N 
ATOM      8  C   UNL     1       2.192   8.645  18.109  0.00  0.00    +0.000 C 
ATOM      9  O   UNL     1       2.368   9.235  17.050  0.00  0.00    +0.000 OA
ATOM     10  H   UNL     1       1.227   8.387  19.906  0.00  0.00    +0.000 HD
BRANCH   7  16
ATOM     11  C   UNL     1      -2.016  14.511  20.866  0.00  0.00    +0.000 C 
ATOM     12  C   UNL     1      -1.748  13.201  20.271  0.00  0.00    +0.000 C 
ATOM     13  N   UNL     1      -2.418  12.091  20.192  0.00  0.00    +0.000 NA
ATOM     14  C   UNL     1      -1.273  11.459  19.726  0.00  0.00    +0.000 A 
ATOM     15  C   UNL     1      -0.729  10.240  19.489  0.00  0.00    +0.000 A 
ATOM     16  C   UNL     1       0.642  10.249  19.227  0.00  0.00    +0.000 A 
ATOM     17  C   UNL     1       1.350  11.485  19.087  0.00  0.00    +0.000 A 
ATOM     18  C   UNL     1       0.727  12.719  19.343  0.00  0.00    +0.000 A 
ATOM     19  C   UNL     1      -0.578  12.626  19.717  0.00  0.00    +0.000 A 
ENDBRANCH   7  16
ENDBRANCH   1   8
BRANCH   5  20
ATOM     20  C   UNL     1       5.892   5.381  17.018  0.00  0.00    +0.000 C 
ATOM     21  C   UNL     1       6.909   4.781  17.999  0.00  0.00    +0.000 C 
BRANCH  20  22
ATOM     22  S   UNL     1       5.644   4.166  15.663  0.00  0.00    +0.000 S 
BRANCH  22  23
ATOM     23  C   UNL     1       6.751   4.700  14.453  0.00  0.00    +0.000 A 
ATOM     24  N   UNL     1       7.756   5.532  14.603  0.00  0.00    +0.000 NA
ATOM     25  N   UNL     1       8.330   5.730  13.368  0.00  0.00    +0.000 NA
ATOM     26  C   UNL     1       7.674   4.992  12.504  0.00  0.00    +0.000 A 
ATOM     27  N   UNL     1       6.686   4.306  13.146  0.00  0.00    +0.000 N 
ATOM     28  C   UNL     1       5.799   3.355  12.531  0.00  0.00    +0.000 C 
ENDBRANCH  22  23
ENDBRANCH  20  22
ENDBRANCH   5  20
TORSDOF 5
ENDMDL
MODEL 9
REMARK VINA RESULT:      -8.3      2.378      4.082
REMARK  Name = 
REMARK  8 active torsions:
REMARK  status: ('A' for Active; 'I' for Inactive)
REMARK    1  A    between atoms: C_1  and  C_2
REMARK    2  A    between atoms: C_6  and  N_7
REMARK    3  A    between atoms: C_8  and  C_10
REMARK    4  A    between atoms: C_14  and  C_15
REMARK    5  A    between atoms: C_15  and  C_16
REMARK    6  A    between atoms: C_15  and  S_17
REMARK    7  A    between atoms: S_17  and  C_18
REMARK    8  A    between atoms: N_22  and  C_23
REMARK                            x       y       z     vdW  Elec       q    Type
REMARK                         _______ _______ _______ _____ _____    ______ ____
ROOT
ATOM      1  C   UNL     1       1.503   8.630  20.206  0.00  0.00    +0.000 A 
ATOM      2  C   UNL     1       1.504   9.160  18.909  0.00  0.00    +0.000 A 
ATOM      3  C   UNL     1       2.008   8.409  17.853  0.00  0.00    +0.000 A 
ATOM      4  C   UNL     1       2.509   7.127  18.087  0.00  0.00    +0.000 A 
ATOM      5  C   UNL     1       2.524   6.584  19.383  0.00  0.00    +0.000 A 
ATOM      6  C   UNL     1       2.032   7.358  20.442  0.00  0.00    +0.000 A 
ENDROOT
BRANCH   1   8
ATOM      7  N   UNL     1       0.229  10.565  20.930  0.00  0.00    +0.000 N 
ATOM      8  C   UNL     1       0.966   9.454  21.318  0.00  0.00    +0.000 C 
ATOM      9  O   UNL     1       1.240   9.115  22.462  0.00  0.00    +0.000 OA
ATOM     10  H   UNL     1       0.236  10.802  19.948  0.00  0.00    +0.000 HD
BRANCH   7  16
ATOM     11  C   UNL     1      -3.236  15.438  23.849  0.00  0.00    +0.000 C 
ATOM     12  C   UNL     1      -2.072  14.705  23.350  0.00  0.00    +0.000 C 
ATOM     13  N   UNL     1      -0.986  15.053  22.727  0.00  0.00    +0.000 NA
ATOM     14  C   UNL     1      -0.717  13.711  22.494  0.00  0.00    +0.000 A 
ATOM     15  C   UNL     1       0.061  12.873  21.766  0.00  0.00    +0.000 A 
ATOM     16  C   UNL     1      -0.328  11.533  21.797  0.00  0.00    +0.000 A 
ATOM     17  C   UNL     1      -1.386  11.101  22.659  0.00  0.00    +0.000 A 
ATOM     18  C   UNL     1      -2.156  12.020  23.392  0.00  0.00    +0.000 A 
ATOM     19  C   UNL     1      -1.800  13.322  23.215  0.00  0.00    +0.000 A 
ENDBRANCH   7  16
ENDBRANCH   1   8
BRANCH   5  20
ATOM     20  C   UNL     1       3.081   5.191  19.618  0.00  0.00    +0.000 C 
ATOM     21  C   UNL     1       2.060   4.342  20.389  0.00  0.00    +0.000 C 
BRANCH  20  22
ATOM     22  S   UNL     1       3.499   4.291  18.074  0.00  0.00    +0.000 S 
BRANCH  22  23
ATOM     23  C   UNL     1       5.221   4.393  18.016  0.00  0.00    +0.000 A 
ATOM     24  N   UNL     1       6.051   4.429  19.033  0.00  0.00    +0.000 NA
ATOM     25  N   UNL     1       7.325   4.579  18.533  0.00  0.00    +0.000 NA
ATOM     26  C   UNL     1       7.236   4.603  17.224  0.00  0.00    +0.000 A 
ATOM     27  N   UNL     1       5.932   4.463  16.851  0.00  0.00    +0.000 N 
ATOM     28  C   UNL     1       5.458   4.388  15.496  0.00  0.00    +0.000 C 
ENDBRANCH  22  23
ENDBRANCH  20  22
ENDBRANCH   5  20
TORSDOF 5
ENDMDL
