MODEL 1
REMARK VINA RESULT:      -9.2      0.000      0.000
REMARK  Name = 
REMARK  3 active torsions:
REMARK  status: ('A' for Active; 'I' for Inactive)
REMARK    1  A    between atoms: C_1  and  C_2
REMARK    2  A    between atoms: C_6  and  C_8
REMARK    3  A    between atoms: C_20  and  C_21
REMARK                            x       y       z     vdW  Elec       q    Type
REMARK                         _______ _______ _______ _____ _____    ______ ____
ROOT
ATOM      1  C   UNL     1       3.973   2.843  19.360  0.00  0.00    +0.000 C 
ATOM      2  C   UNL     1       3.566   4.277  19.346  0.00  0.00    +0.000 A 
ATOM      3  S   UNL     1       2.494   4.880  20.564  0.00  0.00    +0.000 S 
ATOM      4  C   UNL     1       2.561   6.424  19.849  0.00  0.00    +0.000 A 
ATOM      5  N   UNL     1       1.776   7.386  20.428  0.00  0.00    +0.000 N 
ATOM      6  C   UNL     1       1.515   8.564  19.774  0.00  0.00    +0.000 C 
ATOM      7  O   UNL     1       1.919   8.858  18.648  0.00  0.00    +0.000 OA
ATOM      8  N   UNL     1       3.347   6.539  18.814  0.00  0.00    +0.000 NA
ATOM      9  C   UNL     1       3.937   5.321  18.508  0.00  0.00    +0.000 A 
ATOM     10  H   UNL     1       1.343   7.179  21.324  0.00  0.00    +0.000 HD
ENDROOT
BRANCH   6  11
ATOM     11  C   UNL     1       0.626   9.533  20.496  0.00  0.00    +0.000 A 
ATOM     12  C   UNL     1      -0.265  10.208  19.744  0.00  0.00    +0.000 A 
ATOM     13  C   UNL     1      -1.166  11.198  20.327  0.00  0.00    +0.000 A 
ATOM     14  C   UNL     1      -2.099  11.883  19.543  0.00  0.00    +0.000 A 
ATOM     15  C   UNL     1      -2.939  12.833  20.132  0.00  0.00    +0.000 A 
ATOM     16  C   UNL     1      -2.844  13.097  21.497  0.00  0.00    +0.000 A 
ATOM     17  C   UNL     1      -1.915  12.413  22.286  0.00  0.00    +0.000 A 
ATOM     18  C   UNL     1      -1.081  11.463  21.697  0.00  0.00    +0.000 A 
ATOM     19  N   UNL     1      -0.153  10.752  22.473  0.00  0.00    +0.000 N 
ATOM     20  C   UNL     1       0.680   9.786  21.962  0.00  0.00    +0.000 A 
ATOM     21  O   UNL     1       1.439   9.146  22.693  0.00  0.00    +0.000 OA
ATOM     22  H   UNL     1      -0.093  10.920  23.467  0.00  0.00    +0.000 HD
ENDBRANCH   6  11
BRANCH   9  23
ATOM     23  C   UNL     1       4.889   5.249  17.399  0.00  0.00    +0.000 A 
ATOM     24  C   UNL     1       6.214   5.718  17.509  0.00  0.00    +0.000 A 
ATOM     25  C   UNL     1       7.110   5.653  16.440  0.00  0.00    +0.000 A 
ATOM     26  C   UNL     1       6.683   5.066  15.268  0.00  0.00    +0.000 A 
ATOM     27  C   UNL     1       5.383   4.571  15.141  0.00  0.00    +0.000 A 
ATOM     28  C   UNL     1       4.478   4.663  16.189  0.00  0.00    +0.000 A 
ATOM     29  C   UNL     1       5.164   4.006  13.774  0.00  0.00    +0.000 C 
ATOM     30  C   UNL     1       6.613   3.792  13.311  0.00  0.00    +0.000 C 
ATOM     31  C   UNL     1       7.458   4.870  14.004  0.00  0.00    +0.000 C 
ENDBRANCH   9  23
TORSDOF 2
ENDMDL
MODEL 2
REMARK VINA RESULT:      -9.1      1.232      1.296
REMARK  Name = 
REMARK  3 active torsions:
REMARK  status: ('A' for Active; 'I' for Inactive)
REMARK    1  A    between atoms: C_1  and  C_2
REMARK    2  A    between atoms: C_6  and  C_8
REMARK    3  A    between atoms: C_20  and  C_21
REMARK                            x       y       z     vdW  Elec       q    Type
REMARK                         _______ _______ _______ _____ _____    ______ ____
ROOT
ATOM      1  C   UNL     1       3.926   2.669  19.087  0.00  0.00    +0.000 C 
ATOM      2  C   UNL     1       3.569   4.114  19.170  0.00  0.00    +0.000 A 
ATOM      3  S   UNL     1       2.545   4.677  20.447  0.00  0.00    +0.000 S 
ATOM      4  C   UNL     1       2.650   6.258  19.825  0.00  0.00    +0.000 A 
ATOM      5  N   UNL     1       1.912   7.208  20.481  0.00  0.00    +0.000 N 
ATOM      6  C   UNL     1       1.679   8.433  19.905  0.00  0.00    +0.000 C 
ATOM      7  O   UNL     1       2.068   8.782  18.790  0.00  0.00    +0.000 OA
ATOM      8  N   UNL     1       3.418   6.410  18.781  0.00  0.00    +0.000 NA
ATOM      9  C   UNL     1       3.957   5.194  18.388  0.00  0.00    +0.000 A 
ATOM     10  H   UNL     1       1.492   6.961  21.373  0.00  0.00    +0.000 HD
ENDROOT
BRANCH   6  11
ATOM     11  C   UNL     1       0.841   9.385  20.706  0.00  0.00    +0.000 A 
ATOM     12  C   UNL     1       1.124  10.696  20.572  0.00  0.00    +0.000 A 
ATOM     13  C   UNL     1       0.395  11.717  21.319  0.00  0.00    +0.000 A 
ATOM     14  C   UNL     1       0.683  13.076  21.162  0.00  0.00    +0.000 A 
ATOM     15  C   UNL     1      -0.025  14.028  21.902  0.00  0.00    +0.000 A 
ATOM     16  C   UNL     1      -1.016  13.620  22.795  0.00  0.00    +0.000 A 
ATOM     17  C   UNL     1      -1.310  12.263  22.952  0.00  0.00    +0.000 A 
ATOM     18  C   UNL     1      -0.604  11.316  22.211  0.00  0.00    +0.000 A 
ATOM     19  N   UNL     1      -0.895   9.950  22.340  0.00  0.00    +0.000 N 
ATOM     20  C   UNL     1      -0.256   8.968  21.621  0.00  0.00    +0.000 A 
ATOM     21  O   UNL     1      -0.586   7.785  21.727  0.00  0.00    +0.000 OA
ATOM     22  H   UNL     1      -1.626   9.647  22.967  0.00  0.00    +0.000 HD
ENDBRANCH   6  11
BRANCH   9  23
ATOM     23  C   UNL     1       4.882   5.158  17.254  0.00  0.00    +0.000 A 
ATOM     24  C   UNL     1       6.197   5.661  17.335  0.00  0.00    +0.000 A 
ATOM     25  C   UNL     1       7.067   5.630  16.243  0.00  0.00    +0.000 A 
ATOM     26  C   UNL     1       6.624   5.044  15.076  0.00  0.00    +0.000 A 
ATOM     27  C   UNL     1       5.335   4.517  14.977  0.00  0.00    +0.000 A 
ATOM     28  C   UNL     1       4.455   4.575  16.049  0.00  0.00    +0.000 A 
ATOM     29  C   UNL     1       5.095   3.960  13.609  0.00  0.00    +0.000 C 
ATOM     30  C   UNL     1       6.537   3.789  13.107  0.00  0.00    +0.000 C 
ATOM     31  C   UNL     1       7.371   4.882  13.790  0.00  0.00    +0.000 C 
ENDBRANCH   9  23
TORSDOF 2
ENDMDL
MODEL 3
REMARK VINA RESULT:      -8.9      2.880      3.548
REMARK  Name = 
REMARK  3 active torsions:
REMARK  status: ('A' for Active; 'I' for Inactive)
REMARK    1  A    between atoms: C_1  and  C_2
REMARK    2  A    between atoms: C_6  and  C_8
REMARK    3  A    between atoms: C_20  and  C_21
REMARK                            x       y       z     vdW  Elec       q    Type
REMARK                         _______ _______ _______ _____ _____    ______ ____
ROOT
ATOM      1  C   UNL     1       1.991   4.828  20.932  0.00  0.00    +0.000 C 
ATOM      2  C   UNL     1       1.998   6.155  20.254  0.00  0.00    +0.000 A 
ATOM      3  S   UNL     1       1.199   7.503  20.989  0.00  0.00    +0.000 S 
ATOM      4  C   UNL     1       1.655   8.482  19.673  0.00  0.00    +0.000 A 
ATOM      5  N   UNL     1       1.199   9.774  19.702  0.00  0.00    +0.000 N 
ATOM      6  C   UNL     1       1.242  10.557  18.575  0.00  0.00    +0.000 C 
ATOM      7  O   UNL     1       1.652  10.196  17.472  0.00  0.00    +0.000 OA
ATOM      8  N   UNL     1       2.388   7.905  18.760  0.00  0.00    +0.000 NA
ATOM      9  C   UNL     1       2.599   6.571  19.072  0.00  0.00    +0.000 A 
ATOM     10  H   UNL     1       0.772  10.115  20.560  0.00  0.00    +0.000 HD
ENDROOT
BRANCH   6  11
ATOM     11  C   UNL     1       0.696  11.947  18.721  0.00  0.00    +0.000 A 
ATOM     12  C   UNL     1       1.577  12.957  18.589  0.00  0.00    +0.000 A 
ATOM     13  C   UNL     1       1.171  14.353  18.735  0.00  0.00    +0.000 A 
ATOM     14  C   UNL     1       2.087  15.396  18.581  0.00  0.00    +0.000 A 
ATOM     15  C   UNL     1       1.668  16.721  18.740  0.00  0.00    +0.000 A 
ATOM     16  C   UNL     1       0.339  16.997  19.054  0.00  0.00    +0.000 A 
ATOM     17  C   UNL     1      -0.583  15.958  19.206  0.00  0.00    +0.000 A 
ATOM     18  C   UNL     1      -0.163  14.638  19.044  0.00  0.00    +0.000 A 
ATOM     19  N   UNL     1      -1.074  13.579  19.175  0.00  0.00    +0.000 N 
ATOM     20  C   UNL     1      -0.732  12.260  19.002  0.00  0.00    +0.000 A 
ATOM     21  O   UNL     1      -1.580  11.368  19.071  0.00  0.00    +0.000 OA
ATOM     22  H   UNL     1      -2.044  13.772  19.380  0.00  0.00    +0.000 HD
ENDBRANCH   6  11
BRANCH   9  23
ATOM     23  C   UNL     1       3.435   5.756  18.189  0.00  0.00    +0.000 A 
ATOM     24  C   UNL     1       3.017   4.500  17.701  0.00  0.00    +0.000 A 
ATOM     25  C   UNL     1       3.828   3.728  16.867  0.00  0.00    +0.000 A 
ATOM     26  C   UNL     1       5.047   4.246  16.483  0.00  0.00    +0.000 A 
ATOM     27  C   UNL     1       5.473   5.497  16.932  0.00  0.00    +0.000 A 
ATOM     28  C   UNL     1       4.686   6.255  17.788  0.00  0.00    +0.000 A 
ATOM     29  C   UNL     1       6.830   5.819  16.392  0.00  0.00    +0.000 C 
ATOM     30  C   UNL     1       6.911   4.843  15.208  0.00  0.00    +0.000 C 
ATOM     31  C   UNL     1       6.071   3.617  15.593  0.00  0.00    +0.000 C 
ENDBRANCH   9  23
TORSDOF 2
ENDMDL
MODEL 4
REMARK VINA RESULT:      -8.9      1.740      2.262
REMARK  Name = 
REMARK  3 active torsions:
REMARK  status: ('A' for Active; 'I' for Inactive)
REMARK    1  A    between atoms: C_1  and  C_2
REMARK    2  A    between atoms: C_6  and  C_8
REMARK    3  A    between atoms: C_20  and  C_21
REMARK                            x       y       z     vdW  Elec       q    Type
REMARK                         _______ _______ _______ _____ _____    ______ ____
ROOT
ATOM      1  C   UNL     1       4.029   2.391  17.912  0.00  0.00    +0.000 C 
ATOM      2  C   UNL     1       3.789   3.862  17.943  0.00  0.00    +0.000 A 
ATOM      3  S   UNL     1       2.857   4.555  19.226  0.00  0.00    +0.000 S 
ATOM      4  C   UNL     1       3.063   6.097  18.533  0.00  0.00    +0.000 A 
ATOM      5  N   UNL     1       2.424   7.128  19.170  0.00  0.00    +0.000 N 
ATOM      6  C   UNL     1       2.267   8.343  18.549  0.00  0.00    +0.000 C 
ATOM      7  O   UNL     1       2.642   8.614  17.407  0.00  0.00    +0.000 OA
ATOM      8  N   UNL     1       3.803   6.144  17.459  0.00  0.00    +0.000 NA
ATOM      9  C   UNL     1       4.232   4.875  17.102  0.00  0.00    +0.000 A 
ATOM     10  H   UNL     1       2.018   6.952  20.084  0.00  0.00    +0.000 HD
ENDROOT
BRANCH   6  11
ATOM     11  C   UNL     1       1.534   9.391  19.333  0.00  0.00    +0.000 A 
ATOM     12  C   UNL     1       0.954   8.987  20.481  0.00  0.00    +0.000 A 
ATOM     13  C   UNL     1       0.190   9.908  21.318  0.00  0.00    +0.000 A 
ATOM     14  C   UNL     1      -0.396   9.487  22.515  0.00  0.00    +0.000 A 
ATOM     15  C   UNL     1      -1.131  10.391  23.287  0.00  0.00    +0.000 A 
ATOM     16  C   UNL     1      -1.281  11.710  22.861  0.00  0.00    +0.000 A 
ATOM     17  C   UNL     1      -0.695  12.138  21.666  0.00  0.00    +0.000 A 
ATOM     18  C   UNL     1       0.041  11.234  20.900  0.00  0.00    +0.000 A 
ATOM     19  N   UNL     1       0.652  11.646  19.706  0.00  0.00    +0.000 N 
ATOM     20  C   UNL     1       1.411  10.815  18.918  0.00  0.00    +0.000 A 
ATOM     21  O   UNL     1       1.977  11.237  17.907  0.00  0.00    +0.000 OA
ATOM     22  H   UNL     1       0.568  12.605  19.401  0.00  0.00    +0.000 HD
ENDBRANCH   6  11
BRANCH   9  23
ATOM     23  C   UNL     1       5.110   4.719  15.942  0.00  0.00    +0.000 A 
ATOM     24  C   UNL     1       6.474   5.079  15.973  0.00  0.00    +0.000 A 
ATOM     25  C   UNL     1       7.299   4.935  14.856  0.00  0.00    +0.000 A 
ATOM     26  C   UNL     1       6.759   4.380  13.716  0.00  0.00    +0.000 A 
ATOM     27  C   UNL     1       5.419   3.993  13.666  0.00  0.00    +0.000 A 
ATOM     28  C   UNL     1       4.585   4.164  14.763  0.00  0.00    +0.000 A 
ATOM     29  C   UNL     1       5.076   3.442  12.319  0.00  0.00    +0.000 C 
ATOM     30  C   UNL     1       6.475   3.107  11.777  0.00  0.00    +0.000 C 
ATOM     31  C   UNL     1       7.443   4.115  12.412  0.00  0.00    +0.000 C 
ENDBRANCH   9  23
TORSDOF 2
ENDMDL
MODEL 5
REMARK VINA RESULT:      -8.8      1.344      1.514
REMARK  Name = 
REMARK  3 active torsions:
REMARK  status: ('A' for Active; 'I' for Inactive)
REMARK    1  A    between atoms: C_1  and  C_2
REMARK    2  A    between atoms: C_6  and  C_8
REMARK    3  A    between atoms: C_20  and  C_21
REMARK                            x       y       z     vdW  Elec       q    Type
REMARK                         _______ _______ _______ _____ _____    ______ ____
ROOT
ATOM      1  C   UNL     1       4.717   2.884  18.714  0.00  0.00    +0.000 C 
ATOM      2  C   UNL     1       4.230   4.283  18.545  0.00  0.00    +0.000 A 
ATOM      3  S   UNL     1       3.282   5.022  19.790  0.00  0.00    +0.000 S 
ATOM      4  C   UNL     1       3.173   6.441  18.856  0.00  0.00    +0.000 A 
ATOM      5  N   UNL     1       2.411   7.449  19.386  0.00  0.00    +0.000 N 
ATOM      6  C   UNL     1       2.006   8.504  18.606  0.00  0.00    +0.000 C 
ATOM      7  O   UNL     1       2.251   8.639  17.406  0.00  0.00    +0.000 OA
ATOM      8  N   UNL     1       3.819   6.428  17.722  0.00  0.00    +0.000 NA
ATOM      9  C   UNL     1       4.435   5.201  17.523  0.00  0.00    +0.000 A 
ATOM     10  H   UNL     1       2.103   7.363  20.351  0.00  0.00    +0.000 HD
ENDROOT
BRANCH   6  11
ATOM     11  C   UNL     1       1.158   9.536  19.288  0.00  0.00    +0.000 A 
ATOM     12  C   UNL     1       1.021  10.717  18.654  0.00  0.00    +0.000 A 
ATOM     13  C   UNL     1       0.242  11.810  19.230  0.00  0.00    +0.000 A 
ATOM     14  C   UNL     1       0.091  13.027  18.559  0.00  0.00    +0.000 A 
ATOM     15  C   UNL     1      -0.651  14.058  19.145  0.00  0.00    +0.000 A 
ATOM     16  C   UNL     1      -1.237  13.870  20.396  0.00  0.00    +0.000 A 
ATOM     17  C   UNL     1      -1.092  12.655  21.069  0.00  0.00    +0.000 A 
ATOM     18  C   UNL     1      -0.354  11.627  20.482  0.00  0.00    +0.000 A 
ATOM     19  N   UNL     1      -0.209  10.392  21.132  0.00  0.00    +0.000 N 
ATOM     20  C   UNL     1       0.481   9.331  20.598  0.00  0.00    +0.000 A 
ATOM     21  O   UNL     1       0.533   8.246  21.181  0.00  0.00    +0.000 OA
ATOM     22  H   UNL     1      -0.649  10.240  22.028  0.00  0.00    +0.000 HD
ENDBRANCH   6  11
BRANCH   9  23
ATOM     23  C   UNL     1       5.247   4.998  16.322  0.00  0.00    +0.000 A 
ATOM     24  C   UNL     1       6.612   5.349  16.265  0.00  0.00    +0.000 A 
ATOM     25  C   UNL     1       7.373   5.159  15.109  0.00  0.00    +0.000 A 
ATOM     26  C   UNL     1       6.768   4.567  14.022  0.00  0.00    +0.000 A 
ATOM     27  C   UNL     1       5.425   4.187  14.061  0.00  0.00    +0.000 A 
ATOM     28  C   UNL     1       4.654   4.403  15.195  0.00  0.00    +0.000 A 
ATOM     29  C   UNL     1       5.006   3.589  12.756  0.00  0.00    +0.000 C 
ATOM     30  C   UNL     1       6.370   3.226  12.150  0.00  0.00    +0.000 C 
ATOM     31  C   UNL     1       7.377   4.250  12.693  0.00  0.00    +0.000 C 
ENDBRANCH   9  23
TORSDOF 2
ENDMDL
MODEL 6
REMARK VINA RESULT:      -8.3      3.302     10.648
REMARK  Name = 
REMARK  3 active torsions:
REMARK  status: ('A' for Active; 'I' for Inactive)
REMARK    1  A    between atoms: C_1  and  C_2
REMARK    2  A    between atoms: C_6  and  C_8
REMARK    3  A    between atoms: C_20  and  C_21
REMARK                            x       y       z     vdW  Elec       q    Type
REMARK                         _______ _______ _______ _____ _____    ______ ____
ROOT
ATOM      1  C   UNL     1      -0.411  14.360  19.183  0.00  0.00    +0.000 C 
ATOM      2  C   UNL     1      -0.067  13.008  19.707  0.00  0.00    +0.000 A 
ATOM      3  S   UNL     1       0.909  11.939  18.758  0.00  0.00    +0.000 S 
ATOM      4  C   UNL     1       0.800  10.762  19.983  0.00  0.00    +0.000 A 
ATOM      5  N   UNL     1       1.408   9.564  19.717  0.00  0.00    +0.000 N 
ATOM      6  C   UNL     1       1.135   8.456  20.481  0.00  0.00    +0.000 C 
ATOM      7  O   UNL     1       0.342   8.417  21.422  0.00  0.00    +0.000 OA
ATOM      8  N   UNL     1       0.142  11.114  21.053  0.00  0.00    +0.000 NA
ATOM      9  C   UNL     1      -0.364  12.398  20.919  0.00  0.00    +0.000 A 
ATOM     10  H   UNL     1       2.015   9.502  18.904  0.00  0.00    +0.000 HD
ENDROOT
BRANCH   6  11
ATOM     11  C   UNL     1       1.843   7.194  20.083  0.00  0.00    +0.000 A 
ATOM     12  C   UNL     1       1.670   6.127  20.888  0.00  0.00    +0.000 A 
ATOM     13  C   UNL     1       2.328   4.851  20.620  0.00  0.00    +0.000 A 
ATOM     14  C   UNL     1       2.131   3.744  21.450  0.00  0.00    +0.000 A 
ATOM     15  C   UNL     1       2.785   2.540  21.173  0.00  0.00    +0.000 A 
ATOM     16  C   UNL     1       3.634   2.447  20.071  0.00  0.00    +0.000 A 
ATOM     17  C   UNL     1       3.832   3.550  19.236  0.00  0.00    +0.000 A 
ATOM     18  C   UNL     1       3.176   4.749  19.513  0.00  0.00    +0.000 A 
ATOM     19  N   UNL     1       3.346   5.863  18.679  0.00  0.00    +0.000 N 
ATOM     20  C   UNL     1       2.709   7.064  18.879  0.00  0.00    +0.000 A 
ATOM     21  O   UNL     1       2.846   7.998  18.086  0.00  0.00    +0.000 OA
ATOM     22  H   UNL     1       3.941   5.798  17.865  0.00  0.00    +0.000 HD
ENDBRANCH   6  11
BRANCH   9  23
ATOM     23  C   UNL     1      -1.103  12.993  22.033  0.00  0.00    +0.000 A 
ATOM     24  C   UNL     1      -2.332  12.473  22.489  0.00  0.00    +0.000 A 
ATOM     25  C   UNL     1      -3.032  13.056  23.547  0.00  0.00    +0.000 A 
ATOM     26  C   UNL     1      -2.467  14.141  24.182  0.00  0.00    +0.000 A 
ATOM     27  C   UNL     1      -1.239  14.661  23.766  0.00  0.00    +0.000 A 
ATOM     28  C   UNL     1      -0.554  14.106  22.694  0.00  0.00    +0.000 A 
ATOM     29  C   UNL     1      -0.856  15.843  24.599  0.00  0.00    +0.000 C 
ATOM     30  C   UNL     1      -1.751  15.634  25.830  0.00  0.00    +0.000 C 
ATOM     31  C   UNL     1      -3.016  14.917  25.336  0.00  0.00    +0.000 C 
ENDBRANCH   9  23
TORSDOF 2
ENDMDL
MODEL 7
REMARK VINA RESULT:      -8.1      2.767     10.009
REMARK  Name = 
REMARK  3 active torsions:
REMARK  status: ('A' for Active; 'I' for Inactive)
REMARK    1  A    between atoms: C_1  and  C_2
REMARK    2  A    between atoms: C_6  and  C_8
REMARK    3  A    between atoms: C_20  and  C_21
REMARK                            x       y       z     vdW  Elec       q    Type
REMARK                         _______ _______ _______ _____ _____    ______ ____
ROOT
ATOM      1  C   UNL     1      -0.271  14.096  18.683  0.00  0.00    +0.000 C 
ATOM      2  C   UNL     1       0.013  12.635  18.611  0.00  0.00    +0.000 A 
ATOM      3  S   UNL     1       1.610  12.051  18.936  0.00  0.00    +0.000 S 
ATOM      4  C   UNL     1       1.080  10.459  18.648  0.00  0.00    +0.000 A 
ATOM      5  N   UNL     1       2.041   9.486  18.721  0.00  0.00    +0.000 N 
ATOM      6  C   UNL     1       1.805   8.230  18.220  0.00  0.00    +0.000 C 
ATOM      7  O   UNL     1       0.768   7.868  17.662  0.00  0.00    +0.000 OA
ATOM      8  N   UNL     1      -0.190  10.322  18.379  0.00  0.00    +0.000 NA
ATOM      9  C   UNL     1      -0.823  11.556  18.354  0.00  0.00    +0.000 A 
ATOM     10  H   UNL     1       2.952   9.736  19.097  0.00  0.00    +0.000 HD
ENDROOT
BRANCH   6  11
ATOM     11  C   UNL     1       2.938   7.253  18.336  0.00  0.00    +0.000 A 
ATOM     12  C   UNL     1       3.906   7.341  17.404  0.00  0.00    +0.000 A 
ATOM     13  C   UNL     1       5.047   6.429  17.395  0.00  0.00    +0.000 A 
ATOM     14  C   UNL     1       6.056   6.537  16.434  0.00  0.00    +0.000 A 
ATOM     15  C   UNL     1       7.129   5.640  16.447  0.00  0.00    +0.000 A 
ATOM     16  C   UNL     1       7.188   4.639  17.416  0.00  0.00    +0.000 A 
ATOM     17  C   UNL     1       6.183   4.529  18.381  0.00  0.00    +0.000 A 
ATOM     18  C   UNL     1       5.116   5.427  18.368  0.00  0.00    +0.000 A 
ATOM     19  N   UNL     1       4.105   5.346  19.337  0.00  0.00    +0.000 N 
ATOM     20  C   UNL     1       3.042   6.214  19.397  0.00  0.00    +0.000 A 
ATOM     21  O   UNL     1       2.208   6.139  20.302  0.00  0.00    +0.000 OA
ATOM     22  H   UNL     1       4.152   4.639  20.056  0.00  0.00    +0.000 HD
ENDBRANCH   6  11
BRANCH   9  23
ATOM     23  C   UNL     1      -2.264  11.613  18.107  0.00  0.00    +0.000 A 
ATOM     24  C   UNL     1      -2.828  11.303  16.852  0.00  0.00    +0.000 A 
ATOM     25  C   UNL     1      -4.205  11.371  16.627  0.00  0.00    +0.000 A 
ATOM     26  C   UNL     1      -5.022  11.705  17.686  0.00  0.00    +0.000 A 
ATOM     27  C   UNL     1      -4.490  11.992  18.944  0.00  0.00    +0.000 A 
ATOM     28  C   UNL     1      -3.120  11.959  19.166  0.00  0.00    +0.000 A 
ATOM     29  C   UNL     1      -5.577  12.344  19.910  0.00  0.00    +0.000 C 
ATOM     30  C   UNL     1      -6.803  11.752  19.197  0.00  0.00    +0.000 C 
ATOM     31  C   UNL     1      -6.513  11.827  17.692  0.00  0.00    +0.000 C 
ENDBRANCH   9  23
TORSDOF 2
ENDMDL
MODEL 8
REMARK VINA RESULT:      -8.0      2.067      2.898
REMARK  Name = 
REMARK  3 active torsions:
REMARK  status: ('A' for Active; 'I' for Inactive)
REMARK    1  A    between atoms: C_1  and  C_2
REMARK    2  A    between atoms: C_6  and  C_8
REMARK    3  A    between atoms: C_20  and  C_21
REMARK                            x       y       z     vdW  Elec       q    Type
REMARK                         _______ _______ _______ _____ _____    ______ ____
ROOT
ATOM      1  C   UNL     1       2.064   4.487  20.873  0.00  0.00    +0.000 C 
ATOM      2  C   UNL     1       2.059   5.858  20.288  0.00  0.00    +0.000 A 
ATOM      3  S   UNL     1       1.269   7.150  21.127  0.00  0.00    +0.000 S 
ATOM      4  C   UNL     1       1.703   8.219  19.876  0.00  0.00    +0.000 A 
ATOM      5  N   UNL     1       1.246   9.504  20.002  0.00  0.00    +0.000 N 
ATOM      6  C   UNL     1       1.271  10.364  18.931  0.00  0.00    +0.000 C 
ATOM      7  O   UNL     1       1.666  10.082  17.799  0.00  0.00    +0.000 OA
ATOM      8  N   UNL     1       2.424   7.709  18.915  0.00  0.00    +0.000 NA
ATOM      9  C   UNL     1       2.642   6.356  19.130  0.00  0.00    +0.000 A 
ATOM     10  H   UNL     1       0.832   9.783  20.887  0.00  0.00    +0.000 HD
ENDROOT
BRANCH   6  11
ATOM     11  C   UNL     1       0.725  11.739  19.181  0.00  0.00    +0.000 A 
ATOM     12  C   UNL     1      -0.457  11.809  19.825  0.00  0.00    +0.000 A 
ATOM     13  C   UNL     1      -1.103  13.089  20.102  0.00  0.00    +0.000 A 
ATOM     14  C   UNL     1      -2.321  13.155  20.785  0.00  0.00    +0.000 A 
ATOM     15  C   UNL     1      -2.919  14.396  21.024  0.00  0.00    +0.000 A 
ATOM     16  C   UNL     1      -2.301  15.564  20.579  0.00  0.00    +0.000 A 
ATOM     17  C   UNL     1      -1.082  15.504  19.899  0.00  0.00    +0.000 A 
ATOM     18  C   UNL     1      -0.486  14.265  19.665  0.00  0.00    +0.000 A 
ATOM     19  N   UNL     1       0.747  14.182  19.000  0.00  0.00    +0.000 N 
ATOM     20  C   UNL     1       1.400  12.997  18.761  0.00  0.00    +0.000 A 
ATOM     21  O   UNL     1       2.509  12.978  18.223  0.00  0.00    +0.000 OA
ATOM     22  H   UNL     1       1.213  15.024  18.694  0.00  0.00    +0.000 HD
ENDBRANCH   6  11
BRANCH   9  23
ATOM     23  C   UNL     1       3.466   5.607  18.181  0.00  0.00    +0.000 A 
ATOM     24  C   UNL     1       3.030   4.404  17.587  0.00  0.00    +0.000 A 
ATOM     25  C   UNL     1       3.829   3.693  16.689  0.00  0.00    +0.000 A 
ATOM     26  C   UNL     1       5.056   4.223  16.351  0.00  0.00    +0.000 A 
ATOM     27  C   UNL     1       5.501   5.425  16.906  0.00  0.00    +0.000 A 
ATOM     28  C   UNL     1       4.725   6.119  17.823  0.00  0.00    +0.000 A 
ATOM     29  C   UNL     1       6.864   5.770  16.395  0.00  0.00    +0.000 C 
ATOM     30  C   UNL     1       6.932   4.898  15.132  0.00  0.00    +0.000 C 
ATOM     31  C   UNL     1       6.072   3.657  15.410  0.00  0.00    +0.000 C 
ENDBRANCH   9  23
TORSDOF 2
ENDMDL
MODEL 9
REMARK VINA RESULT:      -8.0      3.143      4.830
REMARK  Name = 
REMARK  3 active torsions:
REMARK  status: ('A' for Active; 'I' for Inactive)
REMARK    1  A    between atoms: C_1  and  C_2
REMARK    2  A    between atoms: C_6  and  C_8
REMARK    3  A    between atoms: C_20  and  C_21
REMARK                            x       y       z     vdW  Elec       q    Type
REMARK                         _______ _______ _______ _____ _____    ______ ____
ROOT
ATOM      1  C   UNL     1       3.321   7.848  16.846  0.00  0.00    +0.000 C 
ATOM      2  C   UNL     1       2.554   8.296  18.043  0.00  0.00    +0.000 A 
ATOM      3  S   UNL     1       1.818   9.863  18.057  0.00  0.00    +0.000 S 
ATOM      4  C   UNL     1       1.234   9.567  19.629  0.00  0.00    +0.000 A 
ATOM      5  N   UNL     1       0.552  10.599  20.217  0.00  0.00    +0.000 N 
ATOM      6  C   UNL     1       0.301  10.592  21.567  0.00  0.00    +0.000 C 
ATOM      7  O   UNL     1       0.662   9.717  22.355  0.00  0.00    +0.000 OA
ATOM      8  N   UNL     1       1.498   8.388  20.122  0.00  0.00    +0.000 NA
ATOM      9  C   UNL     1       2.254   7.641  19.231  0.00  0.00    +0.000 A 
ATOM     10  H   UNL     1       0.292  11.395  19.641  0.00  0.00    +0.000 HD
ENDROOT
BRANCH   6  11
ATOM     11  C   UNL     1      -0.434  11.785  22.104  0.00  0.00    +0.000 A 
ATOM     12  C   UNL     1      -1.609  11.542  22.718  0.00  0.00    +0.000 A 
ATOM     13  C   UNL     1      -2.429  12.622  23.258  0.00  0.00    +0.000 A 
ATOM     14  C   UNL     1      -3.638  12.361  23.908  0.00  0.00    +0.000 A 
ATOM     15  C   UNL     1      -4.406  13.420  24.403  0.00  0.00    +0.000 A 
ATOM     16  C   UNL     1      -3.965  14.733  24.245  0.00  0.00    +0.000 A 
ATOM     17  C   UNL     1      -2.755  15.000  23.599  0.00  0.00    +0.000 A 
ATOM     18  C   UNL     1      -1.989  13.941  23.110  0.00  0.00    +0.000 A 
ATOM     19  N   UNL     1      -0.763  14.184  22.473  0.00  0.00    +0.000 N 
ATOM     20  C   UNL     1       0.051  13.188  21.992  0.00  0.00    +0.000 A 
ATOM     21  O   UNL     1       1.147  13.447  21.490  0.00  0.00    +0.000 OA
ATOM     22  H   UNL     1      -0.425  15.131  22.375  0.00  0.00    +0.000 HD
ENDBRANCH   6  11
BRANCH   9  23
ATOM     23  C   UNL     1       2.622   6.269  19.583  0.00  0.00    +0.000 A 
ATOM     24  C   UNL     1       3.904   5.741  19.325  0.00  0.00    +0.000 A 
ATOM     25  C   UNL     1       4.240   4.427  19.657  0.00  0.00    +0.000 A 
ATOM     26  C   UNL     1       3.294   3.656  20.298  0.00  0.00    +0.000 A 
ATOM     27  C   UNL     1       2.025   4.163  20.588  0.00  0.00    +0.000 A 
ATOM     28  C   UNL     1       1.674   5.457  20.230  0.00  0.00    +0.000 A 
ATOM     29  C   UNL     1       1.183   3.127  21.263  0.00  0.00    +0.000 C 
ATOM     30  C   UNL     1       2.262   2.154  21.761  0.00  0.00    +0.000 C 
ATOM     31  C   UNL     1       3.424   2.240  20.761  0.00  0.00    +0.000 C 
ENDBRANCH   9  23
TORSDOF 2
ENDMDL
