MODEL 1
REMARK VINA RESULT:      -8.6      0.000      0.000
REMARK  Name = 
REMARK  7 active torsions:
REMARK  status: ('A' for Active; 'I' for Inactive)
REMARK    1  A    between atoms: C_1  and  C_2
REMARK    2  A    between atoms: C_2  and  S_3
REMARK    3  A    between atoms: C_2  and  C_10
REMARK    4  A    between atoms: S_3  and  C_4
REMARK    5  A    between atoms: N_8  and  C_9
REMARK    6  A    between atoms: C_14  and  N_15
REMARK    7  A    between atoms: C_16  and  C_18
REMARK                            x       y       z     vdW  Elec       q    Type
REMARK                         _______ _______ _______ _____ _____    ______ ____
ROOT
ATOM      1  C   UNL     1       4.926   5.260  17.636  0.00  0.00    +0.000 A 
ATOM      2  C   UNL     1       5.332   4.490  16.534  0.00  0.00    +0.000 A 
ATOM      3  C   UNL     1       6.398   4.902  15.738  0.00  0.00    +0.000 A 
ATOM      4  C   UNL     1       7.051   6.102  16.009  0.00  0.00    +0.000 A 
ATOM      5  C   UNL     1       6.645   6.918  17.067  0.00  0.00    +0.000 A 
ATOM      6  C   UNL     1       5.612   6.468  17.897  0.00  0.00    +0.000 A 
ENDROOT
BRANCH   5   7
ATOM      7  N   UNL     1       7.188   8.209  17.315  0.00  0.00    +0.000 N 
ATOM      8  C   UNL     1       8.186   8.464  18.225  0.00  0.00    +0.000 C 
ATOM      9  O   UNL     1       8.717   7.620  18.952  0.00  0.00    +0.000 OA
ATOM     10  H   UNL     1       6.957   8.935  16.651  0.00  0.00    +0.000 HD
BRANCH   8  11
ATOM     11  C   UNL     1       8.705   9.872  18.275  0.00  0.00    +0.000 A 
ATOM     12  C   UNL     1       8.214  10.962  17.414  0.00  0.00    +0.000 A 
ATOM     13  C   UNL     1       8.516  12.258  17.662  0.00  0.00    +0.000 A 
ATOM     14  C   UNL     1       9.336  12.561  18.813  0.00  0.00    +0.000 A 
ATOM     15  C   UNL     1       9.871  11.477  19.628  0.00  0.00    +0.000 A 
ATOM     16  C   UNL     1       9.538  10.114  19.318  0.00  0.00    +0.000 A 
ATOM     17  C   UNL     1      10.562  11.972  20.664  0.00  0.00    +0.000 C 
ATOM     18  C   UNL     1      10.518  13.480  20.603  0.00  0.00    +0.000 C 
ATOM     19  C   UNL     1       9.713  13.721  19.358  0.00  0.00    +0.000 C 
ATOM     20  F   UNL     1       9.375  14.933  18.889  0.00  0.00    +0.000 F 
ENDBRANCH   8  11
ENDBRANCH   5   7
BRANCH   1  22
ATOM     21  C   UNL     1       2.402   5.340  17.826  0.00  0.00    +0.000 C 
ATOM     22  C   UNL     1       3.705   4.827  18.452  0.00  0.00    +0.000 C 
BRANCH  22  23
ATOM     23  S   UNL     1       3.756   2.993  18.628  0.00  0.00    +0.000 S 
BRANCH  23  24
ATOM     24  C   UNL     1       2.934   2.702  20.118  0.00  0.00    +0.000 A 
ATOM     25  N   UNL     1       3.461   2.647  21.319  0.00  0.00    +0.000 NA
ATOM     26  N   UNL     1       2.432   2.550  22.230  0.00  0.00    +0.000 NA
ATOM     27  C   UNL     1       1.309   2.510  21.551  0.00  0.00    +0.000 A 
ATOM     28  N   UNL     1       1.580   2.550  20.215  0.00  0.00    +0.000 N 
ATOM     29  C   UNL     1       0.602   2.421  19.168  0.00  0.00    +0.000 C 
ENDBRANCH  23  24
ENDBRANCH  22  23
ENDBRANCH   1  22
TORSDOF 5
ENDMDL
MODEL 2
REMARK VINA RESULT:      -8.6      1.966      2.772
REMARK  Name = 
REMARK  7 active torsions:
REMARK  status: ('A' for Active; 'I' for Inactive)
REMARK    1  A    between atoms: C_1  and  C_2
REMARK    2  A    between atoms: C_2  and  S_3
REMARK    3  A    between atoms: C_2  and  C_10
REMARK    4  A    between atoms: S_3  and  C_4
REMARK    5  A    between atoms: N_8  and  C_9
REMARK    6  A    between atoms: C_14  and  N_15
REMARK    7  A    between atoms: C_16  and  C_18
REMARK                            x       y       z     vdW  Elec       q    Type
REMARK                         _______ _______ _______ _____ _____    ______ ____
ROOT
ATOM      1  C   UNL     1       6.197   5.858  17.231  0.00  0.00    +0.000 A 
ATOM      2  C   UNL     1       6.902   5.051  18.139  0.00  0.00    +0.000 A 
ATOM      3  C   UNL     1       7.929   5.589  18.912  0.00  0.00    +0.000 A 
ATOM      4  C   UNL     1       8.288   6.927  18.767  0.00  0.00    +0.000 A 
ATOM      5  C   UNL     1       7.641   7.748  17.841  0.00  0.00    +0.000 A 
ATOM      6  C   UNL     1       6.572   7.216  17.111  0.00  0.00    +0.000 A 
ENDROOT
BRANCH   5   7
ATOM      7  N   UNL     1       8.046   9.082  17.559  0.00  0.00    +0.000 N 
ATOM      8  C   UNL     1       8.758   9.872  18.430  0.00  0.00    +0.000 C 
ATOM      9  O   UNL     1       9.113   9.538  19.563  0.00  0.00    +0.000 OA
ATOM     10  H   UNL     1       7.967   9.388  16.599  0.00  0.00    +0.000 HD
BRANCH   8  11
ATOM     11  C   UNL     1       9.186  11.217  17.918  0.00  0.00    +0.000 A 
ATOM     12  C   UNL     1       8.265  12.343  17.686  0.00  0.00    +0.000 A 
ATOM     13  C   UNL     1       8.716  13.602  17.476  0.00  0.00    +0.000 A 
ATOM     14  C   UNL     1      10.144  13.828  17.493  0.00  0.00    +0.000 A 
ATOM     15  C   UNL     1      11.055  12.704  17.662  0.00  0.00    +0.000 A 
ATOM     16  C   UNL     1      10.532  11.381  17.865  0.00  0.00    +0.000 A 
ATOM     17  C   UNL     1      12.323  13.134  17.694  0.00  0.00    +0.000 C 
ATOM     18  C   UNL     1      12.332  14.637  17.552  0.00  0.00    +0.000 C 
ATOM     19  C   UNL     1      10.869  14.948  17.416  0.00  0.00    +0.000 C 
ATOM     20  F   UNL     1      10.359  16.183  17.288  0.00  0.00    +0.000 F 
ENDBRANCH   8  11
ENDBRANCH   5   7
BRANCH   1  22
ATOM     21  C   UNL     1       5.565   5.199  14.869  0.00  0.00    +0.000 C 
ATOM     22  C   UNL     1       5.124   5.230  16.338  0.00  0.00    +0.000 C 
BRANCH  22  23
ATOM     23  S   UNL     1       4.721   3.563  17.014  0.00  0.00    +0.000 S 
BRANCH  23  24
ATOM     24  C   UNL     1       3.104   3.735  17.592  0.00  0.00    +0.000 A 
ATOM     25  N   UNL     1       2.007   3.283  17.031  0.00  0.00    +0.000 NA
ATOM     26  N   UNL     1       0.963   3.506  17.902  0.00  0.00    +0.000 NA
ATOM     27  C   UNL     1       1.451   4.124  18.952  0.00  0.00    +0.000 A 
ATOM     28  N   UNL     1       2.787   4.335  18.778  0.00  0.00    +0.000 N 
ATOM     29  C   UNL     1       3.631   5.076  19.677  0.00  0.00    +0.000 C 
ENDBRANCH  23  24
ENDBRANCH  22  23
ENDBRANCH   1  22
TORSDOF 5
ENDMDL
MODEL 3
REMARK VINA RESULT:      -8.5      6.657      9.207
REMARK  Name = 
REMARK  7 active torsions:
REMARK  status: ('A' for Active; 'I' for Inactive)
REMARK    1  A    between atoms: C_1  and  C_2
REMARK    2  A    between atoms: C_2  and  S_3
REMARK    3  A    between atoms: C_2  and  C_10
REMARK    4  A    between atoms: S_3  and  C_4
REMARK    5  A    between atoms: N_8  and  C_9
REMARK    6  A    between atoms: C_14  and  N_15
REMARK    7  A    between atoms: C_16  and  C_18
REMARK                            x       y       z     vdW  Elec       q    Type
REMARK                         _______ _______ _______ _____ _____    ______ ____
ROOT
ATOM      1  C   UNL     1      -0.113  10.325  20.275  0.00  0.00    +0.000 A 
ATOM      2  C   UNL     1      -0.407  10.218  21.644  0.00  0.00    +0.000 A 
ATOM      3  C   UNL     1       0.258   9.286  22.439  0.00  0.00    +0.000 A 
ATOM      4  C   UNL     1       1.199   8.428  21.873  0.00  0.00    +0.000 A 
ATOM      5  C   UNL     1       1.483   8.473  20.506  0.00  0.00    +0.000 A 
ATOM      6  C   UNL     1       0.853   9.451  19.727  0.00  0.00    +0.000 A 
ENDROOT
BRANCH   5   7
ATOM      7  N   UNL     1       2.335   7.542  19.852  0.00  0.00    +0.000 N 
ATOM      8  C   UNL     1       2.212   6.177  19.958  0.00  0.00    +0.000 C 
ATOM      9  O   UNL     1       1.369   5.592  20.643  0.00  0.00    +0.000 OA
ATOM     10  H   UNL     1       2.938   7.908  19.128  0.00  0.00    +0.000 HD
BRANCH   8  11
ATOM     11  C   UNL     1       3.138   5.353  19.111  0.00  0.00    +0.000 A 
ATOM     12  C   UNL     1       2.703   4.545  17.959  0.00  0.00    +0.000 A 
ATOM     13  C   UNL     1       3.589   4.030  17.074  0.00  0.00    +0.000 A 
ATOM     14  C   UNL     1       4.994   4.300  17.277  0.00  0.00    +0.000 A 
ATOM     15  C   UNL     1       5.427   5.048  18.450  0.00  0.00    +0.000 A 
ATOM     16  C   UNL     1       4.453   5.562  19.374  0.00  0.00    +0.000 A 
ATOM     17  C   UNL     1       6.755   5.225  18.425  0.00  0.00    +0.000 C 
ATOM     18  C   UNL     1       7.308   4.587  17.173  0.00  0.00    +0.000 C 
ATOM     19  C   UNL     1       6.071   4.017  16.539  0.00  0.00    +0.000 C 
ATOM     20  F   UNL     1       6.046   3.362  15.367  0.00  0.00    +0.000 F 
ENDBRANCH   8  11
ENDBRANCH   5   7
BRANCH   1  22
ATOM     21  C   UNL     1      -0.075  12.537  19.043  0.00  0.00    +0.000 C 
ATOM     22  C   UNL     1      -0.909  11.303  19.406  0.00  0.00    +0.000 C 
BRANCH  22  23
ATOM     23  S   UNL     1      -1.531  10.384  17.934  0.00  0.00    +0.000 S 
BRANCH  23  24
ATOM     24  C   UNL     1      -3.125  11.006  17.707  0.00  0.00    +0.000 A 
ATOM     25  N   UNL     1      -3.929  11.489  18.626  0.00  0.00    +0.000 NA
ATOM     26  N   UNL     1      -5.032  12.015  17.991  0.00  0.00    +0.000 NA
ATOM     27  C   UNL     1      -4.885  11.800  16.704  0.00  0.00    +0.000 A 
ATOM     28  N   UNL     1      -3.722  11.122  16.484  0.00  0.00    +0.000 N 
ATOM     29  C   UNL     1      -3.284  10.625  15.207  0.00  0.00    +0.000 C 
ENDBRANCH  23  24
ENDBRANCH  22  23
ENDBRANCH   1  22
TORSDOF 5
ENDMDL
MODEL 4
REMARK VINA RESULT:      -8.5      5.479      8.165
REMARK  Name = 
REMARK  7 active torsions:
REMARK  status: ('A' for Active; 'I' for Inactive)
REMARK    1  A    between atoms: C_1  and  C_2
REMARK    2  A    between atoms: C_2  and  S_3
REMARK    3  A    between atoms: C_2  and  C_10
REMARK    4  A    between atoms: S_3  and  C_4
REMARK    5  A    between atoms: N_8  and  C_9
REMARK    6  A    between atoms: C_14  and  N_15
REMARK    7  A    between atoms: C_16  and  C_18
REMARK                            x       y       z     vdW  Elec       q    Type
REMARK                         _______ _______ _______ _____ _____    ______ ____
ROOT
ATOM      1  C   UNL     1       4.568   5.800  17.205  0.00  0.00    +0.000 A 
ATOM      2  C   UNL     1       3.995   4.518  17.220  0.00  0.00    +0.000 A 
ATOM      3  C   UNL     1       2.728   4.316  17.761  0.00  0.00    +0.000 A 
ATOM      4  C   UNL     1       2.029   5.381  18.325  0.00  0.00    +0.000 A 
ATOM      5  C   UNL     1       2.586   6.662  18.371  0.00  0.00    +0.000 A 
ATOM      6  C   UNL     1       3.834   6.867  17.772  0.00  0.00    +0.000 A 
ENDROOT
BRANCH   5   7
ATOM      7  N   UNL     1       1.977   7.757  19.043  0.00  0.00    +0.000 N 
ATOM      8  C   UNL     1       1.620   8.935  18.431  0.00  0.00    +0.000 C 
ATOM      9  O   UNL     1       1.800   9.199  17.239  0.00  0.00    +0.000 OA
ATOM     10  H   UNL     1       1.621   7.580  19.972  0.00  0.00    +0.000 HD
BRANCH   8  11
ATOM     11  C   UNL     1       0.893   9.938  19.279  0.00  0.00    +0.000 A 
ATOM     12  C   UNL     1       0.072  11.035  18.738  0.00  0.00    +0.000 A 
ATOM     13  C   UNL     1      -0.767  11.752  19.522  0.00  0.00    +0.000 A 
ATOM     14  C   UNL     1      -0.854  11.408  20.924  0.00  0.00    +0.000 A 
ATOM     15  C   UNL     1       0.003  10.363  21.469  0.00  0.00    +0.000 A 
ATOM     16  C   UNL     1       0.892   9.639  20.603  0.00  0.00    +0.000 A 
ATOM     17  C   UNL     1      -0.266  10.173  22.768  0.00  0.00    +0.000 C 
ATOM     18  C   UNL     1      -1.373  11.113  23.180  0.00  0.00    +0.000 C 
ATOM     19  C   UNL     1      -1.643  11.857  21.904  0.00  0.00    +0.000 C 
ATOM     20  F   UNL     1      -2.584  12.804  21.756  0.00  0.00    +0.000 F 
ENDBRANCH   8  11
ENDBRANCH   5   7
BRANCH   1  22
ATOM     21  C   UNL     1       6.931   6.522  17.763  0.00  0.00    +0.000 C 
ATOM     22  C   UNL     1       5.992   5.986  16.675  0.00  0.00    +0.000 C 
BRANCH  22  23
ATOM     23  S   UNL     1       6.548   4.382  15.957  0.00  0.00    +0.000 S 
BRANCH  23  24
ATOM     24  C   UNL     1       7.084   4.806  14.372  0.00  0.00    +0.000 A 
ATOM     25  N   UNL     1       8.120   5.547  14.055  0.00  0.00    +0.000 NA
ATOM     26  N   UNL     1       8.272   5.500  12.686  0.00  0.00    +0.000 NA
ATOM     27  C   UNL     1       7.297   4.763  12.208  0.00  0.00    +0.000 A 
ATOM     28  N   UNL     1       6.494   4.347  13.229  0.00  0.00    +0.000 N 
ATOM     29  C   UNL     1       5.271   3.608  13.070  0.00  0.00    +0.000 C 
ENDBRANCH  23  24
ENDBRANCH  22  23
ENDBRANCH   1  22
TORSDOF 5
ENDMDL
MODEL 5
REMARK VINA RESULT:      -8.3      0.986      1.345
REMARK  Name = 
REMARK  7 active torsions:
REMARK  status: ('A' for Active; 'I' for Inactive)
REMARK    1  A    between atoms: C_1  and  C_2
REMARK    2  A    between atoms: C_2  and  S_3
REMARK    3  A    between atoms: C_2  and  C_10
REMARK    4  A    between atoms: S_3  and  C_4
REMARK    5  A    between atoms: N_8  and  C_9
REMARK    6  A    between atoms: C_14  and  N_15
REMARK    7  A    between atoms: C_16  and  C_18
REMARK                            x       y       z     vdW  Elec       q    Type
REMARK                         _______ _______ _______ _____ _____    ______ ____
ROOT
ATOM      1  C   UNL     1       4.502   5.587  17.259  0.00  0.00    +0.000 A 
ATOM      2  C   UNL     1       5.131   4.600  16.483  0.00  0.00    +0.000 A 
ATOM      3  C   UNL     1       6.436   4.780  16.032  0.00  0.00    +0.000 A 
ATOM      4  C   UNL     1       7.120   5.960  16.319  0.00  0.00    +0.000 A 
ATOM      5  C   UNL     1       6.511   6.984  17.048  0.00  0.00    +0.000 A 
ATOM      6  C   UNL     1       5.221   6.770  17.547  0.00  0.00    +0.000 A 
ENDROOT
BRANCH   5   7
ATOM      7  N   UNL     1       7.109   8.255  17.263  0.00  0.00    +0.000 N 
ATOM      8  C   UNL     1       8.105   8.494  18.181  0.00  0.00    +0.000 C 
ATOM      9  O   UNL     1       8.585   7.650  18.942  0.00  0.00    +0.000 OA
ATOM     10  H   UNL     1       6.922   8.970  16.573  0.00  0.00    +0.000 HD
BRANCH   8  11
ATOM     11  C   UNL     1       8.688   9.877  18.194  0.00  0.00    +0.000 A 
ATOM     12  C   UNL     1       8.139  11.010  17.429  0.00  0.00    +0.000 A 
ATOM     13  C   UNL     1       8.528  12.285  17.665  0.00  0.00    +0.000 A 
ATOM     14  C   UNL     1       9.503  12.521  18.707  0.00  0.00    +0.000 A 
ATOM     15  C   UNL     1      10.089  11.394  19.421  0.00  0.00    +0.000 A 
ATOM     16  C   UNL     1       9.658  10.055  19.126  0.00  0.00    +0.000 A 
ATOM     17  C   UNL     1      10.929  11.831  20.369  0.00  0.00    +0.000 C 
ATOM     18  C   UNL     1      10.944  13.340  20.349  0.00  0.00    +0.000 C 
ATOM     19  C   UNL     1       9.998  13.649  19.225  0.00  0.00    +0.000 C 
ATOM     20  F   UNL     1       9.656  14.887  18.831  0.00  0.00    +0.000 F 
ENDBRANCH   8  11
ENDBRANCH   5   7
BRANCH   1  22
ATOM     21  C   UNL     1       2.539   3.990  17.351  0.00  0.00    +0.000 C 
ATOM     22  C   UNL     1       3.042   5.401  17.679  0.00  0.00    +0.000 C 
BRANCH  22  23
ATOM     23  S   UNL     1       2.903   5.827  19.467  0.00  0.00    +0.000 S 
BRANCH  23  24
ATOM     24  C   UNL     1       2.297   4.380  20.187  0.00  0.00    +0.000 A 
ATOM     25  N   UNL     1       1.075   4.153  20.608  0.00  0.00    +0.000 NA
ATOM     26  N   UNL     1       0.989   2.825  20.965  0.00  0.00    +0.000 NA
ATOM     27  C   UNL     1       2.176   2.293  20.788  0.00  0.00    +0.000 A 
ATOM     28  N   UNL     1       3.045   3.248  20.348  0.00  0.00    +0.000 N 
ATOM     29  C   UNL     1       4.455   3.053  20.145  0.00  0.00    +0.000 C 
ENDBRANCH  23  24
ENDBRANCH  22  23
ENDBRANCH   1  22
TORSDOF 5
ENDMDL
MODEL 6
REMARK VINA RESULT:      -8.3      1.997      2.624
REMARK  Name = 
REMARK  7 active torsions:
REMARK  status: ('A' for Active; 'I' for Inactive)
REMARK    1  A    between atoms: C_1  and  C_2
REMARK    2  A    between atoms: C_2  and  S_3
REMARK    3  A    between atoms: C_2  and  C_10
REMARK    4  A    between atoms: S_3  and  C_4
REMARK    5  A    between atoms: N_8  and  C_9
REMARK    6  A    between atoms: C_14  and  N_15
REMARK    7  A    between atoms: C_16  and  C_18
REMARK                            x       y       z     vdW  Elec       q    Type
REMARK                         _______ _______ _______ _____ _____    ______ ____
ROOT
ATOM      1  C   UNL     1       6.089   5.825  17.202  0.00  0.00    +0.000 A 
ATOM      2  C   UNL     1       6.799   4.993  18.083  0.00  0.00    +0.000 A 
ATOM      3  C   UNL     1       7.837   5.506  18.858  0.00  0.00    +0.000 A 
ATOM      4  C   UNL     1       8.203   6.845  18.739  0.00  0.00    +0.000 A 
ATOM      5  C   UNL     1       7.551   7.691  17.839  0.00  0.00    +0.000 A 
ATOM      6  C   UNL     1       6.471   7.182  17.109  0.00  0.00    +0.000 A 
ENDROOT
BRANCH   5   7
ATOM      7  N   UNL     1       7.961   9.028  17.584  0.00  0.00    +0.000 N 
ATOM      8  C   UNL     1       8.749   9.769  18.434  0.00  0.00    +0.000 C 
ATOM      9  O   UNL     1       9.177   9.381  19.524  0.00  0.00    +0.000 OA
ATOM     10  H   UNL     1       7.821   9.376  16.646  0.00  0.00    +0.000 HD
BRANCH   8  11
ATOM     11  C   UNL     1       9.166  11.127  17.948  0.00  0.00    +0.000 A 
ATOM     12  C   UNL     1       8.229  12.233  17.686  0.00  0.00    +0.000 A 
ATOM     13  C   UNL     1       8.659  13.504  17.502  0.00  0.00    +0.000 A 
ATOM     14  C   UNL     1      10.079  13.763  17.578  0.00  0.00    +0.000 A 
ATOM     15  C   UNL     1      11.009  12.658  17.776  0.00  0.00    +0.000 A 
ATOM     16  C   UNL     1      10.509  11.322  17.950  0.00  0.00    +0.000 A 
ATOM     17  C   UNL     1      12.264  13.117  17.861  0.00  0.00    +0.000 C 
ATOM     18  C   UNL     1      12.244  14.621  17.730  0.00  0.00    +0.000 C 
ATOM     19  C   UNL     1      10.781  14.899  17.537  0.00  0.00    +0.000 C 
ATOM     20  F   UNL     1      10.248  16.124  17.396  0.00  0.00    +0.000 F 
ENDBRANCH   8  11
ENDBRANCH   5   7
BRANCH   1  22
ATOM     21  C   UNL     1       5.588   4.700  14.989  0.00  0.00    +0.000 C 
ATOM     22  C   UNL     1       5.002   5.223  16.307  0.00  0.00    +0.000 C 
BRANCH  22  23
ATOM     23  S   UNL     1       4.114   3.931  17.274  0.00  0.00    +0.000 S 
BRANCH  23  24
ATOM     24  C   UNL     1       3.344   4.821  18.537  0.00  0.00    +0.000 A 
ATOM     25  N   UNL     1       2.951   6.073  18.501  0.00  0.00    +0.000 NA
ATOM     26  N   UNL     1       2.249   6.331  19.658  0.00  0.00    +0.000 NA
ATOM     27  C   UNL     1       2.270   5.236  20.382  0.00  0.00    +0.000 A 
ATOM     28  N   UNL     1       2.992   4.275  19.738  0.00  0.00    +0.000 N 
ATOM     29  C   UNL     1       3.314   2.982  20.279  0.00  0.00    +0.000 C 
ENDBRANCH  23  24
ENDBRANCH  22  23
ENDBRANCH   1  22
TORSDOF 5
ENDMDL
MODEL 7
REMARK VINA RESULT:      -8.2      5.438      8.164
REMARK  Name = 
REMARK  7 active torsions:
REMARK  status: ('A' for Active; 'I' for Inactive)
REMARK    1  A    between atoms: C_1  and  C_2
REMARK    2  A    between atoms: C_2  and  S_3
REMARK    3  A    between atoms: C_2  and  C_10
REMARK    4  A    between atoms: S_3  and  C_4
REMARK    5  A    between atoms: N_8  and  C_9
REMARK    6  A    between atoms: C_14  and  N_15
REMARK    7  A    between atoms: C_16  and  C_18
REMARK                            x       y       z     vdW  Elec       q    Type
REMARK                         _______ _______ _______ _____ _____    ______ ____
ROOT
ATOM      1  C   UNL     1       4.714   5.374  17.371  0.00  0.00    +0.000 A 
ATOM      2  C   UNL     1       4.172   4.107  17.639  0.00  0.00    +0.000 A 
ATOM      3  C   UNL     1       2.924   3.986  18.246  0.00  0.00    +0.000 A 
ATOM      4  C   UNL     1       2.217   5.125  18.626  0.00  0.00    +0.000 A 
ATOM      5  C   UNL     1       2.745   6.401  18.419  0.00  0.00    +0.000 A 
ATOM      6  C   UNL     1       3.972   6.515  17.755  0.00  0.00    +0.000 A 
ENDROOT
BRANCH   5   7
ATOM      7  N   UNL     1       2.130   7.591  18.897  0.00  0.00    +0.000 N 
ATOM      8  C   UNL     1       1.538   7.710  20.132  0.00  0.00    +0.000 C 
ATOM      9  O   UNL     1       1.446   6.805  20.965  0.00  0.00    +0.000 OA
ATOM     10  H   UNL     1       2.308   8.437  18.373  0.00  0.00    +0.000 HD
BRANCH   8  11
ATOM     11  C   UNL     1       1.032   9.074  20.504  0.00  0.00    +0.000 A 
ATOM     12  C   UNL     1       0.945  10.206  19.564  0.00  0.00    +0.000 A 
ATOM     13  C   UNL     1       0.251  11.329  19.863  0.00  0.00    +0.000 A 
ATOM     14  C   UNL     1      -0.424  11.396  21.139  0.00  0.00    +0.000 A 
ATOM     15  C   UNL     1      -0.287  10.302  22.091  0.00  0.00    +0.000 A 
ATOM     16  C   UNL     1       0.474   9.135  21.739  0.00  0.00    +0.000 A 
ATOM     17  C   UNL     1      -1.023  10.542  23.185  0.00  0.00    +0.000 C 
ATOM     18  C   UNL     1      -1.734  11.862  23.014  0.00  0.00    +0.000 C 
ATOM     19  C   UNL     1      -1.246  12.308  21.665  0.00  0.00    +0.000 C 
ATOM     20  F   UNL     1      -1.627  13.441  21.051  0.00  0.00    +0.000 F 
ENDBRANCH   8  11
ENDBRANCH   5   7
BRANCH   1  22
ATOM     21  C   UNL     1       7.184   5.644  17.865  0.00  0.00    +0.000 C 
ATOM     22  C   UNL     1       6.119   5.483  16.772  0.00  0.00    +0.000 C 
BRANCH  22  23
ATOM     23  S   UNL     1       6.397   4.014  15.694  0.00  0.00    +0.000 S 
BRANCH  23  24
ATOM     24  C   UNL     1       7.082   4.684  14.259  0.00  0.00    +0.000 A 
ATOM     25  N   UNL     1       8.007   5.613  14.177  0.00  0.00    +0.000 NA
ATOM     26  N   UNL     1       8.370   5.735  12.854  0.00  0.00    +0.000 NA
ATOM     27  C   UNL     1       7.626   4.903  12.163  0.00  0.00    +0.000 A 
ATOM     28  N   UNL     1       6.764   4.257  13.001  0.00  0.00    +0.000 N 
ATOM     29  C   UNL     1       5.730   3.349  12.583  0.00  0.00    +0.000 C 
ENDBRANCH  23  24
ENDBRANCH  22  23
ENDBRANCH   1  22
TORSDOF 5
ENDMDL
MODEL 8
REMARK VINA RESULT:      -8.2      5.304      7.690
REMARK  Name = 
REMARK  7 active torsions:
REMARK  status: ('A' for Active; 'I' for Inactive)
REMARK    1  A    between atoms: C_1  and  C_2
REMARK    2  A    between atoms: C_2  and  S_3
REMARK    3  A    between atoms: C_2  and  C_10
REMARK    4  A    between atoms: S_3  and  C_4
REMARK    5  A    between atoms: N_8  and  C_9
REMARK    6  A    between atoms: C_14  and  N_15
REMARK    7  A    between atoms: C_16  and  C_18
REMARK                            x       y       z     vdW  Elec       q    Type
REMARK                         _______ _______ _______ _____ _____    ______ ____
ROOT
ATOM      1  C   UNL     1       2.961   3.282  19.196  0.00  0.00    +0.000 A 
ATOM      2  C   UNL     1       3.106   2.390  20.271  0.00  0.00    +0.000 A 
ATOM      3  C   UNL     1       2.665   2.741  21.545  0.00  0.00    +0.000 A 
ATOM      4  C   UNL     1       2.105   3.997  21.771  0.00  0.00    +0.000 A 
ATOM      5  C   UNL     1       1.987   4.928  20.736  0.00  0.00    +0.000 A 
ATOM      6  C   UNL     1       2.378   4.545  19.448  0.00  0.00    +0.000 A 
ENDROOT
BRANCH   5   7
ATOM      7  N   UNL     1       1.543   6.264  20.931  0.00  0.00    +0.000 N 
ATOM      8  C   UNL     1       1.950   7.332  20.166  0.00  0.00    +0.000 C 
ATOM      9  O   UNL     1       2.760   7.272  19.237  0.00  0.00    +0.000 OA
ATOM     10  H   UNL     1       0.747   6.395  21.540  0.00  0.00    +0.000 HD
BRANCH   8  11
ATOM     11  C   UNL     1       1.293   8.651  20.453  0.00  0.00    +0.000 A 
ATOM     12  C   UNL     1       0.918   9.629  19.417  0.00  0.00    +0.000 A 
ATOM     13  C   UNL     1       0.104  10.676  19.685  0.00  0.00    +0.000 A 
ATOM     14  C   UNL     1      -0.408  10.817  21.030  0.00  0.00    +0.000 A 
ATOM     15  C   UNL     1       0.011   9.884  22.068  0.00  0.00    +0.000 A 
ATOM     16  C   UNL     1       0.891   8.795  21.741  0.00  0.00    +0.000 A 
ATOM     17  C   UNL     1      -0.610  10.162  23.221  0.00  0.00    +0.000 C 
ATOM     18  C   UNL     1      -1.529  11.340  23.009  0.00  0.00    +0.000 C 
ATOM     19  C   UNL     1      -1.288  11.669  21.563  0.00  0.00    +0.000 C 
ATOM     20  F   UNL     1      -1.909  12.650  20.889  0.00  0.00    +0.000 F 
ENDBRANCH   8  11
ENDBRANCH   5   7
BRANCH   1  22
ATOM     21  C   UNL     1       2.534   2.035  17.033  0.00  0.00    +0.000 C 
ATOM     22  C   UNL     1       3.521   2.905  17.821  0.00  0.00    +0.000 C 
BRANCH  22  23
ATOM     23  S   UNL     1       3.981   4.460  16.946  0.00  0.00    +0.000 S 
BRANCH  23  24
ATOM     24  C   UNL     1       5.706   4.469  17.007  0.00  0.00    +0.000 A 
ATOM     25  N   UNL     1       6.537   4.131  16.049  0.00  0.00    +0.000 NA
ATOM     26  N   UNL     1       7.814   4.434  16.468  0.00  0.00    +0.000 NA
ATOM     27  C   UNL     1       7.724   4.913  17.687  0.00  0.00    +0.000 A 
ATOM     28  N   UNL     1       6.420   4.905  18.087  0.00  0.00    +0.000 N 
ATOM     29  C   UNL     1       5.956   5.261  19.401  0.00  0.00    +0.000 C 
ENDBRANCH  23  24
ENDBRANCH  22  23
ENDBRANCH   1  22
TORSDOF 5
ENDMDL
MODEL 9
REMARK VINA RESULT:      -8.2      7.437      9.207
REMARK  Name = 
REMARK  7 active torsions:
REMARK  status: ('A' for Active; 'I' for Inactive)
REMARK    1  A    between atoms: C_1  and  C_2
REMARK    2  A    between atoms: C_2  and  S_3
REMARK    3  A    between atoms: C_2  and  C_10
REMARK    4  A    between atoms: S_3  and  C_4
REMARK    5  A    between atoms: N_8  and  C_9
REMARK    6  A    between atoms: C_14  and  N_15
REMARK    7  A    between atoms: C_16  and  C_18
REMARK                            x       y       z     vdW  Elec       q    Type
REMARK                         _______ _______ _______ _____ _____    ______ ____
ROOT
ATOM      1  C   UNL     1       2.214   7.425  19.621  0.00  0.00    +0.000 A 
ATOM      2  C   UNL     1       2.728   7.697  18.343  0.00  0.00    +0.000 A 
ATOM      3  C   UNL     1       2.308   8.821  17.636  0.00  0.00    +0.000 A 
ATOM      4  C   UNL     1       1.346   9.671  18.179  0.00  0.00    +0.000 A 
ATOM      5  C   UNL     1       0.777   9.407  19.428  0.00  0.00    +0.000 A 
ATOM      6  C   UNL     1       1.248   8.308  20.155  0.00  0.00    +0.000 A 
ENDROOT
BRANCH   5   7
ATOM      7  N   UNL     1      -0.294  10.164  19.975  0.00  0.00    +0.000 N 
ATOM      8  C   UNL     1      -0.132  11.197  20.868  0.00  0.00    +0.000 C 
ATOM      9  O   UNL     1       0.950  11.581  21.320  0.00  0.00    +0.000 OA
ATOM     10  H   UNL     1      -1.199  10.055  19.538  0.00  0.00    +0.000 HD
BRANCH   8  11
ATOM     11  C   UNL     1      -1.372  11.948  21.257  0.00  0.00    +0.000 A 
ATOM     12  C   UNL     1      -2.314  12.541  20.292  0.00  0.00    +0.000 A 
ATOM     13  C   UNL     1      -3.539  12.978  20.667  0.00  0.00    +0.000 A 
ATOM     14  C   UNL     1      -3.918  12.842  22.055  0.00  0.00    +0.000 A 
ATOM     15  C   UNL     1      -2.963  12.312  23.020  0.00  0.00    +0.000 A 
ATOM     16  C   UNL     1      -1.666  11.875  22.580  0.00  0.00    +0.000 A 
ATOM     17  C   UNL     1      -3.525  12.228  24.233  0.00  0.00    +0.000 C 
ATOM     18  C   UNL     1      -4.953  12.708  24.142  0.00  0.00    +0.000 C 
ATOM     19  C   UNL     1      -5.066  13.086  22.693  0.00  0.00    +0.000 C 
ATOM     20  F   UNL     1      -6.182  13.554  22.110  0.00  0.00    +0.000 F 
ENDBRANCH   8  11
ENDBRANCH   5   7
BRANCH   1  22
ATOM     21  C   UNL     1       1.446   5.189  20.530  0.00  0.00    +0.000 C 
ATOM     22  C   UNL     1       2.633   6.144  20.347  0.00  0.00    +0.000 C 
BRANCH  22  23
ATOM     23  S   UNL     1       4.036   5.393  19.418  0.00  0.00    +0.000 S 
BRANCH  23  24
ATOM     24  C   UNL     1       3.317   4.049  18.607  0.00  0.00    +0.000 A 
ATOM     25  N   UNL     1       2.515   4.083  17.569  0.00  0.00    +0.000 NA
ATOM     26  N   UNL     1       2.305   2.787  17.152  0.00  0.00    +0.000 NA
ATOM     27  C   UNL     1       2.956   1.998  17.976  0.00  0.00    +0.000 A 
ATOM     28  N   UNL     1       3.566   2.747  18.939  0.00  0.00    +0.000 N 
ATOM     29  C   UNL     1       4.283   2.217  20.068  0.00  0.00    +0.000 C 
ENDBRANCH  23  24
ENDBRANCH  22  23
ENDBRANCH   1  22
TORSDOF 5
ENDMDL
