MODEL 1
REMARK VINA RESULT:      -8.3      0.000      0.000
REMARK  Name = 
REMARK  3 active torsions:
REMARK  status: ('A' for Active; 'I' for Inactive)
REMARK    1  A    between atoms: C_1  and  C_2
REMARK    2  A    between atoms: C_9  and  C_10
REMARK    3  A    between atoms: C_10  and  N_11
REMARK                            x       y       z     vdW  Elec       q    Type
REMARK                         _______ _______ _______ _____ _____    ______ ____
ROOT
ATOM      1  N   UNL     1       1.448  10.352  19.043  0.00  0.00    +0.000 N 
ATOM      2  C   UNL     1       1.943  11.592  18.726  0.00  0.00    +0.000 C 
ATOM      3  O   UNL     1       2.708  11.889  17.829  0.00  0.00    +0.000 OA
ATOM      4  N   UNL     1       1.215  12.536  19.481  0.00  0.00    +0.000 N 
ATOM      5  C   UNL     1      -0.111  11.958  19.673  0.00  0.00    +0.000 C 
ATOM      6  C   UNL     1      -0.786  12.045  18.264  0.00  0.00    +0.000 C 
ATOM      7  C   UNL     1      -2.242  11.675  18.160  0.00  0.00    +0.000 C 
ATOM      8  C   UNL     1      -3.096  12.096  19.329  0.00  0.00    +0.000 C 
ATOM      9  C   UNL     1      -2.403  12.407  20.626  0.00  0.00    +0.000 A 
ATOM     10  C   UNL     1      -3.261  12.657  21.712  0.00  0.00    +0.000 A 
ATOM     11  C   UNL     1      -2.757  12.947  22.970  0.00  0.00    +0.000 A 
ATOM     12  C   UNL     1      -1.382  12.995  23.152  0.00  0.00    +0.000 A 
ATOM     13  C   UNL     1      -0.508  12.744  22.079  0.00  0.00    +0.000 A 
ATOM     14  C   UNL     1      -1.000  12.443  20.794  0.00  0.00    +0.000 A 
ATOM     15  C   UNL     1       0.410  10.537  19.917  0.00  0.00    +0.000 C 
ATOM     16  O   UNL     1      -0.050   9.677  20.654  0.00  0.00    +0.000 OA
ATOM     17  H   UNL     1       1.315  13.497  19.173  0.00  0.00    +0.000 HD
ENDROOT
BRANCH   1  18
ATOM     18  C   UNL     1       1.289   9.270  18.091  0.00  0.00    +0.000 C 
BRANCH  18  27
ATOM     19  C   UNL     1       6.629   5.112  15.312  0.00  0.00    +0.000 C 
ATOM     20  C   UNL     1       5.647   5.470  16.386  0.00  0.00    +0.000 A 
ATOM     21  C   UNL     1       5.490   4.542  17.487  0.00  0.00    +0.000 A 
ATOM     22  C   UNL     1       4.613   4.797  18.460  0.00  0.00    +0.000 A 
ATOM     23  N   UNL     1       3.815   5.921  18.453  0.00  0.00    +0.000 N 
ATOM     24  C   UNL     1       2.936   6.108  19.497  0.00  0.00    +0.000 A 
ATOM     25  O   UNL     1       2.812   5.402  20.491  0.00  0.00    +0.000 OA
ATOM     26  C   UNL     1       2.032   7.271  19.354  0.00  0.00    +0.000 A 
ATOM     27  C   UNL     1       2.198   8.098  18.326  0.00  0.00    +0.000 A 
ATOM     28  N   UNL     1       3.165   7.928  17.351  0.00  0.00    +0.000 NA
ATOM     29  C   UNL     1       3.898   6.864  17.436  0.00  0.00    +0.000 A 
ATOM     30  C   UNL     1       4.908   6.591  16.357  0.00  0.00    +0.000 A 
ENDBRANCH  18  27
ENDBRANCH   1  18
TORSDOF 2
ENDMDL
MODEL 2
REMARK VINA RESULT:      -8.1      1.365      2.385
REMARK  Name = 
REMARK  3 active torsions:
REMARK  status: ('A' for Active; 'I' for Inactive)
REMARK    1  A    between atoms: C_1  and  C_2
REMARK    2  A    between atoms: C_9  and  C_10
REMARK    3  A    between atoms: C_10  and  N_11
REMARK                            x       y       z     vdW  Elec       q    Type
REMARK                         _______ _______ _______ _____ _____    ______ ____
ROOT
ATOM      1  N   UNL     1       1.418  10.352  18.937  0.00  0.00    +0.000 N 
ATOM      2  C   UNL     1       1.943  11.602  18.719  0.00  0.00    +0.000 C 
ATOM      3  O   UNL     1       2.723  11.949  17.853  0.00  0.00    +0.000 OA
ATOM      4  N   UNL     1       1.230  12.502  19.539  0.00  0.00    +0.000 N 
ATOM      5  C   UNL     1      -0.111  11.941  19.676  0.00  0.00    +0.000 C 
ATOM      6  C   UNL     1      -0.770  12.151  18.273  0.00  0.00    +0.000 C 
ATOM      7  C   UNL     1      -2.233  11.822  18.130  0.00  0.00    +0.000 C 
ATOM      8  C   UNL     1      -3.089  12.172  19.322  0.00  0.00    +0.000 C 
ATOM      9  C   UNL     1      -2.400  12.368  20.644  0.00  0.00    +0.000 A 
ATOM     10  C   UNL     1      -3.263  12.554  21.740  0.00  0.00    +0.000 A 
ATOM     11  C   UNL     1      -2.764  12.735  23.019  0.00  0.00    +0.000 A 
ATOM     12  C   UNL     1      -1.390  12.738  23.215  0.00  0.00    +0.000 A 
ATOM     13  C   UNL     1      -0.512  12.550  22.132  0.00  0.00    +0.000 A 
ATOM     14  C   UNL     1      -0.999  12.359  20.824  0.00  0.00    +0.000 A 
ATOM     15  C   UNL     1       0.377  10.494  19.815  0.00  0.00    +0.000 C 
ATOM     16  O   UNL     1      -0.108   9.591  20.480  0.00  0.00    +0.000 OA
ATOM     17  H   UNL     1       1.353  13.481  19.305  0.00  0.00    +0.000 HD
ENDROOT
BRANCH   1  18
ATOM     18  C   UNL     1       1.244   9.350  17.904  0.00  0.00    +0.000 C 
BRANCH  18  27
ATOM     19  C   UNL     1       2.309   3.084  21.526  0.00  0.00    +0.000 C 
ATOM     20  C   UNL     1       2.699   4.111  20.508  0.00  0.00    +0.000 A 
ATOM     21  C   UNL     1       4.000   3.981  19.889  0.00  0.00    +0.000 A 
ATOM     22  C   UNL     1       4.412   4.881  18.992  0.00  0.00    +0.000 A 
ATOM     23  N   UNL     1       3.640   5.966  18.636  0.00  0.00    +0.000 N 
ATOM     24  C   UNL     1       4.139   6.847  17.702  0.00  0.00    +0.000 A 
ATOM     25  O   UNL     1       5.195   6.750  17.089  0.00  0.00    +0.000 OA
ATOM     26  C   UNL     1       3.308   8.048  17.466  0.00  0.00    +0.000 A 
ATOM     27  C   UNL     1       2.120   8.140  18.059  0.00  0.00    +0.000 A 
ATOM     28  N   UNL     1       1.611   7.179  18.914  0.00  0.00    +0.000 NA
ATOM     29  C   UNL     1       2.379   6.171  19.181  0.00  0.00    +0.000 A 
ATOM     30  C   UNL     1       1.905   5.141  20.168  0.00  0.00    +0.000 A 
ENDBRANCH  18  27
ENDBRANCH   1  18
TORSDOF 2
ENDMDL
MODEL 3
REMARK VINA RESULT:      -7.9      2.357      8.394
REMARK  Name = 
REMARK  3 active torsions:
REMARK  status: ('A' for Active; 'I' for Inactive)
REMARK    1  A    between atoms: C_1  and  C_2
REMARK    2  A    between atoms: C_9  and  C_10
REMARK    3  A    between atoms: C_10  and  N_11
REMARK                            x       y       z     vdW  Elec       q    Type
REMARK                         _______ _______ _______ _____ _____    ______ ____
ROOT
ATOM      1  N   UNL     1       2.225   7.941  18.840  0.00  0.00    +0.000 N 
ATOM      2  C   UNL     1       2.198   7.352  20.079  0.00  0.00    +0.000 C 
ATOM      3  O   UNL     1       1.332   7.430  20.930  0.00  0.00    +0.000 OA
ATOM      4  N   UNL     1       3.256   6.419  20.121  0.00  0.00    +0.000 N 
ATOM      5  C   UNL     1       3.435   5.957  18.748  0.00  0.00    +0.000 C 
ATOM      6  C   UNL     1       2.187   5.055  18.470  0.00  0.00    +0.000 C 
ATOM      7  C   UNL     1       2.154   4.284  17.178  0.00  0.00    +0.000 C 
ATOM      8  C   UNL     1       3.483   3.731  16.726  0.00  0.00    +0.000 C 
ATOM      9  C   UNL     1       4.728   4.345  17.302  0.00  0.00    +0.000 A 
ATOM     10  C   UNL     1       5.932   3.883  16.739  0.00  0.00    +0.000 A 
ATOM     11  C   UNL     1       7.156   4.372  17.168  0.00  0.00    +0.000 A 
ATOM     12  C   UNL     1       7.187   5.329  18.173  0.00  0.00    +0.000 A 
ATOM     13  C   UNL     1       5.993   5.805  18.745  0.00  0.00    +0.000 A 
ATOM     14  C   UNL     1       4.739   5.324  18.320  0.00  0.00    +0.000 A 
ATOM     15  C   UNL     1       3.229   7.343  18.125  0.00  0.00    +0.000 C 
ATOM     16  O   UNL     1       3.757   7.812  17.127  0.00  0.00    +0.000 OA
ATOM     17  H   UNL     1       3.207   5.752  20.883  0.00  0.00    +0.000 HD
ENDROOT
BRANCH   1  18
ATOM     18  C   UNL     1       1.043   8.308  18.085  0.00  0.00    +0.000 C 
BRANCH  18  27
ATOM     19  C   UNL     1       3.485  15.162  18.847  0.00  0.00    +0.000 C 
ATOM     20  C   UNL     1       2.388  14.150  18.716  0.00  0.00    +0.000 A 
ATOM     21  C   UNL     1       1.029  14.607  18.916  0.00  0.00    +0.000 A 
ATOM     22  C   UNL     1       0.011  13.745  18.836  0.00  0.00    +0.000 A 
ATOM     23  N   UNL     1       0.205  12.404  18.585  0.00  0.00    +0.000 N 
ATOM     24  C   UNL     1      -0.899  11.583  18.519  0.00  0.00    +0.000 A 
ATOM     25  O   UNL     1      -2.074  11.921  18.602  0.00  0.00    +0.000 OA
ATOM     26  C   UNL     1      -0.601  10.142  18.369  0.00  0.00    +0.000 A 
ATOM     27  C   UNL     1       0.661   9.756  18.195  0.00  0.00    +0.000 A 
ATOM     28  N   UNL     1       1.734  10.628  18.167  0.00  0.00    +0.000 NA
ATOM     29  C   UNL     1       1.476  11.879  18.382  0.00  0.00    +0.000 A 
ATOM     30  C   UNL     1       2.616  12.855  18.443  0.00  0.00    +0.000 A 
ENDBRANCH  18  27
ENDBRANCH   1  18
TORSDOF 2
ENDMDL
MODEL 4
REMARK VINA RESULT:      -7.8      2.468      4.165
REMARK  Name = 
REMARK  3 active torsions:
REMARK  status: ('A' for Active; 'I' for Inactive)
REMARK    1  A    between atoms: C_1  and  C_2
REMARK    2  A    between atoms: C_9  and  C_10
REMARK    3  A    between atoms: C_10  and  N_11
REMARK                            x       y       z     vdW  Elec       q    Type
REMARK                         _______ _______ _______ _____ _____    ______ ____
ROOT
ATOM      1  N   UNL     1      -0.554  10.900  21.490  0.00  0.00    +0.000 N 
ATOM      2  C   UNL     1      -0.802  10.708  22.826  0.00  0.00    +0.000 C 
ATOM      3  O   UNL     1      -0.091  10.168  23.652  0.00  0.00    +0.000 OA
ATOM      4  N   UNL     1      -1.943  11.472  23.152  0.00  0.00    +0.000 N 
ATOM      5  C   UNL     1      -1.931  12.615  22.245  0.00  0.00    +0.000 C 
ATOM      6  C   UNL     1      -0.755  13.511  22.757  0.00  0.00    +0.000 C 
ATOM      7  C   UNL     1      -0.582  14.867  22.125  0.00  0.00    +0.000 C 
ATOM      8  C   UNL     1      -1.864  15.587  21.788  0.00  0.00    +0.000 C 
ATOM      9  C   UNL     1      -3.118  14.766  21.676  0.00  0.00    +0.000 A 
ATOM     10  C   UNL     1      -4.249  15.471  21.224  0.00  0.00    +0.000 A 
ATOM     11  C   UNL     1      -5.470  14.835  21.065  0.00  0.00    +0.000 A 
ATOM     12  C   UNL     1      -5.573  13.484  21.362  0.00  0.00    +0.000 A 
ATOM     13  C   UNL     1      -4.453  12.762  21.811  0.00  0.00    +0.000 A 
ATOM     14  C   UNL     1      -3.201  13.388  21.976  0.00  0.00    +0.000 A 
ATOM     15  C   UNL     1      -1.478  11.799  21.028  0.00  0.00    +0.000 C 
ATOM     16  O   UNL     1      -1.774  11.962  19.854  0.00  0.00    +0.000 OA
ATOM     17  H   UNL     1      -2.095  11.608  24.145  0.00  0.00    +0.000 HD
ENDROOT
BRANCH   1  18
ATOM     18  C   UNL     1       0.772  11.000  20.912  0.00  0.00    +0.000 C 
BRANCH  18  27
ATOM     19  C   UNL     1       2.226   3.833  21.114  0.00  0.00    +0.000 C 
ATOM     20  C   UNL     1       2.130   5.149  20.403  0.00  0.00    +0.000 A 
ATOM     21  C   UNL     1       2.652   5.222  19.055  0.00  0.00    +0.000 A 
ATOM     22  C   UNL     1       2.616   6.375  18.382  0.00  0.00    +0.000 A 
ATOM     23  N   UNL     1       2.108   7.531  18.935  0.00  0.00    +0.000 N 
ATOM     24  C   UNL     1       2.108   8.678  18.172  0.00  0.00    +0.000 A 
ATOM     25  O   UNL     1       2.463   8.785  17.004  0.00  0.00    +0.000 OA
ATOM     26  C   UNL     1       1.662   9.900  18.877  0.00  0.00    +0.000 A 
ATOM     27  C   UNL     1       1.196   9.798  20.119  0.00  0.00    +0.000 A 
ATOM     28  N   UNL     1       1.119   8.605  20.816  0.00  0.00    +0.000 NA
ATOM     29  C   UNL     1       1.588   7.552  20.223  0.00  0.00    +0.000 A 
ATOM     30  C   UNL     1       1.602   6.248  20.968  0.00  0.00    +0.000 A 
ENDBRANCH  18  27
ENDBRANCH   1  18
TORSDOF 2
ENDMDL
MODEL 5
REMARK VINA RESULT:      -7.5      2.023      2.670
REMARK  Name = 
REMARK  3 active torsions:
REMARK  status: ('A' for Active; 'I' for Inactive)
REMARK    1  A    between atoms: C_1  and  C_2
REMARK    2  A    between atoms: C_9  and  C_10
REMARK    3  A    between atoms: C_10  and  N_11
REMARK                            x       y       z     vdW  Elec       q    Type
REMARK                         _______ _______ _______ _____ _____    ______ ____
ROOT
ATOM      1  N   UNL     1       0.659  10.441  19.549  0.00  0.00    +0.000 N 
ATOM      2  C   UNL     1      -0.057  10.580  18.386  0.00  0.00    +0.000 C 
ATOM      3  O   UNL     1      -0.576   9.709  17.714  0.00  0.00    +0.000 OA
ATOM      4  N   UNL     1      -0.307  11.958  18.214  0.00  0.00    +0.000 N 
ATOM      5  C   UNL     1      -0.377  12.523  19.558  0.00  0.00    +0.000 C 
ATOM      6  C   UNL     1      -1.730  11.993  20.137  0.00  0.00    +0.000 C 
ATOM      7  C   UNL     1      -2.183  12.535  21.467  0.00  0.00    +0.000 C 
ATOM      8  C   UNL     1      -1.892  13.998  21.697  0.00  0.00    +0.000 C 
ATOM      9  C   UNL     1      -0.832  14.642  20.847  0.00  0.00    +0.000 A 
ATOM     10  C   UNL     1      -0.511  15.965  21.202  0.00  0.00    +0.000 A 
ATOM     11  C   UNL     1       0.456  16.676  20.510  0.00  0.00    +0.000 A 
ATOM     12  C   UNL     1       1.111  16.068  19.447  0.00  0.00    +0.000 A 
ATOM     13  C   UNL     1       0.806  14.745  19.081  0.00  0.00    +0.000 A 
ATOM     14  C   UNL     1      -0.171  14.004  19.774  0.00  0.00    +0.000 A 
ATOM     15  C   UNL     1       0.789  11.688  20.101  0.00  0.00    +0.000 C 
ATOM     16  O   UNL     1       1.619  12.002  20.940  0.00  0.00    +0.000 OA
ATOM     17  H   UNL     1      -1.021  12.179  17.528  0.00  0.00    +0.000 HD
ENDROOT
BRANCH   1  18
ATOM     18  C   UNL     1       0.488   9.348  20.487  0.00  0.00    +0.000 C 
BRANCH  18  27
ATOM     19  C   UNL     1       5.198   6.255  15.821  0.00  0.00    +0.000 C 
ATOM     20  C   UNL     1       4.363   6.247  17.065  0.00  0.00    +0.000 A 
ATOM     21  C   UNL     1       4.259   5.001  17.794  0.00  0.00    +0.000 A 
ATOM     22  C   UNL     1       3.509   4.928  18.897  0.00  0.00    +0.000 A 
ATOM     23  N   UNL     1       2.797   6.009  19.372  0.00  0.00    +0.000 N 
ATOM     24  C   UNL     1       2.048   5.848  20.517  0.00  0.00    +0.000 A 
ATOM     25  O   UNL     1       1.981   4.846  21.218  0.00  0.00    +0.000 OA
ATOM     26  C   UNL     1       1.218   7.014  20.891  0.00  0.00    +0.000 A 
ATOM     27  C   UNL     1       1.332   8.142  20.194  0.00  0.00    +0.000 A 
ATOM     28  N   UNL     1       2.176   8.291  19.108  0.00  0.00    +0.000 NA
ATOM     29  C   UNL     1       2.838   7.242  18.734  0.00  0.00    +0.000 A 
ATOM     30  C   UNL     1       3.705   7.331  17.511  0.00  0.00    +0.000 A 
ENDBRANCH  18  27
ENDBRANCH   1  18
TORSDOF 2
ENDMDL
MODEL 6
REMARK VINA RESULT:      -7.4      2.364      3.731
REMARK  Name = 
REMARK  3 active torsions:
REMARK  status: ('A' for Active; 'I' for Inactive)
REMARK    1  A    between atoms: C_1  and  C_2
REMARK    2  A    between atoms: C_9  and  C_10
REMARK    3  A    between atoms: C_10  and  N_11
REMARK                            x       y       z     vdW  Elec       q    Type
REMARK                         _______ _______ _______ _____ _____    ______ ____
ROOT
ATOM      1  N   UNL     1       0.443  10.735  20.029  0.00  0.00    +0.000 N 
ATOM      2  C   UNL     1      -0.689  10.902  19.271  0.00  0.00    +0.000 C 
ATOM      3  O   UNL     1      -1.410  10.045  18.797  0.00  0.00    +0.000 OA
ATOM      4  N   UNL     1      -1.030  12.270  19.329  0.00  0.00    +0.000 N 
ATOM      5  C   UNL     1      -0.563  12.744  20.628  0.00  0.00    +0.000 C 
ATOM      6  C   UNL     1      -1.545  12.096  21.660  0.00  0.00    +0.000 C 
ATOM      7  C   UNL     1      -1.432  12.525  23.099  0.00  0.00    +0.000 C 
ATOM      8  C   UNL     1      -1.118  13.985  23.311  0.00  0.00    +0.000 C 
ATOM      9  C   UNL     1      -0.517  14.746  22.162  0.00  0.00    +0.000 A 
ATOM     10  C   UNL     1      -0.120  16.061  22.465  0.00  0.00    +0.000 A 
ATOM     11  C   UNL     1       0.459  16.872  21.502  0.00  0.00    +0.000 A 
ATOM     12  C   UNL     1       0.642  16.374  20.219  0.00  0.00    +0.000 A 
ATOM     13  C   UNL     1       0.254  15.061  19.899  0.00  0.00    +0.000 A 
ATOM     14  C   UNL     1      -0.332  14.218  20.864  0.00  0.00    +0.000 A 
ATOM     15  C   UNL     1       0.748  11.950  20.583  0.00  0.00    +0.000 C 
ATOM     16  O   UNL     1       1.839  12.261  21.037  0.00  0.00    +0.000 OA
ATOM     17  H   UNL     1      -1.968  12.489  19.012  0.00  0.00    +0.000 HD
ENDROOT
BRANCH   1  18
ATOM     18  C   UNL     1       0.703   9.577  20.862  0.00  0.00    +0.000 C 
BRANCH  18  27
ATOM     19  C   UNL     1       2.753   2.566  21.267  0.00  0.00    +0.000 C 
ATOM     20  C   UNL     1       2.663   3.884  20.560  0.00  0.00    +0.000 A 
ATOM     21  C   UNL     1       3.405   4.035  19.327  0.00  0.00    +0.000 A 
ATOM     22  C   UNL     1       3.382   5.195  18.666  0.00  0.00    +0.000 A 
ATOM     23  N   UNL     1       2.680   6.288  19.129  0.00  0.00    +0.000 N 
ATOM     24  C   UNL     1       2.709   7.448  18.386  0.00  0.00    +0.000 A 
ATOM     25  O   UNL     1       3.253   7.614  17.301  0.00  0.00    +0.000 OA
ATOM     26  C   UNL     1       2.035   8.608  19.010  0.00  0.00    +0.000 A 
ATOM     27  C   UNL     1       1.369   8.436  20.148  0.00  0.00    +0.000 A 
ATOM     28  N   UNL     1       1.281   7.225  20.811  0.00  0.00    +0.000 NA
ATOM     29  C   UNL     1       1.941   6.233  20.304  0.00  0.00    +0.000 A 
ATOM     30  C   UNL     1       1.945   4.917  21.031  0.00  0.00    +0.000 A 
ENDBRANCH  18  27
ENDBRANCH   1  18
TORSDOF 2
ENDMDL
MODEL 7
REMARK VINA RESULT:      -7.3      4.802      7.349
REMARK  Name = 
REMARK  3 active torsions:
REMARK  status: ('A' for Active; 'I' for Inactive)
REMARK    1  A    between atoms: C_1  and  C_2
REMARK    2  A    between atoms: C_9  and  C_10
REMARK    3  A    between atoms: C_10  and  N_11
REMARK                            x       y       z     vdW  Elec       q    Type
REMARK                         _______ _______ _______ _____ _____    ______ ____
ROOT
ATOM      1  N   UNL     1       0.689  12.701  19.813  0.00  0.00    +0.000 N 
ATOM      2  C   UNL     1       0.731  11.523  20.517  0.00  0.00    +0.000 C 
ATOM      3  O   UNL     1       1.321  11.288  21.553  0.00  0.00    +0.000 OA
ATOM      4  N   UNL     1      -0.242  10.668  19.956  0.00  0.00    +0.000 N 
ATOM      5  C   UNL     1      -1.292  11.541  19.442  0.00  0.00    +0.000 C 
ATOM      6  C   UNL     1      -2.008  12.091  20.720  0.00  0.00    +0.000 C 
ATOM      7  C   UNL     1      -3.260  12.904  20.527  0.00  0.00    +0.000 C 
ATOM      8  C   UNL     1      -4.163  12.437  19.413  0.00  0.00    +0.000 C 
ATOM      9  C   UNL     1      -3.567  11.555  18.352  0.00  0.00    +0.000 A 
ATOM     10  C   UNL     1      -4.420  11.268  17.270  0.00  0.00    +0.000 A 
ATOM     11  C   UNL     1      -3.995  10.475  16.216  0.00  0.00    +0.000 A 
ATOM     12  C   UNL     1      -2.709   9.954  16.237  0.00  0.00    +0.000 A 
ATOM     13  C   UNL     1      -1.841  10.233  17.307  0.00  0.00    +0.000 A 
ATOM     14  C   UNL     1      -2.251  11.041  18.387  0.00  0.00    +0.000 A 
ATOM     15  C   UNL     1      -0.319  12.592  18.892  0.00  0.00    +0.000 C 
ATOM     16  O   UNL     1      -0.440  13.289  17.896  0.00  0.00    +0.000 OA
ATOM     17  H   UNL     1      -0.478   9.862  20.523  0.00  0.00    +0.000 HD
ENDROOT
BRANCH   1  18
ATOM     18  C   UNL     1       0.864  14.012  20.407  0.00  0.00    +0.000 C 
BRANCH  18  27
ATOM     19  C   UNL     1       7.950  15.575  21.343  0.00  0.00    +0.000 C 
ATOM     20  C   UNL     1       6.642  15.719  20.627  0.00  0.00    +0.000 A 
ATOM     21  C   UNL     1       6.545  16.744  19.609  0.00  0.00    +0.000 A 
ATOM     22  C   UNL     1       5.397  16.935  18.955  0.00  0.00    +0.000 A 
ATOM     23  N   UNL     1       4.266  16.194  19.226  0.00  0.00    +0.000 N 
ATOM     24  C   UNL     1       3.122  16.456  18.505  0.00  0.00    +0.000 A 
ATOM     25  O   UNL     1       2.999  17.253  17.582  0.00  0.00    +0.000 OA
ATOM     26  C   UNL     1       1.923  15.706  18.939  0.00  0.00    +0.000 A 
ATOM     27  C   UNL     1       2.046  14.777  19.883  0.00  0.00    +0.000 A 
ATOM     28  N   UNL     1       3.240  14.475  20.513  0.00  0.00    +0.000 NA
ATOM     29  C   UNL     1       4.269  15.192  20.188  0.00  0.00    +0.000 A 
ATOM     30  C   UNL     1       5.570  14.958  20.902  0.00  0.00    +0.000 A 
ENDBRANCH  18  27
ENDBRANCH   1  18
TORSDOF 2
ENDMDL
MODEL 8
REMARK VINA RESULT:      -7.2      4.865      7.157
REMARK  Name = 
REMARK  3 active torsions:
REMARK  status: ('A' for Active; 'I' for Inactive)
REMARK    1  A    between atoms: C_1  and  C_2
REMARK    2  A    between atoms: C_9  and  C_10
REMARK    3  A    between atoms: C_10  and  N_11
REMARK                            x       y       z     vdW  Elec       q    Type
REMARK                         _______ _______ _______ _____ _____    ______ ____
ROOT
ATOM      1  N   UNL     1       0.354  12.794  19.845  0.00  0.00    +0.000 N 
ATOM      2  C   UNL     1       0.411  11.605  20.528  0.00  0.00    +0.000 C 
ATOM      3  O   UNL     1       0.928  11.381  21.606  0.00  0.00    +0.000 OA
ATOM      4  N   UNL     1      -0.459  10.707  19.874  0.00  0.00    +0.000 N 
ATOM      5  C   UNL     1      -1.516  11.527  19.291  0.00  0.00    +0.000 C 
ATOM      6  C   UNL     1      -2.365  12.004  20.515  0.00  0.00    +0.000 C 
ATOM      7  C   UNL     1      -3.645  12.746  20.234  0.00  0.00    +0.000 C 
ATOM      8  C   UNL     1      -4.424  12.252  19.041  0.00  0.00    +0.000 C 
ATOM      9  C   UNL     1      -3.691  11.431  18.017  0.00  0.00    +0.000 A 
ATOM     10  C   UNL     1      -4.435  11.119  16.865  0.00  0.00    +0.000 A 
ATOM     11  C   UNL     1      -3.878  10.377  15.835  0.00  0.00    +0.000 A 
ATOM     12  C   UNL     1      -2.569   9.933  15.952  0.00  0.00    +0.000 A 
ATOM     13  C   UNL     1      -1.809  10.239  17.095  0.00  0.00    +0.000 A 
ATOM     14  C   UNL     1      -2.353  10.995  18.152  0.00  0.00    +0.000 A 
ATOM     15  C   UNL     1      -0.568  12.646  18.843  0.00  0.00    +0.000 C 
ATOM     16  O   UNL     1      -0.649  13.358  17.853  0.00  0.00    +0.000 OA
ATOM     17  H   UNL     1      -0.692   9.875  20.406  0.00  0.00    +0.000 HD
ENDROOT
BRANCH   1  18
ATOM     18  C   UNL     1       0.401  14.099  20.475  0.00  0.00    +0.000 C 
BRANCH  18  27
ATOM     19  C   UNL     1       7.117  14.210  17.578  0.00  0.00    +0.000 C 
ATOM     20  C   UNL     1       5.912  14.882  18.161  0.00  0.00    +0.000 A 
ATOM     21  C   UNL     1       6.009  16.297  18.453  0.00  0.00    +0.000 A 
ATOM     22  C   UNL     1       4.974  16.944  18.996  0.00  0.00    +0.000 A 
ATOM     23  N   UNL     1       3.796  16.303  19.318  0.00  0.00    +0.000 N 
ATOM     24  C   UNL     1       2.778  17.044  19.875  0.00  0.00    +0.000 A 
ATOM     25  O   UNL     1       2.771  18.253  20.074  0.00  0.00    +0.000 OA
ATOM     26  C   UNL     1       1.597  16.264  20.304  0.00  0.00    +0.000 A 
ATOM     27  C   UNL     1       1.545  14.963  20.028  0.00  0.00    +0.000 A 
ATOM     28  N   UNL     1       2.551  14.275  19.373  0.00  0.00    +0.000 NA
ATOM     29  C   UNL     1       3.617  14.947  19.074  0.00  0.00    +0.000 A 
ATOM     30  C   UNL     1       4.771  14.227  18.436  0.00  0.00    +0.000 A 
ENDBRANCH  18  27
ENDBRANCH   1  18
TORSDOF 2
ENDMDL
MODEL 9
REMARK VINA RESULT:      -7.2      4.575      7.062
REMARK  Name = 
REMARK  3 active torsions:
REMARK  status: ('A' for Active; 'I' for Inactive)
REMARK    1  A    between atoms: C_1  and  C_2
REMARK    2  A    between atoms: C_9  and  C_10
REMARK    3  A    between atoms: C_10  and  N_11
REMARK                            x       y       z     vdW  Elec       q    Type
REMARK                         _______ _______ _______ _____ _____    ______ ____
ROOT
ATOM      1  N   UNL     1       0.790  12.158  19.964  0.00  0.00    +0.000 N 
ATOM      2  C   UNL     1       0.684  10.948  20.602  0.00  0.00    +0.000 C 
ATOM      3  O   UNL     1       1.202  10.600  21.646  0.00  0.00    +0.000 OA
ATOM      4  N   UNL     1      -0.343  10.226  19.957  0.00  0.00    +0.000 N 
ATOM      5  C   UNL     1      -1.278  11.227  19.453  0.00  0.00    +0.000 C 
ATOM      6  C   UNL     1      -1.991  11.780  20.731  0.00  0.00    +0.000 C 
ATOM      7  C   UNL     1      -3.146  12.725  20.535  0.00  0.00    +0.000 C 
ATOM      8  C   UNL     1      -4.042  12.410  19.363  0.00  0.00    +0.000 C 
ATOM      9  C   UNL     1      -3.490  11.528  18.279  0.00  0.00    +0.000 A 
ATOM     10  C   UNL     1      -4.320  11.385  17.151  0.00  0.00    +0.000 A 
ATOM     11  C   UNL     1      -3.930  10.608  16.071  0.00  0.00    +0.000 A 
ATOM     12  C   UNL     1      -2.704   9.959  16.112  0.00  0.00    +0.000 A 
ATOM     13  C   UNL     1      -1.860  10.093  17.229  0.00  0.00    +0.000 A 
ATOM     14  C   UNL     1      -2.235  10.881  18.336  0.00  0.00    +0.000 A 
ATOM     15  C   UNL     1      -0.183  12.200  19.000  0.00  0.00    +0.000 C 
ATOM     16  O   UNL     1      -0.190  12.956  18.041  0.00  0.00    +0.000 OA
ATOM     17  H   UNL     1      -0.684   9.420  20.470  0.00  0.00    +0.000 HD
ENDROOT
BRANCH   1  18
ATOM     18  C   UNL     1       1.069  13.413  20.636  0.00  0.00    +0.000 C 
BRANCH  18  27
ATOM     19  C   UNL     1       7.288  14.954  24.168  0.00  0.00    +0.000 C 
ATOM     20  C   UNL     1       6.451  14.870  22.928  0.00  0.00    +0.000 A 
ATOM     21  C   UNL     1       6.990  15.449  21.716  0.00  0.00    +0.000 A 
ATOM     22  C   UNL     1       6.279  15.425  20.585  0.00  0.00    +0.000 A 
ATOM     23  N   UNL     1       5.014  14.879  20.526  0.00  0.00    +0.000 N 
ATOM     24  C   UNL     1       4.349  14.896  19.321  0.00  0.00    +0.000 A 
ATOM     25  O   UNL     1       4.780  15.299  18.247  0.00  0.00    +0.000 OA
ATOM     26  C   UNL     1       2.954  14.404  19.368  0.00  0.00    +0.000 A 
ATOM     27  C   UNL     1       2.488  13.887  20.501  0.00  0.00    +0.000 A 
ATOM     28  N   UNL     1       3.228  13.796  21.667  0.00  0.00    +0.000 NA
ATOM     29  C   UNL     1       4.419  14.304  21.642  0.00  0.00    +0.000 A 
ATOM     30  C   UNL     1       5.233  14.304  22.905  0.00  0.00    +0.000 A 
ENDBRANCH  18  27
ENDBRANCH   1  18
TORSDOF 2
ENDMDL
