MODEL 1
REMARK VINA RESULT:      -8.3      0.000      0.000
REMARK  Name = 
REMARK  6 active torsions:
REMARK  status: ('A' for Active; 'I' for Inactive)
REMARK    1  A    between atoms: C_1  and  N_2
REMARK    2  A    between atoms: N_2  and  C_3
REMARK    3  A    between atoms: C_4  and  C_5
REMARK    4  A    between atoms: N_9  and  C_10
REMARK    5  A    between atoms: C_13  and  N_14
REMARK    6  A    between atoms: C_21  and  C_22
REMARK                            x       y       z     vdW  Elec       q    Type
REMARK                         _______ _______ _______ _____ _____    ______ ____
ROOT
ATOM      1  C   UNL     1       1.144   9.268  21.078  0.00  0.00    +0.000 C 
ATOM      2  C   UNL     1       0.975  10.196  20.106  0.00  0.00    +0.000 C 
ATOM      3  C   UNL     1       1.163   9.814  18.655  0.00  0.00    +0.000 C 
ATOM      4  C   UNL     1       2.103   8.626  18.427  0.00  0.00    +0.000 C 
ATOM      5  C   UNL     1       1.999   7.564  19.499  0.00  0.00    +0.000 C 
ATOM      6  C   UNL     1       1.524   7.909  20.712  0.00  0.00    +0.000 C 
ENDROOT
BRANCH   5   7
ATOM      7  N   UNL     1       2.403   6.263  19.202  0.00  0.00    +0.000 N 
ATOM      8  C   UNL     1       3.432   5.961  18.210  0.00  0.00    +0.000 C 
ATOM      9  C   UNL     1       3.491   4.469  18.193  0.00  0.00    +0.000 A 
ATOM     10  C   UNL     1       2.570   3.959  19.105  0.00  0.00    +0.000 A 
ATOM     11  C   UNL     1       2.373   2.606  19.291  0.00  0.00    +0.000 A 
ATOM     12  C   UNL     1       3.142   1.732  18.521  0.00  0.00    +0.000 A 
ATOM     13  C   UNL     1       4.085   2.231  17.603  0.00  0.00    +0.000 A 
ATOM     14  C   UNL     1       4.279   3.616  17.428  0.00  0.00    +0.000 A 
ATOM     15  C   UNL     1       1.882   5.084  19.754  0.00  0.00    +0.000 C 
ATOM     16  O   UNL     1       1.014   4.917  20.590  0.00  0.00    +0.000 OA
BRANCH  14  17
ATOM     17  C   UNL     1       5.304   4.118  16.442  0.00  0.00    +0.000 C 
ATOM     18  F   UNL     1       6.322   4.812  17.022  0.00  0.00    +0.000 F 
ATOM     19  F   UNL     1       5.891   3.109  15.747  0.00  0.00    +0.000 F 
ATOM     20  F   UNL     1       4.766   4.956  15.515  0.00  0.00    +0.000 F 
ENDBRANCH  14  17
ENDBRANCH   5   7
BRANCH   2  21
ATOM     21  C   UNL     1       0.634  11.521  20.497  0.00  0.00    +0.000 A 
ATOM     22  N   UNL     1       1.338  12.439  21.126  0.00  0.00    +0.000 NA
ATOM     23  N   UNL     1       0.578  13.584  21.211  0.00  0.00    +0.000 NA
ATOM     24  C   UNL     1      -0.569  13.340  20.624  0.00  0.00    +0.000 A 
ATOM     25  N   UNL     1      -0.588  12.057  20.171  0.00  0.00    +0.000 N 
ATOM     26  C   UNL     1      -1.673  11.429  19.464  0.00  0.00    +0.000 C 
ENDBRANCH   2  21
BRANCH   1  28
ATOM     27  C   UNL     1      -0.448   9.340  22.976  0.00  0.00    +0.000 C 
ATOM     28  N   UNL     1       0.902   9.470  22.439  0.00  0.00    +0.000 N 
ATOM     29  H   UNL     1       1.514   8.840  22.972  0.00  0.00    +0.000 HD
ENDBRANCH   1  28
TORSDOF 4
ENDMDL
MODEL 2
REMARK VINA RESULT:      -8.1      1.463      2.073
REMARK  Name = 
REMARK  6 active torsions:
REMARK  status: ('A' for Active; 'I' for Inactive)
REMARK    1  A    between atoms: C_1  and  N_2
REMARK    2  A    between atoms: N_2  and  C_3
REMARK    3  A    between atoms: C_4  and  C_5
REMARK    4  A    between atoms: N_9  and  C_10
REMARK    5  A    between atoms: C_13  and  N_14
REMARK    6  A    between atoms: C_21  and  C_22
REMARK                            x       y       z     vdW  Elec       q    Type
REMARK                         _______ _______ _______ _____ _____    ______ ____
ROOT
ATOM      1  C   UNL     1       0.269  10.248  20.761  0.00  0.00    +0.000 C 
ATOM      2  C   UNL     1      -0.356  10.869  19.732  0.00  0.00    +0.000 C 
ATOM      3  C   UNL     1      -0.220  10.326  18.326  0.00  0.00    +0.000 C 
ATOM      4  C   UNL     1       1.061   9.525  18.076  0.00  0.00    +0.000 C 
ATOM      5  C   UNL     1       1.498   8.702  19.267  0.00  0.00    +0.000 C 
ATOM      6  C   UNL     1       1.082   9.067  20.496  0.00  0.00    +0.000 C 
ENDROOT
BRANCH   5   7
ATOM      7  N   UNL     1       2.321   7.596  19.059  0.00  0.00    +0.000 N 
ATOM      8  C   UNL     1       3.335   7.551  18.010  0.00  0.00    +0.000 C 
ATOM      9  C   UNL     1       3.919   6.182  18.130  0.00  0.00    +0.000 A 
ATOM     10  C   UNL     1       3.288   5.500  19.167  0.00  0.00    +0.000 A 
ATOM     11  C   UNL     1       3.595   4.195  19.498  0.00  0.00    +0.000 A 
ATOM     12  C   UNL     1       4.582   3.555  18.747  0.00  0.00    +0.000 A 
ATOM     13  C   UNL     1       5.236   4.234  17.702  0.00  0.00    +0.000 A 
ATOM     14  C   UNL     1       4.916   5.569  17.379  0.00  0.00    +0.000 A 
ATOM     15  C   UNL     1       2.282   6.386  19.767  0.00  0.00    +0.000 C 
ATOM     16  O   UNL     1       1.576   6.031  20.692  0.00  0.00    +0.000 OA
BRANCH  14  17
ATOM     17  C   UNL     1       5.642   6.271  16.259  0.00  0.00    +0.000 C 
ATOM     18  F   UNL     1       6.502   5.463  15.579  0.00  0.00    +0.000 F 
ATOM     19  F   UNL     1       4.793   6.776  15.327  0.00  0.00    +0.000 F 
ATOM     20  F   UNL     1       6.389   7.319  16.700  0.00  0.00    +0.000 F 
ENDBRANCH  14  17
ENDBRANCH   5   7
BRANCH   2  21
ATOM     21  C   UNL     1      -1.119  12.036  20.018  0.00  0.00    +0.000 A 
ATOM     22  N   UNL     1      -2.337  12.169  20.503  0.00  0.00    +0.000 NA
ATOM     23  N   UNL     1      -2.595  13.513  20.657  0.00  0.00    +0.000 NA
ATOM     24  C   UNL     1      -1.526  14.167  20.271  0.00  0.00    +0.000 A 
ATOM     25  N   UNL     1      -0.578  13.286  19.850  0.00  0.00    +0.000 N 
ATOM     26  C   UNL     1       0.734  13.628  19.366  0.00  0.00    +0.000 C 
ENDBRANCH   2  21
BRANCH   1  28
ATOM     27  C   UNL     1      -0.197   9.572  23.099  0.00  0.00    +0.000 C 
ATOM     28  N   UNL     1       0.139  10.589  22.109  0.00  0.00    +0.000 N 
ATOM     29  H   UNL     1       1.009  11.046  22.411  0.00  0.00    +0.000 HD
ENDBRANCH   1  28
TORSDOF 4
ENDMDL
MODEL 3
REMARK VINA RESULT:      -8.0      4.252      8.542
REMARK  Name = 
REMARK  6 active torsions:
REMARK  status: ('A' for Active; 'I' for Inactive)
REMARK    1  A    between atoms: C_1  and  N_2
REMARK    2  A    between atoms: N_2  and  C_3
REMARK    3  A    between atoms: C_4  and  C_5
REMARK    4  A    between atoms: N_9  and  C_10
REMARK    5  A    between atoms: C_13  and  N_14
REMARK    6  A    between atoms: C_21  and  C_22
REMARK                            x       y       z     vdW  Elec       q    Type
REMARK                         _______ _______ _______ _____ _____    ______ ____
ROOT
ATOM      1  C   UNL     1       2.564   6.497  19.678  0.00  0.00    +0.000 C 
ATOM      2  C   UNL     1       2.974   6.650  18.396  0.00  0.00    +0.000 C 
ATOM      3  C   UNL     1       2.785   7.978  17.696  0.00  0.00    +0.000 C 
ATOM      4  C   UNL     1       1.631   8.825  18.241  0.00  0.00    +0.000 C 
ATOM      5  C   UNL     1       1.455   8.709  19.739  0.00  0.00    +0.000 C 
ATOM      6  C   UNL     1       1.929   7.614  20.365  0.00  0.00    +0.000 C 
ENDROOT
BRANCH   5   7
ATOM      7  N   UNL     1       0.805   9.734  20.424  0.00  0.00    +0.000 N 
ATOM      8  C   UNL     1       1.034  11.148  20.137  0.00  0.00    +0.000 C 
ATOM      9  C   UNL     1       0.180  11.862  21.132  0.00  0.00    +0.000 A 
ATOM     10  C   UNL     1      -0.486  10.930  21.923  0.00  0.00    +0.000 A 
ATOM     11  C   UNL     1      -1.329  11.292  22.955  0.00  0.00    +0.000 A 
ATOM     12  C   UNL     1      -1.504  12.655  23.195  0.00  0.00    +0.000 A 
ATOM     13  C   UNL     1      -0.846  13.611  22.398  0.00  0.00    +0.000 A 
ATOM     14  C   UNL     1       0.007  13.225  21.343  0.00  0.00    +0.000 A 
ATOM     15  C   UNL     1      -0.106   9.582  21.480  0.00  0.00    +0.000 C 
ATOM     16  O   UNL     1      -0.539   8.578  22.014  0.00  0.00    +0.000 OA
BRANCH  14  17
ATOM     17  C   UNL     1       0.691  14.274  20.501  0.00  0.00    +0.000 C 
ATOM     18  F   UNL     1       0.342  15.548  20.834  0.00  0.00    +0.000 F 
ATOM     19  F   UNL     1       2.044  14.221  20.606  0.00  0.00    +0.000 F 
ATOM     20  F   UNL     1       0.406  14.145  19.178  0.00  0.00    +0.000 F 
ENDBRANCH  14  17
ENDBRANCH   5   7
BRANCH   2  21
ATOM     21  C   UNL     1       3.563   5.532  17.743  0.00  0.00    +0.000 A 
ATOM     22  N   UNL     1       3.053   4.363  17.412  0.00  0.00    +0.000 NA
ATOM     23  N   UNL     1       4.016   3.648  16.735  0.00  0.00    +0.000 NA
ATOM     24  C   UNL     1       5.088   4.400  16.662  0.00  0.00    +0.000 A 
ATOM     25  N   UNL     1       4.858   5.586  17.290  0.00  0.00    +0.000 N 
ATOM     26  C   UNL     1       5.795   6.673  17.406  0.00  0.00    +0.000 C 
ENDBRANCH   2  21
BRANCH   1  28
ATOM     27  C   UNL     1       1.658   4.481  20.800  0.00  0.00    +0.000 C 
ATOM     28  N   UNL     1       2.773   5.359  20.462  0.00  0.00    +0.000 N 
ATOM     29  H   UNL     1       3.499   4.787  20.013  0.00  0.00    +0.000 HD
ENDBRANCH   1  28
TORSDOF 4
ENDMDL
MODEL 4
REMARK VINA RESULT:      -8.0      2.327      2.814
REMARK  Name = 
REMARK  6 active torsions:
REMARK  status: ('A' for Active; 'I' for Inactive)
REMARK    1  A    between atoms: C_1  and  N_2
REMARK    2  A    between atoms: N_2  and  C_3
REMARK    3  A    between atoms: C_4  and  C_5
REMARK    4  A    between atoms: N_9  and  C_10
REMARK    5  A    between atoms: C_13  and  N_14
REMARK    6  A    between atoms: C_21  and  C_22
REMARK                            x       y       z     vdW  Elec       q    Type
REMARK                         _______ _______ _______ _____ _____    ______ ____
ROOT
ATOM      1  C   UNL     1       1.070   9.633  20.968  0.00  0.00    +0.000 C 
ATOM      2  C   UNL     1       0.811  10.647  20.108  0.00  0.00    +0.000 C 
ATOM      3  C   UNL     1       0.948  10.428  18.617  0.00  0.00    +0.000 C 
ATOM      4  C   UNL     1       1.930   9.320  18.226  0.00  0.00    +0.000 C 
ATOM      5  C   UNL     1       1.927   8.148  19.182  0.00  0.00    +0.000 C 
ATOM      6  C   UNL     1       1.495   8.341  20.443  0.00  0.00    +0.000 C 
ENDROOT
BRANCH   5   7
ATOM      7  N   UNL     1       2.377   6.908  18.731  0.00  0.00    +0.000 N 
ATOM      8  C   UNL     1       1.763   5.648  19.141  0.00  0.00    +0.000 C 
ATOM      9  C   UNL     1       2.592   4.606  18.466  0.00  0.00    +0.000 A 
ATOM     10  C   UNL     1       3.599   5.222  17.727  0.00  0.00    +0.000 A 
ATOM     11  C   UNL     1       4.545   4.512  17.016  0.00  0.00    +0.000 A 
ATOM     12  C   UNL     1       4.468   3.120  17.054  0.00  0.00    +0.000 A 
ATOM     13  C   UNL     1       3.451   2.481  17.787  0.00  0.00    +0.000 A 
ATOM     14  C   UNL     1       2.487   3.220  18.504  0.00  0.00    +0.000 A 
ATOM     15  C   UNL     1       3.468   6.678  17.881  0.00  0.00    +0.000 C 
ATOM     16  O   UNL     1       4.234   7.457  17.345  0.00  0.00    +0.000 OA
BRANCH  14  17
ATOM     17  C   UNL     1       1.404   2.504  19.273  0.00  0.00    +0.000 C 
ATOM     18  F   UNL     1       1.227   2.984  20.535  0.00  0.00    +0.000 F 
ATOM     19  F   UNL     1       0.191   2.598  18.668  0.00  0.00    +0.000 F 
ATOM     20  F   UNL     1       1.658   1.176  19.413  0.00  0.00    +0.000 F 
ENDBRANCH  14  17
ENDBRANCH   5   7
BRANCH   2  21
ATOM     21  C   UNL     1       0.428  11.905  20.652  0.00  0.00    +0.000 A 
ATOM     22  N   UNL     1       1.118  12.787  21.346  0.00  0.00    +0.000 NA
ATOM     23  N   UNL     1       0.310  13.877  21.583  0.00  0.00    +0.000 NA
ATOM     24  C   UNL     1      -0.850  13.638  21.021  0.00  0.00    +0.000 A 
ATOM     25  N   UNL     1      -0.830  12.410  20.435  0.00  0.00    +0.000 N 
ATOM     26  C   UNL     1      -1.916  11.805  19.708  0.00  0.00    +0.000 C 
ENDBRANCH   2  21
BRANCH   1  28
ATOM     27  C   UNL     1      -0.426   9.400  22.930  0.00  0.00    +0.000 C 
ATOM     28  N   UNL     1       0.884   9.680  22.352  0.00  0.00    +0.000 N 
ATOM     29  H   UNL     1       1.563   9.045  22.790  0.00  0.00    +0.000 HD
ENDBRANCH   1  28
TORSDOF 4
ENDMDL
MODEL 5
REMARK VINA RESULT:      -8.0      1.161      1.588
REMARK  Name = 
REMARK  6 active torsions:
REMARK  status: ('A' for Active; 'I' for Inactive)
REMARK    1  A    between atoms: C_1  and  N_2
REMARK    2  A    between atoms: N_2  and  C_3
REMARK    3  A    between atoms: C_4  and  C_5
REMARK    4  A    between atoms: N_9  and  C_10
REMARK    5  A    between atoms: C_13  and  N_14
REMARK    6  A    between atoms: C_21  and  C_22
REMARK                            x       y       z     vdW  Elec       q    Type
REMARK                         _______ _______ _______ _____ _____    ______ ____
ROOT
ATOM      1  C   UNL     1       0.812   9.741  20.977  0.00  0.00    +0.000 C 
ATOM      2  C   UNL     1       0.330  10.641  20.086  0.00  0.00    +0.000 C 
ATOM      3  C   UNL     1       0.421  10.358  18.603  0.00  0.00    +0.000 C 
ATOM      4  C   UNL     1       1.560   9.416  18.204  0.00  0.00    +0.000 C 
ATOM      5  C   UNL     1       1.818   8.322  19.215  0.00  0.00    +0.000 C 
ATOM      6  C   UNL     1       1.429   8.513  20.491  0.00  0.00    +0.000 C 
ENDROOT
BRANCH   5   7
ATOM      7  N   UNL     1       2.454   7.153  18.799  0.00  0.00    +0.000 N 
ATOM      8  C   UNL     1       3.492   7.141  17.771  0.00  0.00    +0.000 C 
ATOM      9  C   UNL     1       3.835   5.695  17.622  0.00  0.00    +0.000 A 
ATOM     10  C   UNL     1       3.055   4.942  18.496  0.00  0.00    +0.000 A 
ATOM     11  C   UNL     1       3.127   3.565  18.564  0.00  0.00    +0.000 A 
ATOM     12  C   UNL     1       4.025   2.924  17.710  0.00  0.00    +0.000 A 
ATOM     13  C   UNL     1       4.828   3.671  16.828  0.00  0.00    +0.000 A 
ATOM     14  C   UNL     1       4.748   5.078  16.774  0.00  0.00    +0.000 A 
ATOM     15  C   UNL     1       2.185   5.853  19.251  0.00  0.00    +0.000 C 
ATOM     16  O   UNL     1       1.390   5.452  20.080  0.00  0.00    +0.000 OA
BRANCH  14  17
ATOM     17  C   UNL     1       5.629   5.850  15.823  0.00  0.00    +0.000 C 
ATOM     18  F   UNL     1       6.559   6.622  16.450  0.00  0.00    +0.000 F 
ATOM     19  F   UNL     1       6.324   5.037  14.986  0.00  0.00    +0.000 F 
ATOM     20  F   UNL     1       4.919   6.696  15.029  0.00  0.00    +0.000 F 
ENDBRANCH  14  17
ENDBRANCH   5   7
BRANCH   2  21
ATOM     21  C   UNL     1      -0.239  11.843  20.590  0.00  0.00    +0.000 A 
ATOM     22  N   UNL     1      -1.449  12.096  21.046  0.00  0.00    +0.000 NA
ATOM     23  N   UNL     1      -1.483  13.402  21.480  0.00  0.00    +0.000 NA
ATOM     24  C   UNL     1      -0.291  13.914  21.286  0.00  0.00    +0.000 A 
ATOM     25  N   UNL     1       0.521  12.979  20.720  0.00  0.00    +0.000 N 
ATOM     26  C   UNL     1       1.905  13.166  20.372  0.00  0.00    +0.000 C 
ENDBRANCH   2  21
BRANCH   1  28
ATOM     27  C   UNL     1      -0.441   9.242  23.056  0.00  0.00    +0.000 C 
ATOM     28  N   UNL     1       0.697   9.838  22.366  0.00  0.00    +0.000 N 
ATOM     29  H   UNL     1       1.554   9.458  22.787  0.00  0.00    +0.000 HD
ENDBRANCH   1  28
TORSDOF 4
ENDMDL
MODEL 6
REMARK VINA RESULT:      -8.0      0.751      1.070
REMARK  Name = 
REMARK  6 active torsions:
REMARK  status: ('A' for Active; 'I' for Inactive)
REMARK    1  A    between atoms: C_1  and  N_2
REMARK    2  A    between atoms: N_2  and  C_3
REMARK    3  A    between atoms: C_4  and  C_5
REMARK    4  A    between atoms: N_9  and  C_10
REMARK    5  A    between atoms: C_13  and  N_14
REMARK    6  A    between atoms: C_21  and  C_22
REMARK                            x       y       z     vdW  Elec       q    Type
REMARK                         _______ _______ _______ _____ _____    ______ ____
ROOT
ATOM      1  C   UNL     1       1.097   9.469  20.699  0.00  0.00    +0.000 C 
ATOM      2  C   UNL     1       0.757  10.271  19.661  0.00  0.00    +0.000 C 
ATOM      3  C   UNL     1       0.836   9.748  18.244  0.00  0.00    +0.000 C 
ATOM      4  C   UNL     1       1.844   8.613  18.040  0.00  0.00    +0.000 C 
ATOM      5  C   UNL     1       1.933   7.669  19.218  0.00  0.00    +0.000 C 
ATOM      6  C   UNL     1       1.551   8.109  20.433  0.00  0.00    +0.000 C 
ENDROOT
BRANCH   5   7
ATOM      7  N   UNL     1       2.413   6.377  19.014  0.00  0.00    +0.000 N 
ATOM      8  C   UNL     1       3.438   6.061  18.023  0.00  0.00    +0.000 C 
ATOM      9  C   UNL     1       3.592   4.579  18.121  0.00  0.00    +0.000 A 
ATOM     10  C   UNL     1       2.723   4.087  19.092  0.00  0.00    +0.000 A 
ATOM     11  C   UNL     1       2.617   2.743  19.388  0.00  0.00    +0.000 A 
ATOM     12  C   UNL     1       3.424   1.860  18.669  0.00  0.00    +0.000 A 
ATOM     13  C   UNL     1       4.314   2.342  17.691  0.00  0.00    +0.000 A 
ATOM     14  C   UNL     1       4.416   3.719  17.405  0.00  0.00    +0.000 A 
ATOM     15  C   UNL     1       1.979   5.215  19.669  0.00  0.00    +0.000 C 
ATOM     16  O   UNL     1       1.140   5.061  20.537  0.00  0.00    +0.000 OA
BRANCH  14  17
ATOM     17  C   UNL     1       5.388   4.203  16.357  0.00  0.00    +0.000 C 
ATOM     18  F   UNL     1       6.434   4.907  16.871  0.00  0.00    +0.000 F 
ATOM     19  F   UNL     1       5.939   3.182  15.650  0.00  0.00    +0.000 F 
ATOM     20  F   UNL     1       4.801   5.024  15.445  0.00  0.00    +0.000 F 
ENDBRANCH  14  17
ENDBRANCH   5   7
BRANCH   2  21
ATOM     21  C   UNL     1       0.347  11.603  19.950  0.00  0.00    +0.000 A 
ATOM     22  N   UNL     1      -0.687  12.054  20.630  0.00  0.00    +0.000 NA
ATOM     23  N   UNL     1      -0.604  13.428  20.680  0.00  0.00    +0.000 NA
ATOM     24  C   UNL     1       0.483  13.782  20.037  0.00  0.00    +0.000 A 
ATOM     25  N   UNL     1       1.107  12.674  19.551  0.00  0.00    +0.000 N 
ATOM     26  C   UNL     1       2.337  12.660  18.802  0.00  0.00    +0.000 C 
ENDBRANCH   2  21
BRANCH   1  28
ATOM     27  C   UNL     1      -0.156   9.303  22.830  0.00  0.00    +0.000 C 
ATOM     28  N   UNL     1       0.972   9.800  22.050  0.00  0.00    +0.000 N 
ATOM     29  H   UNL     1       1.835   9.520  22.532  0.00  0.00    +0.000 HD
ENDBRANCH   1  28
TORSDOF 4
ENDMDL
MODEL 7
REMARK VINA RESULT:      -8.0      1.450      2.510
REMARK  Name = 
REMARK  6 active torsions:
REMARK  status: ('A' for Active; 'I' for Inactive)
REMARK    1  A    between atoms: C_1  and  N_2
REMARK    2  A    between atoms: N_2  and  C_3
REMARK    3  A    between atoms: C_4  and  C_5
REMARK    4  A    between atoms: N_9  and  C_10
REMARK    5  A    between atoms: C_13  and  N_14
REMARK    6  A    between atoms: C_21  and  C_22
REMARK                            x       y       z     vdW  Elec       q    Type
REMARK                         _______ _______ _______ _____ _____    ______ ____
ROOT
ATOM      1  C   UNL     1       0.294  10.384  19.201  0.00  0.00    +0.000 C 
ATOM      2  C   UNL     1       0.325  10.727  20.511  0.00  0.00    +0.000 C 
ATOM      3  C   UNL     1       1.179   9.938  21.478  0.00  0.00    +0.000 C 
ATOM      4  C   UNL     1       1.444   8.490  21.057  0.00  0.00    +0.000 C 
ATOM      5  C   UNL     1       1.610   8.319  19.563  0.00  0.00    +0.000 C 
ATOM      6  C   UNL     1       1.075   9.243  18.741  0.00  0.00    +0.000 C 
ENDROOT
BRANCH   5   7
ATOM      7  N   UNL     1       2.306   7.211  19.083  0.00  0.00    +0.000 N 
ATOM      8  C   UNL     1       3.312   7.304  18.029  0.00  0.00    +0.000 C 
ATOM      9  C   UNL     1       3.740   5.890  17.812  0.00  0.00    +0.000 A 
ATOM     10  C   UNL     1       3.036   5.056  18.675  0.00  0.00    +0.000 A 
ATOM     11  C   UNL     1       3.195   3.684  18.685  0.00  0.00    +0.000 A 
ATOM     12  C   UNL     1       4.107   3.136  17.783  0.00  0.00    +0.000 A 
ATOM     13  C   UNL     1       4.835   3.966  16.910  0.00  0.00    +0.000 A 
ATOM     14  C   UNL     1       4.665   5.366  16.915  0.00  0.00    +0.000 A 
ATOM     15  C   UNL     1       2.132   5.880  19.490  0.00  0.00    +0.000 C 
ATOM     16  O   UNL     1       1.389   5.396  20.323  0.00  0.00    +0.000 OA
BRANCH  14  17
ATOM     17  C   UNL     1       5.468   6.229  15.973  0.00  0.00    +0.000 C 
ATOM     18  F   UNL     1       4.699   7.020  15.174  0.00  0.00    +0.000 F 
ATOM     19  F   UNL     1       6.307   7.071  16.630  0.00  0.00    +0.000 F 
ATOM     20  F   UNL     1       6.245   5.496  15.132  0.00  0.00    +0.000 F 
ENDBRANCH  14  17
ENDBRANCH   5   7
BRANCH   2  21
ATOM     21  C   UNL     1      -0.471  11.828  20.934  0.00  0.00    +0.000 A 
ATOM     22  N   UNL     1      -1.750  11.893  21.247  0.00  0.00    +0.000 NA
ATOM     23  N   UNL     1      -2.028  13.177  21.660  0.00  0.00    +0.000 NA
ATOM     24  C   UNL     1      -0.912  13.862  21.597  0.00  0.00    +0.000 A 
ATOM     25  N   UNL     1       0.090  13.064  21.137  0.00  0.00    +0.000 N 
ATOM     26  C   UNL     1       1.461  13.459  20.946  0.00  0.00    +0.000 C 
ENDBRANCH   2  21
BRANCH   1  28
ATOM     27  C   UNL     1      -1.601  10.565  17.614  0.00  0.00    +0.000 C 
ATOM     28  N   UNL     1      -0.372  11.091  18.196  0.00  0.00    +0.000 N 
ATOM     29  H   UNL     1      -0.570  12.038  18.546  0.00  0.00    +0.000 HD
ENDBRANCH   1  28
TORSDOF 4
ENDMDL
MODEL 8
REMARK VINA RESULT:      -7.9      1.336      2.273
REMARK  Name = 
REMARK  6 active torsions:
REMARK  status: ('A' for Active; 'I' for Inactive)
REMARK    1  A    between atoms: C_1  and  N_2
REMARK    2  A    between atoms: N_2  and  C_3
REMARK    3  A    between atoms: C_4  and  C_5
REMARK    4  A    between atoms: N_9  and  C_10
REMARK    5  A    between atoms: C_13  and  N_14
REMARK    6  A    between atoms: C_21  and  C_22
REMARK                            x       y       z     vdW  Elec       q    Type
REMARK                         _______ _______ _______ _____ _____    ______ ____
ROOT
ATOM      1  C   UNL     1       0.527  10.260  19.389  0.00  0.00    +0.000 C 
ATOM      2  C   UNL     1       0.566  10.517  20.718  0.00  0.00    +0.000 C 
ATOM      3  C   UNL     1       1.376   9.629  21.637  0.00  0.00    +0.000 C 
ATOM      4  C   UNL     1       1.575   8.200  21.125  0.00  0.00    +0.000 C 
ATOM      5  C   UNL     1       1.743   8.116  19.625  0.00  0.00    +0.000 C 
ATOM      6  C   UNL     1       1.257   9.114  18.860  0.00  0.00    +0.000 C 
ENDROOT
BRANCH   5   7
ATOM      7  N   UNL     1       2.390   7.008  19.078  0.00  0.00    +0.000 N 
ATOM      8  C   UNL     1       3.402   7.120  18.031  0.00  0.00    +0.000 C 
ATOM      9  C   UNL     1       3.766   5.704  17.728  0.00  0.00    +0.000 A 
ATOM     10  C   UNL     1       3.021   4.851  18.538  0.00  0.00    +0.000 A 
ATOM     11  C   UNL     1       3.119   3.476  18.464  0.00  0.00    +0.000 A 
ATOM     12  C   UNL     1       4.007   2.943  17.530  0.00  0.00    +0.000 A 
ATOM     13  C   UNL     1       4.775   3.791  16.710  0.00  0.00    +0.000 A 
ATOM     14  C   UNL     1       4.669   5.195  16.802  0.00  0.00    +0.000 A 
ATOM     15  C   UNL     1       2.154   5.664  19.402  0.00  0.00    +0.000 C 
ATOM     16  O   UNL     1       1.386   5.165  20.203  0.00  0.00    +0.000 OA
BRANCH  14  17
ATOM     17  C   UNL     1       5.513   6.076  15.915  0.00  0.00    +0.000 C 
ATOM     18  F   UNL     1       6.416   6.831  16.600  0.00  0.00    +0.000 F 
ATOM     19  F   UNL     1       6.236   5.362  15.012  0.00  0.00    +0.000 F 
ATOM     20  F   UNL     1       4.766   6.955  15.194  0.00  0.00    +0.000 F 
ENDBRANCH  14  17
ENDBRANCH   5   7
BRANCH   2  21
ATOM     21  C   UNL     1      -0.181  11.625  21.208  0.00  0.00    +0.000 A 
ATOM     22  N   UNL     1      -0.348  12.835  20.713  0.00  0.00    +0.000 NA
ATOM     23  N   UNL     1      -1.219  13.519  21.531  0.00  0.00    +0.000 NA
ATOM     24  C   UNL     1      -1.569  12.709  22.501  0.00  0.00    +0.000 A 
ATOM     25  N   UNL     1      -0.935  11.513  22.349  0.00  0.00    +0.000 N 
ATOM     26  C   UNL     1      -1.078  10.369  23.211  0.00  0.00    +0.000 C 
ENDBRANCH   2  21
BRANCH   1  28
ATOM     27  C   UNL     1      -1.392  10.675  17.877  0.00  0.00    +0.000 C 
ATOM     28  N   UNL     1      -0.098  11.060  18.429  0.00  0.00    +0.000 N 
ATOM     29  H   UNL     1      -0.189  12.009  18.811  0.00  0.00    +0.000 HD
ENDBRANCH   1  28
TORSDOF 4
ENDMDL
MODEL 9
REMARK VINA RESULT:      -7.9      4.245      8.496
REMARK  Name = 
REMARK  6 active torsions:
REMARK  status: ('A' for Active; 'I' for Inactive)
REMARK    1  A    between atoms: C_1  and  N_2
REMARK    2  A    between atoms: N_2  and  C_3
REMARK    3  A    between atoms: C_4  and  C_5
REMARK    4  A    between atoms: N_9  and  C_10
REMARK    5  A    between atoms: C_13  and  N_14
REMARK    6  A    between atoms: C_21  and  C_22
REMARK                            x       y       z     vdW  Elec       q    Type
REMARK                         _______ _______ _______ _____ _____    ______ ____
ROOT
ATOM      1  C   UNL     1       2.534   6.610  19.930  0.00  0.00    +0.000 C 
ATOM      2  C   UNL     1       3.297   6.666  18.812  0.00  0.00    +0.000 C 
ATOM      3  C   UNL     1       3.216   7.870  17.900  0.00  0.00    +0.000 C 
ATOM      4  C   UNL     1       1.882   8.622  17.958  0.00  0.00    +0.000 C 
ATOM      5  C   UNL     1       1.272   8.658  19.341  0.00  0.00    +0.000 C 
ATOM      6  C   UNL     1       1.626   7.710  20.232  0.00  0.00    +0.000 C 
ENDROOT
BRANCH   5   7
ATOM      7  N   UNL     1       0.359   9.664  19.650  0.00  0.00    +0.000 N 
ATOM      8  C   UNL     1      -0.817   9.945  18.831  0.00  0.00    +0.000 C 
ATOM      9  C   UNL     1      -1.457  11.114  19.505  0.00  0.00    +0.000 A 
ATOM     10  C   UNL     1      -0.706  11.471  20.622  0.00  0.00    +0.000 A 
ATOM     11  C   UNL     1      -1.035  12.540  21.432  0.00  0.00    +0.000 A 
ATOM     12  C   UNL     1      -2.171  13.277  21.096  0.00  0.00    +0.000 A 
ATOM     13  C   UNL     1      -2.946  12.923  19.975  0.00  0.00    +0.000 A 
ATOM     14  C   UNL     1      -2.601  11.825  19.161  0.00  0.00    +0.000 A 
ATOM     15  C   UNL     1       0.439  10.557  20.729  0.00  0.00    +0.000 C 
ATOM     16  O   UNL     1       1.266  10.656  21.616  0.00  0.00    +0.000 OA
BRANCH  14  17
ATOM     17  C   UNL     1      -3.459  11.466  17.973  0.00  0.00    +0.000 C 
ATOM     18  F   UNL     1      -3.897  10.176  17.990  0.00  0.00    +0.000 F 
ATOM     19  F   UNL     1      -4.575  12.236  17.888  0.00  0.00    +0.000 F 
ATOM     20  F   UNL     1      -2.801  11.618  16.793  0.00  0.00    +0.000 F 
ENDBRANCH  14  17
ENDBRANCH   5   7
BRANCH   2  21
ATOM     21  C   UNL     1       4.151   5.564  18.529  0.00  0.00    +0.000 A 
ATOM     22  N   UNL     1       5.412   5.349  18.847  0.00  0.00    +0.000 NA
ATOM     23  N   UNL     1       5.764   4.097  18.394  0.00  0.00    +0.000 NA
ATOM     24  C   UNL     1       4.708   3.574  17.819  0.00  0.00    +0.000 A 
ATOM     25  N   UNL     1       3.675   4.459  17.867  0.00  0.00    +0.000 N 
ATOM     26  C   UNL     1       2.350   4.236  17.351  0.00  0.00    +0.000 C 
ENDBRANCH   2  21
BRANCH   1  28
ATOM     27  C   UNL     1       1.599   4.538  20.916  0.00  0.00    +0.000 C 
ATOM     28  N   UNL     1       2.592   5.606  20.899  0.00  0.00    +0.000 N 
ATOM     29  H   UNL     1       3.522   5.169  20.855  0.00  0.00    +0.000 HD
ENDBRANCH   1  28
TORSDOF 4
ENDMDL
