MODEL 1
REMARK VINA RESULT:      -8.1      0.000      0.000
REMARK  Name = 
REMARK  6 active torsions:
REMARK  status: ('A' for Active; 'I' for Inactive)
REMARK    1  A    between atoms: C_3  and  C_4
REMARK    2  A    between atoms: C_8  and  C_9
REMARK    3  A    between atoms: C_9  and  N_10
REMARK    4  A    between atoms: C_12  and  C_13
REMARK    5  A    between atoms: C_15  and  C_16
REMARK    6  A    between atoms: C_21  and  C_22
REMARK                            x       y       z     vdW  Elec       q    Type
REMARK                         _______ _______ _______ _____ _____    ______ ____
ROOT
ATOM      1  N   UNL     1       6.976   6.467  16.908  0.00  0.00    +0.000 NA
ATOM      2  C   UNL     1       5.516   6.511  17.080  0.00  0.00    +0.000 C 
ATOM      3  C   UNL     1       4.958   5.142  16.697  0.00  0.00    +0.000 C 
ATOM      4  C   UNL     1       6.044   4.490  15.844  0.00  0.00    +0.000 C 
ATOM      5  C   UNL     1       7.340   5.172  16.316  0.00  0.00    +0.000 C 
ENDROOT
BRANCH   3   6
ATOM      6  C   UNL     1       4.570   4.351  17.900  0.00  0.00    +0.000 A 
ATOM      7  N   UNL     1       3.412   4.418  18.520  0.00  0.00    +0.000 NA
ATOM      8  C   UNL     1       3.605   3.677  19.652  0.00  0.00    +0.000 A 
ATOM      9  N   UNL     1       4.807   3.093  19.734  0.00  0.00    +0.000 NA
ATOM     10  N   UNL     1       5.396   3.519  18.605  0.00  0.00    +0.000 N 
ATOM     11  H   UNL     1       6.356   3.253  18.421  0.00  0.00    +0.000 HD
BRANCH   8  12
ATOM     12  C   UNL     1       2.544   3.649  20.735  0.00  0.00    +0.000 C 
ATOM     13  C   UNL     1       1.344   2.746  20.523  0.00  0.00    +0.000 C 
ATOM     14  C   UNL     1       1.168   4.225  20.501  0.00  0.00    +0.000 C 
ENDBRANCH   8  12
ENDBRANCH   3   6
BRANCH   4  15
ATOM     15  C   UNL     1       5.774   4.698  14.365  0.00  0.00    +0.000 C 
ATOM     16  C   UNL     1       5.922   3.536  13.407  0.00  0.00    +0.000 C 
ATOM     17  C   UNL     1       6.907   4.666  13.367  0.00  0.00    +0.000 C 
ENDBRANCH   4  15
BRANCH   1  18
ATOM     18  C   UNL     1       7.703   6.819  18.141  0.00  0.00    +0.000 C 
BRANCH  18  23
ATOM     19  C   UNL     1       7.775   9.356  17.461  0.00  0.00    +0.000 A 
ATOM     20  N   UNL     1       8.436  10.456  17.932  0.00  0.00    +0.000 NA
ATOM     21  C   UNL     1       9.141  10.006  18.953  0.00  0.00    +0.000 A 
ATOM     22  O   UNL     1       8.980   8.657  19.186  0.00  0.00    +0.000 OA
ATOM     23  C   UNL     1       8.109   8.249  18.202  0.00  0.00    +0.000 A 
BRANCH  21  24
ATOM     24  C   UNL     1      10.058  10.949  19.727  0.00  0.00    +0.000 C 
ATOM     25  C   UNL     1       9.576  11.527  21.041  0.00  0.00    +0.000 C 
ATOM     26  C   UNL     1       9.744  12.422  19.862  0.00  0.00    +0.000 C 
ENDBRANCH  21  24
ENDBRANCH  18  23
ENDBRANCH   1  18
TORSDOF 6
ENDMDL
MODEL 2
REMARK VINA RESULT:      -7.9      4.278      6.739
REMARK  Name = 
REMARK  6 active torsions:
REMARK  status: ('A' for Active; 'I' for Inactive)
REMARK    1  A    between atoms: C_3  and  C_4
REMARK    2  A    between atoms: C_8  and  C_9
REMARK    3  A    between atoms: C_9  and  N_10
REMARK    4  A    between atoms: C_12  and  C_13
REMARK    5  A    between atoms: C_15  and  C_16
REMARK    6  A    between atoms: C_21  and  C_22
REMARK                            x       y       z     vdW  Elec       q    Type
REMARK                         _______ _______ _______ _____ _____    ______ ____
ROOT
ATOM      1  N   UNL     1       2.515   6.031  18.946  0.00  0.00    +0.000 NA
ATOM      2  C   UNL     1       3.747   5.566  19.601  0.00  0.00    +0.000 C 
ATOM      3  C   UNL     1       4.121   4.217  18.990  0.00  0.00    +0.000 C 
ATOM      4  C   UNL     1       2.837   3.697  18.347  0.00  0.00    +0.000 C 
ATOM      5  C   UNL     1       2.036   4.975  18.042  0.00  0.00    +0.000 C 
ENDROOT
BRANCH   3   6
ATOM      6  C   UNL     1       5.270   4.341  18.047  0.00  0.00    +0.000 A 
ATOM      7  N   UNL     1       5.200   4.237  16.739  0.00  0.00    +0.000 NA
ATOM      8  C   UNL     1       6.508   4.219  16.343  0.00  0.00    +0.000 A 
ATOM      9  N   UNL     1       7.391   4.378  17.338  0.00  0.00    +0.000 NA
ATOM     10  N   UNL     1       6.583   4.470  18.406  0.00  0.00    +0.000 N 
ATOM     11  H   UNL     1       6.995   4.560  19.327  0.00  0.00    +0.000 HD
BRANCH   8  12
ATOM     12  C   UNL     1       6.865   3.933  14.897  0.00  0.00    +0.000 C 
ATOM     13  C   UNL     1       6.866   5.100  13.927  0.00  0.00    +0.000 C 
ATOM     14  C   UNL     1       5.832   4.034  13.799  0.00  0.00    +0.000 C 
ENDBRANCH   8  12
ENDBRANCH   3   6
BRANCH   4  15
ATOM     15  C   UNL     1       2.105   2.751  19.279  0.00  0.00    +0.000 C 
ATOM     16  C   UNL     1       0.799   2.128  18.838  0.00  0.00    +0.000 C 
ATOM     17  C   UNL     1       0.802   3.164  19.921  0.00  0.00    +0.000 C 
ENDBRANCH   4  15
BRANCH   1  18
ATOM     18  C   UNL     1       2.669   7.361  18.329  0.00  0.00    +0.000 C 
BRANCH  18  23
ATOM     19  C   UNL     1       1.229   9.544  18.587  0.00  0.00    +0.000 A 
ATOM     20  N   UNL     1       0.677  10.209  19.646  0.00  0.00    +0.000 NA
ATOM     21  C   UNL     1       1.004   9.482  20.698  0.00  0.00    +0.000 A 
ATOM     22  O   UNL     1       1.747   8.364  20.390  0.00  0.00    +0.000 OA
ATOM     23  C   UNL     1       1.900   8.429  19.024  0.00  0.00    +0.000 A 
BRANCH  21  24
ATOM     24  C   UNL     1       0.594   9.932  22.098  0.00  0.00    +0.000 C 
ATOM     25  C   UNL     1      -0.537   9.208  22.799  0.00  0.00    +0.000 C 
ATOM     26  C   UNL     1      -0.732  10.616  22.351  0.00  0.00    +0.000 C 
ENDBRANCH  21  24
ENDBRANCH  18  23
ENDBRANCH   1  18
TORSDOF 6
ENDMDL
MODEL 3
REMARK VINA RESULT:      -7.7      4.242      7.451
REMARK  Name = 
REMARK  6 active torsions:
REMARK  status: ('A' for Active; 'I' for Inactive)
REMARK    1  A    between atoms: C_3  and  C_4
REMARK    2  A    between atoms: C_8  and  C_9
REMARK    3  A    between atoms: C_9  and  N_10
REMARK    4  A    between atoms: C_12  and  C_13
REMARK    5  A    between atoms: C_15  and  C_16
REMARK    6  A    between atoms: C_21  and  C_22
REMARK                            x       y       z     vdW  Elec       q    Type
REMARK                         _______ _______ _______ _____ _____    ______ ____
ROOT
ATOM      1  N   UNL     1       2.748   6.681  18.642  0.00  0.00    +0.000 NA
ATOM      2  C   UNL     1       4.115   6.150  18.747  0.00  0.00    +0.000 C 
ATOM      3  C   UNL     1       4.165   4.828  17.984  0.00  0.00    +0.000 C 
ATOM      4  C   UNL     1       2.711   4.376  17.870  0.00  0.00    +0.000 C 
ATOM      5  C   UNL     1       1.911   5.687  17.954  0.00  0.00    +0.000 C 
ENDROOT
BRANCH   3   6
ATOM      6  C   UNL     1       4.863   4.976  16.675  0.00  0.00    +0.000 A 
ATOM      7  N   UNL     1       4.970   4.043  15.755  0.00  0.00    +0.000 NA
ATOM      8  C   UNL     1       5.848   4.573  14.853  0.00  0.00    +0.000 A 
ATOM      9  N   UNL     1       6.242   5.823  15.131  0.00  0.00    +0.000 NA
ATOM     10  N   UNL     1       5.592   6.064  16.281  0.00  0.00    +0.000 N 
ATOM     11  H   UNL     1       5.739   6.949  16.752  0.00  0.00    +0.000 HD
BRANCH   8  12
ATOM     12  C   UNL     1       6.376   3.725  13.711  0.00  0.00    +0.000 C 
ATOM     13  C   UNL     1       6.623   4.410  12.381  0.00  0.00    +0.000 C 
ATOM     14  C   UNL     1       5.521   3.414  12.505  0.00  0.00    +0.000 C 
ENDBRANCH   8  12
ENDBRANCH   3   6
BRANCH   4  15
ATOM     15  C   UNL     1       2.356   3.398  18.974  0.00  0.00    +0.000 C 
ATOM     16  C   UNL     1       1.257   2.382  18.748  0.00  0.00    +0.000 C 
ATOM     17  C   UNL     1       1.041   3.514  19.707  0.00  0.00    +0.000 C 
ENDBRANCH   4  15
BRANCH   1  18
ATOM     18  C   UNL     1       2.709   8.039  18.070  0.00  0.00    +0.000 C 
BRANCH  18  23
ATOM     19  C   UNL     1       1.154   9.321  19.756  0.00  0.00    +0.000 A 
ATOM     20  N   UNL     1      -0.017  10.017  19.641  0.00  0.00    +0.000 NA
ATOM     21  C   UNL     1      -0.306   9.964  18.354  0.00  0.00    +0.000 A 
ATOM     22  O   UNL     1       0.617   9.267  17.606  0.00  0.00    +0.000 OA
ATOM     23  C   UNL     1       1.544   8.842  18.530  0.00  0.00    +0.000 A 
BRANCH  21  24
ATOM     24  C   UNL     1      -1.588  10.606  17.831  0.00  0.00    +0.000 C 
ATOM     25  C   UNL     1      -2.845   9.766  17.739  0.00  0.00    +0.000 C 
ATOM     26  C   UNL     1      -2.173  10.222  16.489  0.00  0.00    +0.000 C 
ENDBRANCH  21  24
ENDBRANCH  18  23
ENDBRANCH   1  18
TORSDOF 6
ENDMDL
MODEL 4
REMARK VINA RESULT:      -7.5      2.304      7.379
REMARK  Name = 
REMARK  6 active torsions:
REMARK  status: ('A' for Active; 'I' for Inactive)
REMARK    1  A    between atoms: C_3  and  C_4
REMARK    2  A    between atoms: C_8  and  C_9
REMARK    3  A    between atoms: C_9  and  N_10
REMARK    4  A    between atoms: C_12  and  C_13
REMARK    5  A    between atoms: C_15  and  C_16
REMARK    6  A    between atoms: C_21  and  C_22
REMARK                            x       y       z     vdW  Elec       q    Type
REMARK                         _______ _______ _______ _____ _____    ______ ____
ROOT
ATOM      1  N   UNL     1       4.626   6.039  17.161  0.00  0.00    +0.000 NA
ATOM      2  C   UNL     1       5.722   5.710  18.085  0.00  0.00    +0.000 C 
ATOM      3  C   UNL     1       7.038   6.055  17.393  0.00  0.00    +0.000 C 
ATOM      4  C   UNL     1       6.704   6.114  15.903  0.00  0.00    +0.000 C 
ATOM      5  C   UNL     1       5.205   6.457  15.876  0.00  0.00    +0.000 C 
ENDROOT
BRANCH   3   6
ATOM      6  C   UNL     1       7.632   7.310  17.936  0.00  0.00    +0.000 A 
ATOM      7  N   UNL     1       7.525   8.504  17.395  0.00  0.00    +0.000 NA
ATOM      8  C   UNL     1       8.386   9.272  18.127  0.00  0.00    +0.000 A 
ATOM      9  N   UNL     1       8.975   8.629  19.144  0.00  0.00    +0.000 NA
ATOM     10  N   UNL     1       8.469   7.392  19.014  0.00  0.00    +0.000 N 
ATOM     11  H   UNL     1       8.779   6.665  19.648  0.00  0.00    +0.000 HD
BRANCH   8  12
ATOM     12  C   UNL     1       8.687  10.697  17.704  0.00  0.00    +0.000 C 
ATOM     13  C   UNL     1      10.125  11.170  17.795  0.00  0.00    +0.000 C 
ATOM     14  C   UNL     1       9.100  11.744  18.712  0.00  0.00    +0.000 C 
ENDBRANCH   8  12
ENDBRANCH   3   6
BRANCH   4  15
ATOM     15  C   UNL     1       7.020   4.796  15.221  0.00  0.00    +0.000 C 
ATOM     16  C   UNL     1       7.225   4.760  13.722  0.00  0.00    +0.000 C 
ATOM     17  C   UNL     1       6.002   4.136  14.323  0.00  0.00    +0.000 C 
ENDBRANCH   4  15
BRANCH   1  18
ATOM     18  C   UNL     1       3.654   6.980  17.747  0.00  0.00    +0.000 C 
BRANCH  18  23
ATOM     19  C   UNL     1       2.348   6.841  20.023  0.00  0.00    +0.000 A 
ATOM     20  N   UNL     1       1.606   5.876  20.644  0.00  0.00    +0.000 NA
ATOM     21  C   UNL     1       1.621   4.857  19.806  0.00  0.00    +0.000 A 
ATOM     22  O   UNL     1       2.338   5.098  18.654  0.00  0.00    +0.000 OA
ATOM     23  C   UNL     1       2.817   6.377  18.818  0.00  0.00    +0.000 A 
BRANCH  21  24
ATOM     24  C   UNL     1       0.920   3.552  20.173  0.00  0.00    +0.000 C 
ATOM     25  C   UNL     1       1.737   2.280  20.261  0.00  0.00    +0.000 C 
ATOM     26  C   UNL     1       0.742   2.440  19.164  0.00  0.00    +0.000 C 
ENDBRANCH  21  24
ENDBRANCH  18  23
ENDBRANCH   1  18
TORSDOF 6
ENDMDL
MODEL 5
REMARK VINA RESULT:      -7.5      4.214      7.218
REMARK  Name = 
REMARK  6 active torsions:
REMARK  status: ('A' for Active; 'I' for Inactive)
REMARK    1  A    between atoms: C_3  and  C_4
REMARK    2  A    between atoms: C_8  and  C_9
REMARK    3  A    between atoms: C_9  and  N_10
REMARK    4  A    between atoms: C_12  and  C_13
REMARK    5  A    between atoms: C_15  and  C_16
REMARK    6  A    between atoms: C_21  and  C_22
REMARK                            x       y       z     vdW  Elec       q    Type
REMARK                         _______ _______ _______ _____ _____    ______ ____
ROOT
ATOM      1  N   UNL     1       2.657   6.404  18.871  0.00  0.00    +0.000 NA
ATOM      2  C   UNL     1       3.955   6.022  19.448  0.00  0.00    +0.000 C 
ATOM      3  C   UNL     1       4.302   4.625  18.940  0.00  0.00    +0.000 C 
ATOM      4  C   UNL     1       2.975   4.026  18.476  0.00  0.00    +0.000 C 
ATOM      5  C   UNL     1       2.120   5.256  18.125  0.00  0.00    +0.000 C 
ENDROOT
BRANCH   3   6
ATOM      6  C   UNL     1       5.354   4.669  17.885  0.00  0.00    +0.000 A 
ATOM      7  N   UNL     1       5.186   4.345  16.622  0.00  0.00    +0.000 NA
ATOM      8  C   UNL     1       6.453   4.352  16.112  0.00  0.00    +0.000 A 
ATOM      9  N   UNL     1       7.399   4.734  16.981  0.00  0.00    +0.000 NA
ATOM     10  N   UNL     1       6.677   4.947  18.093  0.00  0.00    +0.000 N 
ATOM     11  H   UNL     1       7.155   5.217  18.945  0.00  0.00    +0.000 HD
BRANCH   8  12
ATOM     12  C   UNL     1       6.713   3.855  14.703  0.00  0.00    +0.000 C 
ATOM     13  C   UNL     1       6.936   4.893  13.619  0.00  0.00    +0.000 C 
ATOM     14  C   UNL     1       5.700   4.059  13.601  0.00  0.00    +0.000 C 
ENDBRANCH   8  12
ENDBRANCH   3   6
BRANCH   4  15
ATOM     15  C   UNL     1       2.355   3.168  19.562  0.00  0.00    +0.000 C 
ATOM     16  C   UNL     1       1.458   2.010  19.180  0.00  0.00    +0.000 C 
ATOM     17  C   UNL     1       0.870   3.226  19.830  0.00  0.00    +0.000 C 
ENDBRANCH   4  15
BRANCH   1  18
ATOM     18  C   UNL     1       2.722   7.667  18.115  0.00  0.00    +0.000 C 
BRANCH  18  23
ATOM     19  C   UNL     1       1.459   9.363  19.675  0.00  0.00    +0.000 A 
ATOM     20  N   UNL     1       0.353  10.153  19.534  0.00  0.00    +0.000 NA
ATOM     21  C   UNL     1      -0.061   9.926  18.302  0.00  0.00    +0.000 A 
ATOM     22  O   UNL     1       0.719   9.023  17.613  0.00  0.00    +0.000 OA
ATOM     23  C   UNL     1       1.686   8.654  18.521  0.00  0.00    +0.000 A 
BRANCH  21  24
ATOM     24  C   UNL     1      -1.321  10.610  17.778  0.00  0.00    +0.000 C 
ATOM     25  C   UNL     1      -2.656   9.914  17.943  0.00  0.00    +0.000 C 
ATOM     26  C   UNL     1      -2.072  10.071  16.581  0.00  0.00    +0.000 C 
ENDBRANCH  21  24
ENDBRANCH  18  23
ENDBRANCH   1  18
TORSDOF 6
ENDMDL
MODEL 6
REMARK VINA RESULT:      -7.4      4.218      6.803
REMARK  Name = 
REMARK  6 active torsions:
REMARK  status: ('A' for Active; 'I' for Inactive)
REMARK    1  A    between atoms: C_3  and  C_4
REMARK    2  A    between atoms: C_8  and  C_9
REMARK    3  A    between atoms: C_9  and  N_10
REMARK    4  A    between atoms: C_12  and  C_13
REMARK    5  A    between atoms: C_15  and  C_16
REMARK    6  A    between atoms: C_21  and  C_22
REMARK                            x       y       z     vdW  Elec       q    Type
REMARK                         _______ _______ _______ _____ _____    ______ ____
ROOT
ATOM      1  N   UNL     1       2.991   6.213  18.887  0.00  0.00    +0.000 NA
ATOM      2  C   UNL     1       4.275   5.542  19.140  0.00  0.00    +0.000 C 
ATOM      3  C   UNL     1       4.299   4.251  18.325  0.00  0.00    +0.000 C 
ATOM      4  C   UNL     1       2.835   3.954  18.003  0.00  0.00    +0.000 C 
ATOM      5  C   UNL     1       2.161   5.336  18.048  0.00  0.00    +0.000 C 
ENDROOT
BRANCH   3   6
ATOM      6  C   UNL     1       5.175   4.374  17.125  0.00  0.00    +0.000 A 
ATOM      7  N   UNL     1       4.771   4.673  15.910  0.00  0.00    +0.000 NA
ATOM      8  C   UNL     1       5.881   4.470  15.139  0.00  0.00    +0.000 A 
ATOM      9  N   UNL     1       6.978   4.124  15.825  0.00  0.00    +0.000 NA
ATOM     10  N   UNL     1       6.511   4.086  17.083  0.00  0.00    +0.000 N 
ATOM     11  H   UNL     1       7.136   3.807  17.831  0.00  0.00    +0.000 HD
BRANCH   8  12
ATOM     12  C   UNL     1       5.783   4.541  13.627  0.00  0.00    +0.000 C 
ATOM     13  C   UNL     1       5.244   3.326  12.897  0.00  0.00    +0.000 C 
ATOM     14  C   UNL     1       6.677   3.704  12.743  0.00  0.00    +0.000 C 
ENDBRANCH   8  12
ENDBRANCH   3   6
BRANCH   4  15
ATOM     15  C   UNL     1       2.245   2.977  19.003  0.00  0.00    +0.000 C 
ATOM     16  C   UNL     1       0.955   2.258  18.673  0.00  0.00    +0.000 C 
ATOM     17  C   UNL     1       0.970   3.312  19.740  0.00  0.00    +0.000 C 
ENDBRANCH   4  15
BRANCH   1  18
ATOM     18  C   UNL     1       3.159   7.587  18.382  0.00  0.00    +0.000 C 
BRANCH  18  23
ATOM     19  C   UNL     1       1.295   9.395  17.980  0.00  0.00    +0.000 A 
ATOM     20  N   UNL     1       0.327   9.964  18.760  0.00  0.00    +0.000 NA
ATOM     21  C   UNL     1       0.464   9.379  19.934  0.00  0.00    +0.000 A 
ATOM     22  O   UNL     1       1.477   8.446  19.974  0.00  0.00    +0.000 OA
ATOM     23  C   UNL     1       2.016   8.482  18.709  0.00  0.00    +0.000 A 
BRANCH  21  24
ATOM     24  C   UNL     1      -0.430   9.786  21.103  0.00  0.00    +0.000 C 
ATOM     25  C   UNL     1       0.202  10.420  22.324  0.00  0.00    +0.000 C 
ATOM     26  C   UNL     1      -0.383   9.054  22.426  0.00  0.00    +0.000 C 
ENDBRANCH  21  24
ENDBRANCH  18  23
ENDBRANCH   1  18
TORSDOF 6
ENDMDL
MODEL 7
REMARK VINA RESULT:      -7.4      3.804      6.781
REMARK  Name = 
REMARK  6 active torsions:
REMARK  status: ('A' for Active; 'I' for Inactive)
REMARK    1  A    between atoms: C_3  and  C_4
REMARK    2  A    between atoms: C_8  and  C_9
REMARK    3  A    between atoms: C_9  and  N_10
REMARK    4  A    between atoms: C_12  and  C_13
REMARK    5  A    between atoms: C_15  and  C_16
REMARK    6  A    between atoms: C_21  and  C_22
REMARK                            x       y       z     vdW  Elec       q    Type
REMARK                         _______ _______ _______ _____ _____    ______ ____
ROOT
ATOM      1  N   UNL     1       2.228   6.124  18.946  0.00  0.00    +0.000 NA
ATOM      2  C   UNL     1       3.237   5.839  19.977  0.00  0.00    +0.000 C 
ATOM      3  C   UNL     1       3.958   4.551  19.584  0.00  0.00    +0.000 C 
ATOM      4  C   UNL     1       3.023   3.854  18.598  0.00  0.00    +0.000 C 
ATOM      5  C   UNL     1       2.202   5.005  17.993  0.00  0.00    +0.000 C 
ENDROOT
BRANCH   3   6
ATOM      6  C   UNL     1       5.320   4.827  19.044  0.00  0.00    +0.000 A 
ATOM      7  N   UNL     1       5.806   6.016  18.762  0.00  0.00    +0.000 NA
ATOM      8  C   UNL     1       6.981   5.745  18.120  0.00  0.00    +0.000 A 
ATOM      9  N   UNL     1       7.286   4.442  18.048  0.00  0.00    +0.000 NA
ATOM     10  N   UNL     1       6.228   3.881  18.655  0.00  0.00    +0.000 N 
ATOM     11  H   UNL     1       6.173   2.871  18.712  0.00  0.00    +0.000 HD
BRANCH   8  12
ATOM     12  C   UNL     1       7.772   6.863  17.471  0.00  0.00    +0.000 C 
ATOM     13  C   UNL     1       8.362   7.927  18.377  0.00  0.00    +0.000 C 
ATOM     14  C   UNL     1       7.252   8.281  17.447  0.00  0.00    +0.000 C 
ENDBRANCH   8  12
ENDBRANCH   3   6
BRANCH   4  15
ATOM     15  C   UNL     1       2.162   2.821  19.301  0.00  0.00    +0.000 C 
ATOM     16  C   UNL     1       0.963   2.237  18.587  0.00  0.00    +0.000 C 
ATOM     17  C   UNL     1       0.761   3.167  19.745  0.00  0.00    +0.000 C 
ENDBRANCH   4  15
BRANCH   1  18
ATOM     18  C   UNL     1       2.395   7.458  18.342  0.00  0.00    +0.000 C 
BRANCH  18  23
ATOM     19  C   UNL     1       0.954   9.635  18.640  0.00  0.00    +0.000 A 
ATOM     20  N   UNL     1       0.451  10.311  19.716  0.00  0.00    +0.000 NA
ATOM     21  C   UNL     1       0.836   9.603  20.761  0.00  0.00    +0.000 A 
ATOM     22  O   UNL     1       1.571   8.485  20.432  0.00  0.00    +0.000 OA
ATOM     23  C   UNL     1       1.654   8.530  19.059  0.00  0.00    +0.000 A 
BRANCH  21  24
ATOM     24  C   UNL     1       0.493  10.071  22.173  0.00  0.00    +0.000 C 
ATOM     25  C   UNL     1      -0.623   9.376  22.925  0.00  0.00    +0.000 C 
ATOM     26  C   UNL     1      -0.805  10.785  22.475  0.00  0.00    +0.000 C 
ENDBRANCH  21  24
ENDBRANCH  18  23
ENDBRANCH   1  18
TORSDOF 6
ENDMDL
MODEL 8
REMARK VINA RESULT:      -7.4      0.854      1.080
REMARK  Name = 
REMARK  6 active torsions:
REMARK  status: ('A' for Active; 'I' for Inactive)
REMARK    1  A    between atoms: C_3  and  C_4
REMARK    2  A    between atoms: C_8  and  C_9
REMARK    3  A    between atoms: C_9  and  N_10
REMARK    4  A    between atoms: C_12  and  C_13
REMARK    5  A    between atoms: C_15  and  C_16
REMARK    6  A    between atoms: C_21  and  C_22
REMARK                            x       y       z     vdW  Elec       q    Type
REMARK                         _______ _______ _______ _____ _____    ______ ____
ROOT
ATOM      1  N   UNL     1       7.083   6.722  16.937  0.00  0.00    +0.000 NA
ATOM      2  C   UNL     1       5.637   6.976  17.011  0.00  0.00    +0.000 C 
ATOM      3  C   UNL     1       4.914   5.663  16.718  0.00  0.00    +0.000 C 
ATOM      4  C   UNL     1       5.942   4.792  15.998  0.00  0.00    +0.000 C 
ATOM      5  C   UNL     1       7.294   5.338  16.488  0.00  0.00    +0.000 C 
ENDROOT
BRANCH   3   6
ATOM      6  C   UNL     1       4.359   5.052  17.960  0.00  0.00    +0.000 A 
ATOM      7  N   UNL     1       3.664   3.938  18.020  0.00  0.00    +0.000 NA
ATOM      8  C   UNL     1       3.217   3.903  19.311  0.00  0.00    +0.000 A 
ATOM      9  N   UNL     1       3.658   4.908  20.079  0.00  0.00    +0.000 NA
ATOM     10  N   UNL     1       4.394   5.614  19.206  0.00  0.00    +0.000 N 
ATOM     11  H   UNL     1       4.830   6.475  19.515  0.00  0.00    +0.000 HD
BRANCH   8  12
ATOM     12  C   UNL     1       2.219   2.846  19.745  0.00  0.00    +0.000 C 
ATOM     13  C   UNL     1       0.777   3.274  19.937  0.00  0.00    +0.000 C 
ATOM     14  C   UNL     1       1.593   2.875  21.119  0.00  0.00    +0.000 C 
ENDBRANCH   8  12
ENDBRANCH   3   6
BRANCH   4  15
ATOM     15  C   UNL     1       5.778   4.888  14.492  0.00  0.00    +0.000 C 
ATOM     16  C   UNL     1       5.994   3.659  13.637  0.00  0.00    +0.000 C 
ATOM     17  C   UNL     1       6.980   4.786  13.583  0.00  0.00    +0.000 C 
ENDBRANCH   4  15
BRANCH   1  18
ATOM     18  C   UNL     1       7.788   7.093  18.177  0.00  0.00    +0.000 C 
BRANCH  18  23
ATOM     19  C   UNL     1       7.848   9.626  17.478  0.00  0.00    +0.000 A 
ATOM     20  N   UNL     1       8.507  10.731  17.937  0.00  0.00    +0.000 NA
ATOM     21  C   UNL     1       9.219  10.291  18.957  0.00  0.00    +0.000 A 
ATOM     22  O   UNL     1       9.065   8.944  19.201  0.00  0.00    +0.000 OA
ATOM     23  C   UNL     1       8.190   8.525  18.224  0.00  0.00    +0.000 A 
BRANCH  21  24
ATOM     24  C   UNL     1      10.138  11.243  19.718  0.00  0.00    +0.000 C 
ATOM     25  C   UNL     1      10.598  12.517  19.041  0.00  0.00    +0.000 C 
ATOM     26  C   UNL     1      11.584  11.435  19.318  0.00  0.00    +0.000 C 
ENDBRANCH  21  24
ENDBRANCH  18  23
ENDBRANCH   1  18
TORSDOF 6
ENDMDL
MODEL 9
REMARK VINA RESULT:      -7.3      3.687      6.873
REMARK  Name = 
REMARK  6 active torsions:
REMARK  status: ('A' for Active; 'I' for Inactive)
REMARK    1  A    between atoms: C_3  and  C_4
REMARK    2  A    between atoms: C_8  and  C_9
REMARK    3  A    between atoms: C_9  and  N_10
REMARK    4  A    between atoms: C_12  and  C_13
REMARK    5  A    between atoms: C_15  and  C_16
REMARK    6  A    between atoms: C_21  and  C_22
REMARK                            x       y       z     vdW  Elec       q    Type
REMARK                         _______ _______ _______ _____ _____    ______ ____
ROOT
ATOM      1  N   UNL     1       3.725   5.405  18.048  0.00  0.00    +0.000 NA
ATOM      2  C   UNL     1       2.312   5.813  18.031  0.00  0.00    +0.000 C 
ATOM      3  C   UNL     1       1.808   5.816  19.472  0.00  0.00    +0.000 C 
ATOM      4  C   UNL     1       2.791   4.939  20.244  0.00  0.00    +0.000 C 
ATOM      5  C   UNL     1       4.089   5.033  19.423  0.00  0.00    +0.000 C 
ENDROOT
BRANCH   3   6
ATOM      6  C   UNL     1       1.678   7.203  20.005  0.00  0.00    +0.000 A 
ATOM      7  N   UNL     1       1.479   7.523  21.265  0.00  0.00    +0.000 NA
ATOM      8  C   UNL     1       1.231   8.866  21.225  0.00  0.00    +0.000 A 
ATOM      9  N   UNL     1       1.334   9.413  20.007  0.00  0.00    +0.000 NA
ATOM     10  N   UNL     1       1.635   8.344  19.252  0.00  0.00    +0.000 N 
ATOM     11  H   UNL     1       1.737   8.461  18.251  0.00  0.00    +0.000 HD
BRANCH   8  12
ATOM     12  C   UNL     1       0.777   9.596  22.474  0.00  0.00    +0.000 C 
ATOM     13  C   UNL     1      -0.667   9.423  22.906  0.00  0.00    +0.000 C 
ATOM     14  C   UNL     1      -0.201  10.745  22.399  0.00  0.00    +0.000 C 
ENDBRANCH   8  12
ENDBRANCH   3   6
BRANCH   4  15
ATOM     15  C   UNL     1       2.273   3.518  20.366  0.00  0.00    +0.000 C 
ATOM     16  C   UNL     1       1.976   2.946  21.735  0.00  0.00    +0.000 C 
ATOM     17  C   UNL     1       3.146   2.433  20.950  0.00  0.00    +0.000 C 
ENDBRANCH   4  15
BRANCH   1  18
ATOM     18  C   UNL     1       4.610   6.398  17.412  0.00  0.00    +0.000 C 
BRANCH  18  23
ATOM     19  C   UNL     1       6.959   5.940  16.327  0.00  0.00    +0.000 A 
ATOM     20  N   UNL     1       7.405   5.149  15.305  0.00  0.00    +0.000 NA
ATOM     21  C   UNL     1       6.323   4.530  14.871  0.00  0.00    +0.000 A 
ATOM     22  O   UNL     1       5.177   4.870  15.556  0.00  0.00    +0.000 OA
ATOM     23  C   UNL     1       5.602   5.797  16.481  0.00  0.00    +0.000 A 
BRANCH  21  24
ATOM     24  C   UNL     1       6.412   3.571  13.687  0.00  0.00    +0.000 C 
ATOM     25  C   UNL     1       6.713   4.130  12.312  0.00  0.00    +0.000 C 
ATOM     26  C   UNL     1       5.364   3.565  12.596  0.00  0.00    +0.000 C 
ENDBRANCH  21  24
ENDBRANCH  18  23
ENDBRANCH   1  18
TORSDOF 6
ENDMDL
