MODEL 1
REMARK VINA RESULT:      -8.6      0.000      0.000
REMARK  Name = 
REMARK  4 active torsions:
REMARK  status: ('A' for Active; 'I' for Inactive)
REMARK    1  A    between atoms: C_2  and  C_21
REMARK    2  A    between atoms: N_3  and  C_4
REMARK    3  A    between atoms: C_7  and  C_8
REMARK    4  A    between atoms: C_11  and  C_12
REMARK                            x       y       z     vdW  Elec       q    Type
REMARK                         _______ _______ _______ _____ _____    ______ ____
ROOT
ATOM      1  C   UNL     1       3.466   7.164  17.910  0.00  0.00    +0.000 A 
ATOM      2  N   UNL     1       4.317   7.809  17.044  0.00  0.00    +0.000 N 
ATOM      3  N   UNL     1       5.005   6.997  16.238  0.00  0.00    +0.000 NA
ATOM      4  C   UNL     1       4.678   5.776  16.674  0.00  0.00    +0.000 A 
ATOM      5  C   UNL     1       3.687   5.807  17.711  0.00  0.00    +0.000 A 
ATOM      6  H   UNL     1       4.439   8.814  16.958  0.00  0.00    +0.000 HD
ENDROOT
BRANCH   5   7
ATOM      7  C   UNL     1       3.031   4.732  18.456  0.00  0.00    +0.000 A 
ATOM      8  C   UNL     1       2.321   3.706  17.782  0.00  0.00    +0.000 A 
ATOM      9  C   UNL     1       1.714   2.655  18.479  0.00  0.00    +0.000 A 
ATOM     10  C   UNL     1       1.778   2.679  19.851  0.00  0.00    +0.000 A 
ATOM     11  C   UNL     1       2.433   3.682  20.522  0.00  0.00    +0.000 A 
ATOM     12  C   UNL     1       3.086   4.702  19.858  0.00  0.00    +0.000 A 
ATOM     13  O   UNL     1       2.356   3.538  21.872  0.00  0.00    +0.000 OA
ATOM     14  C   UNL     1       1.562   2.338  21.972  0.00  0.00    +0.000 C 
ATOM     15  O   UNL     1       1.222   1.768  20.691  0.00  0.00    +0.000 OA
ENDBRANCH   5   7
BRANCH   1  18
ATOM     16  O   UNL     1       1.968   9.399  17.149  0.00  0.00    +0.000 OA
ATOM     17  C   UNL     1       1.903   8.969  18.301  0.00  0.00    +0.000 C 
ATOM     18  N   UNL     1       2.611   7.867  18.750  0.00  0.00    +0.000 N 
ATOM     19  H   UNL     1       2.514   7.621  19.731  0.00  0.00    +0.000 HD
BRANCH  17  20
ATOM     20  C   UNL     1       1.052   9.614  19.309  0.00  0.00    +0.000 A 
ATOM     21  C   UNL     1       0.824   9.103  20.612  0.00  0.00    +0.000 A 
ATOM     22  C   UNL     1       0.048  10.038  21.248  0.00  0.00    +0.000 A 
ATOM     23  N   UNL     1      -0.216  10.990  20.317  0.00  0.00    +0.000 N 
ATOM     24  N   UNL     1       0.393  10.777  19.125  0.00  0.00    +0.000 NA
ATOM     25  C   UNL     1      -1.079  12.131  20.504  0.00  0.00    +0.000 C 
ATOM     26  C   UNL     1      -1.621  12.329  21.919  0.00  0.00    +0.000 C 
ATOM     27  C   UNL     1      -1.267  11.310  23.005  0.00  0.00    +0.000 C 
ATOM     28  C   UNL     1      -0.439  10.087  22.640  0.00  0.00    +0.000 C 
ENDBRANCH  17  20
ENDBRANCH   1  18
BRANCH   4  29
ATOM     29  C   UNL     1       5.360   4.534  16.098  0.00  0.00    +0.000 C 
ATOM     30  C   UNL     1       6.860   4.378  16.276  0.00  0.00    +0.000 C 
ATOM     31  C   UNL     1       6.313   4.706  14.929  0.00  0.00    +0.000 C 
ENDBRANCH   4  29
TORSDOF 4
ENDMDL
MODEL 2
REMARK VINA RESULT:      -8.5      0.619      1.137
REMARK  Name = 
REMARK  4 active torsions:
REMARK  status: ('A' for Active; 'I' for Inactive)
REMARK    1  A    between atoms: C_2  and  C_21
REMARK    2  A    between atoms: N_3  and  C_4
REMARK    3  A    between atoms: C_7  and  C_8
REMARK    4  A    between atoms: C_11  and  C_12
REMARK                            x       y       z     vdW  Elec       q    Type
REMARK                         _______ _______ _______ _____ _____    ______ ____
ROOT
ATOM      1  C   UNL     1       3.530   7.169  17.828  0.00  0.00    +0.000 A 
ATOM      2  N   UNL     1       4.378   7.797  16.947  0.00  0.00    +0.000 N 
ATOM      3  N   UNL     1       5.017   6.975  16.112  0.00  0.00    +0.000 NA
ATOM      4  C   UNL     1       4.662   5.759  16.541  0.00  0.00    +0.000 A 
ATOM      5  C   UNL     1       3.702   5.808  17.606  0.00  0.00    +0.000 A 
ATOM      6  H   UNL     1       4.529   8.800  16.870  0.00  0.00    +0.000 HD
ENDROOT
BRANCH   5   7
ATOM      7  C   UNL     1       3.032   4.744  18.355  0.00  0.00    +0.000 A 
ATOM      8  C   UNL     1       2.293   3.737  17.687  0.00  0.00    +0.000 A 
ATOM      9  C   UNL     1       1.671   2.696  18.388  0.00  0.00    +0.000 A 
ATOM     10  C   UNL     1       1.753   2.714  19.759  0.00  0.00    +0.000 A 
ATOM     11  C   UNL     1       2.438   3.700  20.425  0.00  0.00    +0.000 A 
ATOM     12  C   UNL     1       3.104   4.708  19.756  0.00  0.00    +0.000 A 
ATOM     13  O   UNL     1       2.375   3.553  21.776  0.00  0.00    +0.000 OA
ATOM     14  C   UNL     1       1.556   2.370  21.882  0.00  0.00    +0.000 C 
ATOM     15  O   UNL     1       1.188   1.812  20.603  0.00  0.00    +0.000 OA
ENDBRANCH   5   7
BRANCH   1  18
ATOM     16  O   UNL     1       1.903   9.318  17.085  0.00  0.00    +0.000 OA
ATOM     17  C   UNL     1       1.944   8.944  18.258  0.00  0.00    +0.000 C 
ATOM     18  N   UNL     1       2.722   7.887  18.700  0.00  0.00    +0.000 N 
ATOM     19  H   UNL     1       2.711   7.688  19.696  0.00  0.00    +0.000 HD
BRANCH  17  20
ATOM     20  C   UNL     1       1.155   9.613  19.300  0.00  0.00    +0.000 A 
ATOM     21  C   UNL     1       0.426  10.814  19.106  0.00  0.00    +0.000 A 
ATOM     22  C   UNL     1      -0.226  11.049  20.289  0.00  0.00    +0.000 A 
ATOM     23  N   UNL     1       0.184  10.069  21.135  0.00  0.00    +0.000 N 
ATOM     24  N   UNL     1       1.014   9.162  20.563  0.00  0.00    +0.000 NA
ATOM     25  C   UNL     1      -0.169   9.961  22.529  0.00  0.00    +0.000 C 
ATOM     26  C   UNL     1      -1.196  10.974  23.034  0.00  0.00    +0.000 C 
ATOM     27  C   UNL     1      -1.734  12.038  22.074  0.00  0.00    +0.000 C 
ATOM     28  C   UNL     1      -1.187  12.107  20.656  0.00  0.00    +0.000 C 
ENDBRANCH  17  20
ENDBRANCH   1  18
BRANCH   4  29
ATOM     29  C   UNL     1       5.289   4.504  15.931  0.00  0.00    +0.000 C 
ATOM     30  C   UNL     1       6.781   4.280  16.096  0.00  0.00    +0.000 C 
ATOM     31  C   UNL     1       6.242   4.664  14.761  0.00  0.00    +0.000 C 
ENDBRANCH   4  29
TORSDOF 4
ENDMDL
MODEL 3
REMARK VINA RESULT:      -8.5      4.491      6.956
REMARK  Name = 
REMARK  4 active torsions:
REMARK  status: ('A' for Active; 'I' for Inactive)
REMARK    1  A    between atoms: C_2  and  C_21
REMARK    2  A    between atoms: N_3  and  C_4
REMARK    3  A    between atoms: C_7  and  C_8
REMARK    4  A    between atoms: C_11  and  C_12
REMARK                            x       y       z     vdW  Elec       q    Type
REMARK                         _______ _______ _______ _____ _____    ______ ____
ROOT
ATOM      1  C   UNL     1       6.012   6.498  17.093  0.00  0.00    +0.000 A 
ATOM      2  N   UNL     1       6.656   5.425  16.524  0.00  0.00    +0.000 N 
ATOM      3  N   UNL     1       5.879   4.361  16.314  0.00  0.00    +0.000 NA
ATOM      4  C   UNL     1       4.715   4.711  16.873  0.00  0.00    +0.000 A 
ATOM      5  C   UNL     1       4.720   6.060  17.360  0.00  0.00    +0.000 A 
ATOM      6  H   UNL     1       7.632   5.392  16.241  0.00  0.00    +0.000 HD
ENDROOT
BRANCH   5   7
ATOM      7  C   UNL     1       3.683   6.857  18.015  0.00  0.00    +0.000 A 
ATOM      8  C   UNL     1       3.161   6.479  19.278  0.00  0.00    +0.000 A 
ATOM      9  C   UNL     1       2.190   7.248  19.931  0.00  0.00    +0.000 A 
ATOM     10  C   UNL     1       1.713   8.358  19.278  0.00  0.00    +0.000 A 
ATOM     11  C   UNL     1       2.183   8.722  18.041  0.00  0.00    +0.000 A 
ATOM     12  C   UNL     1       3.178   8.012  17.398  0.00  0.00    +0.000 A 
ATOM     13  O   UNL     1       1.562   9.831  17.556  0.00  0.00    +0.000 OA
ATOM     14  C   UNL     1       0.635  10.112  18.625  0.00  0.00    +0.000 C 
ATOM     15  O   UNL     1       0.751   9.201  19.738  0.00  0.00    +0.000 OA
ENDBRANCH   5   7
BRANCH   1  18
ATOM     16  O   UNL     1       8.253   6.865  18.725  0.00  0.00    +0.000 OA
ATOM     17  C   UNL     1       7.760   7.818  18.119  0.00  0.00    +0.000 C 
ATOM     18  N   UNL     1       6.655   7.713  17.292  0.00  0.00    +0.000 N 
ATOM     19  H   UNL     1       6.307   8.570  16.871  0.00  0.00    +0.000 HD
BRANCH  17  20
ATOM     20  C   UNL     1       8.322   9.170  18.238  0.00  0.00    +0.000 A 
ATOM     21  C   UNL     1       9.380   9.524  19.113  0.00  0.00    +0.000 A 
ATOM     22  C   UNL     1       9.649  10.845  18.857  0.00  0.00    +0.000 A 
ATOM     23  N   UNL     1       8.728  11.234  17.938  0.00  0.00    +0.000 N 
ATOM     24  N   UNL     1       7.910  10.237  17.522  0.00  0.00    +0.000 NA
ATOM     25  C   UNL     1       8.562  12.575  17.434  0.00  0.00    +0.000 C 
ATOM     26  C   UNL     1       9.609  13.591  17.890  0.00  0.00    +0.000 C 
ATOM     27  C   UNL     1      10.706  13.150  18.861  0.00  0.00    +0.000 C 
ATOM     28  C   UNL     1      10.694  11.729  19.405  0.00  0.00    +0.000 C 
ENDBRANCH  17  20
ENDBRANCH   1  18
BRANCH   4  29
ATOM     29  C   UNL     1       3.565   3.707  16.973  0.00  0.00    +0.000 C 
ATOM     30  C   UNL     1       3.134   3.226  18.347  0.00  0.00    +0.000 C 
ATOM     31  C   UNL     1       3.871   2.297  17.445  0.00  0.00    +0.000 C 
ENDBRANCH   4  29
TORSDOF 4
ENDMDL
MODEL 4
REMARK VINA RESULT:      -8.5      4.458      7.012
REMARK  Name = 
REMARK  4 active torsions:
REMARK  status: ('A' for Active; 'I' for Inactive)
REMARK    1  A    between atoms: C_2  and  C_21
REMARK    2  A    between atoms: N_3  and  C_4
REMARK    3  A    between atoms: C_7  and  C_8
REMARK    4  A    between atoms: C_11  and  C_12
REMARK                            x       y       z     vdW  Elec       q    Type
REMARK                         _______ _______ _______ _____ _____    ______ ____
ROOT
ATOM      1  C   UNL     1       6.005   6.354  17.144  0.00  0.00    +0.000 A 
ATOM      2  N   UNL     1       6.627   5.257  16.598  0.00  0.00    +0.000 N 
ATOM      3  N   UNL     1       5.825   4.208  16.401  0.00  0.00    +0.000 NA
ATOM      4  C   UNL     1       4.667   4.596  16.945  0.00  0.00    +0.000 A 
ATOM      5  C   UNL     1       4.702   5.953  17.409  0.00  0.00    +0.000 A 
ATOM      6  H   UNL     1       7.604   5.194  16.323  0.00  0.00    +0.000 HD
ENDROOT
BRANCH   5   7
ATOM      7  C   UNL     1       3.680   6.786  18.043  0.00  0.00    +0.000 A 
ATOM      8  C   UNL     1       3.125   6.432  19.298  0.00  0.00    +0.000 A 
ATOM      9  C   UNL     1       2.168   7.235  19.931  0.00  0.00    +0.000 A 
ATOM     10  C   UNL     1       1.738   8.357  19.265  0.00  0.00    +0.000 A 
ATOM     11  C   UNL     1       2.240   8.699  18.034  0.00  0.00    +0.000 A 
ATOM     12  C   UNL     1       3.223   7.954  17.412  0.00  0.00    +0.000 A 
ATOM     13  O   UNL     1       1.665   9.825  17.533  0.00  0.00    +0.000 OA
ATOM     14  C   UNL     1       0.729  10.141  18.585  0.00  0.00    +0.000 C 
ATOM     15  O   UNL     1       0.797   9.233  19.704  0.00  0.00    +0.000 OA
ENDBRANCH   5   7
BRANCH   1  18
ATOM     16  O   UNL     1       8.221   6.704  18.814  0.00  0.00    +0.000 OA
ATOM     17  C   UNL     1       7.767   7.654  18.174  0.00  0.00    +0.000 C 
ATOM     18  N   UNL     1       6.677   7.556  17.326  0.00  0.00    +0.000 N 
ATOM     19  H   UNL     1       6.361   8.412  16.878  0.00  0.00    +0.000 HD
BRANCH  17  20
ATOM     20  C   UNL     1       8.362   8.992  18.273  0.00  0.00    +0.000 A 
ATOM     21  C   UNL     1       8.003  10.091  17.452  0.00  0.00    +0.000 A 
ATOM     22  C   UNL     1       8.727  11.158  17.920  0.00  0.00    +0.000 A 
ATOM     23  N   UNL     1       9.518  10.660  18.905  0.00  0.00    +0.000 N 
ATOM     24  N   UNL     1       9.312   9.346  19.163  0.00  0.00    +0.000 NA
ATOM     25  C   UNL     1      10.523  11.399  19.629  0.00  0.00    +0.000 C 
ATOM     26  C   UNL     1      10.589  12.897  19.332  0.00  0.00    +0.000 C 
ATOM     27  C   UNL     1       9.648  13.494  18.282  0.00  0.00    +0.000 C 
ATOM     28  C   UNL     1       8.714  12.575  17.509  0.00  0.00    +0.000 C 
ENDBRANCH  17  20
ENDBRANCH   1  18
BRANCH   4  29
ATOM     29  C   UNL     1       3.492   3.623  17.054  0.00  0.00    +0.000 C 
ATOM     30  C   UNL     1       3.059   3.153  18.431  0.00  0.00    +0.000 C 
ATOM     31  C   UNL     1       3.765   2.205  17.523  0.00  0.00    +0.000 C 
ENDBRANCH   4  29
TORSDOF 4
ENDMDL
MODEL 5
REMARK VINA RESULT:      -8.3      4.516      6.782
REMARK  Name = 
REMARK  4 active torsions:
REMARK  status: ('A' for Active; 'I' for Inactive)
REMARK    1  A    between atoms: C_2  and  C_21
REMARK    2  A    between atoms: N_3  and  C_4
REMARK    3  A    between atoms: C_7  and  C_8
REMARK    4  A    between atoms: C_11  and  C_12
REMARK                            x       y       z     vdW  Elec       q    Type
REMARK                         _______ _______ _______ _____ _____    ______ ____
ROOT
ATOM      1  C   UNL     1       5.763   6.572  17.269  0.00  0.00    +0.000 A 
ATOM      2  N   UNL     1       6.381   5.457  16.753  0.00  0.00    +0.000 N 
ATOM      3  N   UNL     1       5.569   4.418  16.552  0.00  0.00    +0.000 NA
ATOM      4  C   UNL     1       4.403   4.830  17.062  0.00  0.00    +0.000 A 
ATOM      5  C   UNL     1       4.448   6.193  17.508  0.00  0.00    +0.000 A 
ATOM      6  H   UNL     1       7.363   5.377  16.502  0.00  0.00    +0.000 HD
ENDROOT
BRANCH   5   7
ATOM      7  C   UNL     1       3.424   7.051  18.105  0.00  0.00    +0.000 A 
ATOM      8  C   UNL     1       2.909   8.169  17.402  0.00  0.00    +0.000 A 
ATOM      9  C   UNL     1       1.907   8.981  17.948  0.00  0.00    +0.000 A 
ATOM     10  C   UNL     1       1.476   8.692  19.220  0.00  0.00    +0.000 A 
ATOM     11  C   UNL     1       1.986   7.633  19.928  0.00  0.00    +0.000 A 
ATOM     12  C   UNL     1       2.936   6.785  19.394  0.00  0.00    +0.000 A 
ATOM     13  O   UNL     1       1.450   7.536  21.174  0.00  0.00    +0.000 OA
ATOM     14  C   UNL     1       0.556   8.668  21.173  0.00  0.00    +0.000 C 
ATOM     15  O   UNL     1       0.541   9.385  19.921  0.00  0.00    +0.000 OA
ENDBRANCH   5   7
BRANCH   1  18
ATOM     16  O   UNL     1       8.223   6.815  18.576  0.00  0.00    +0.000 OA
ATOM     17  C   UNL     1       7.663   7.809  18.112  0.00  0.00    +0.000 C 
ATOM     18  N   UNL     1       6.448   7.766  17.450  0.00  0.00    +0.000 N 
ATOM     19  H   UNL     1       6.057   8.652  17.142  0.00  0.00    +0.000 HD
BRANCH  17  20
ATOM     20  C   UNL     1       8.258   9.146  18.236  0.00  0.00    +0.000 A 
ATOM     21  C   UNL     1       9.309   9.476  19.128  0.00  0.00    +0.000 A 
ATOM     22  C   UNL     1       9.618  10.788  18.872  0.00  0.00    +0.000 A 
ATOM     23  N   UNL     1       8.725  11.198  17.935  0.00  0.00    +0.000 N 
ATOM     24  N   UNL     1       7.889  10.220  17.508  0.00  0.00    +0.000 NA
ATOM     25  C   UNL     1       8.604  12.540  17.421  0.00  0.00    +0.000 C 
ATOM     26  C   UNL     1       9.668  13.530  17.892  0.00  0.00    +0.000 C 
ATOM     27  C   UNL     1      10.735  13.065  18.886  0.00  0.00    +0.000 C 
ATOM     28  C   UNL     1      10.675  11.648  19.436  0.00  0.00    +0.000 C 
ENDBRANCH  17  20
ENDBRANCH   1  18
BRANCH   4  29
ATOM     29  C   UNL     1       3.212   3.876  17.157  0.00  0.00    +0.000 C 
ATOM     30  C   UNL     1       2.782   3.380  18.525  0.00  0.00    +0.000 C 
ATOM     31  C   UNL     1       3.463   2.443  17.588  0.00  0.00    +0.000 C 
ENDBRANCH   4  29
TORSDOF 4
ENDMDL
MODEL 6
REMARK VINA RESULT:      -8.3      4.450      6.841
REMARK  Name = 
REMARK  4 active torsions:
REMARK  status: ('A' for Active; 'I' for Inactive)
REMARK    1  A    between atoms: C_2  and  C_21
REMARK    2  A    between atoms: N_3  and  C_4
REMARK    3  A    between atoms: C_7  and  C_8
REMARK    4  A    between atoms: C_11  and  C_12
REMARK                            x       y       z     vdW  Elec       q    Type
REMARK                         _______ _______ _______ _____ _____    ______ ____
ROOT
ATOM      1  C   UNL     1       5.648   6.427  17.324  0.00  0.00    +0.000 A 
ATOM      2  N   UNL     1       6.224   5.280  16.830  0.00  0.00    +0.000 N 
ATOM      3  N   UNL     1       5.372   4.269  16.646  0.00  0.00    +0.000 NA
ATOM      4  C   UNL     1       4.223   4.735  17.147  0.00  0.00    +0.000 A 
ATOM      5  C   UNL     1       4.319   6.103  17.568  0.00  0.00    +0.000 A 
ATOM      6  H   UNL     1       7.202   5.157  16.582  0.00  0.00    +0.000 HD
ENDROOT
BRANCH   5   7
ATOM      7  C   UNL     1       3.328   7.011  18.147  0.00  0.00    +0.000 A 
ATOM      8  C   UNL     1       2.849   8.128  17.419  0.00  0.00    +0.000 A 
ATOM      9  C   UNL     1       1.878   8.987  17.947  0.00  0.00    +0.000 A 
ATOM     10  C   UNL     1       1.443   8.745  19.227  0.00  0.00    +0.000 A 
ATOM     11  C   UNL     1       1.919   7.687  19.960  0.00  0.00    +0.000 A 
ATOM     12  C   UNL     1       2.837   6.793  19.444  0.00  0.00    +0.000 A 
ATOM     13  O   UNL     1       1.386   7.640  21.210  0.00  0.00    +0.000 OA
ATOM     14  C   UNL     1       0.531   8.801  21.184  0.00  0.00    +0.000 C 
ATOM     15  O   UNL     1       0.536   9.488  19.915  0.00  0.00    +0.000 OA
ENDBRANCH   5   7
BRANCH   1  18
ATOM     16  O   UNL     1       8.121   6.596  18.618  0.00  0.00    +0.000 OA
ATOM     17  C   UNL     1       7.597   7.605  18.141  0.00  0.00    +0.000 C 
ATOM     18  N   UNL     1       6.378   7.597  17.485  0.00  0.00    +0.000 N 
ATOM     19  H   UNL     1       6.019   8.493  17.165  0.00  0.00    +0.000 HD
BRANCH  17  20
ATOM     20  C   UNL     1       8.242   8.920  18.243  0.00  0.00    +0.000 A 
ATOM     21  C   UNL     1       7.909  10.040  17.441  0.00  0.00    +0.000 A 
ATOM     22  C   UNL     1       8.680  11.075  17.908  0.00  0.00    +0.000 A 
ATOM     23  N   UNL     1       9.469  10.537  18.873  0.00  0.00    +0.000 N 
ATOM     24  N   UNL     1       9.221   9.228  19.119  0.00  0.00    +0.000 NA
ATOM     25  C   UNL     1      10.513  11.231  19.586  0.00  0.00    +0.000 C 
ATOM     26  C   UNL     1      10.628  12.728  19.304  0.00  0.00    +0.000 C 
ATOM     27  C   UNL     1       9.691  13.371  18.278  0.00  0.00    +0.000 C 
ATOM     28  C   UNL     1       8.710  12.496  17.513  0.00  0.00    +0.000 C 
ENDBRANCH  17  20
ENDBRANCH   1  18
BRANCH   4  29
ATOM     29  C   UNL     1       2.996   3.829  17.256  0.00  0.00    +0.000 C 
ATOM     30  C   UNL     1       2.644   3.239  18.609  0.00  0.00    +0.000 C 
ATOM     31  C   UNL     1       3.206   2.355  17.550  0.00  0.00    +0.000 C 
ENDBRANCH   4  29
TORSDOF 4
ENDMDL
MODEL 7
REMARK VINA RESULT:      -8.2      2.513      8.715
REMARK  Name = 
REMARK  4 active torsions:
REMARK  status: ('A' for Active; 'I' for Inactive)
REMARK    1  A    between atoms: C_2  and  C_21
REMARK    2  A    between atoms: N_3  and  C_4
REMARK    3  A    between atoms: C_7  and  C_8
REMARK    4  A    between atoms: C_11  and  C_12
REMARK                            x       y       z     vdW  Elec       q    Type
REMARK                         _______ _______ _______ _____ _____    ______ ____
ROOT
ATOM      1  C   UNL     1       1.086   9.169  21.050  0.00  0.00    +0.000 A 
ATOM      2  N   UNL     1       1.410   9.036  22.380  0.00  0.00    +0.000 N 
ATOM      3  N   UNL     1       0.573   9.653  23.217  0.00  0.00    +0.000 NA
ATOM      4  C   UNL     1      -0.259  10.307  22.400  0.00  0.00    +0.000 A 
ATOM      5  C   UNL     1      -0.009  10.024  21.016  0.00  0.00    +0.000 A 
ATOM      6  H   UNL     1       2.191   8.507  22.758  0.00  0.00    +0.000 HD
ENDROOT
BRANCH   5   7
ATOM      7  C   UNL     1      -0.670  10.491  19.797  0.00  0.00    +0.000 A 
ATOM      8  C   UNL     1      -0.390  11.772  19.261  0.00  0.00    +0.000 A 
ATOM      9  C   UNL     1      -0.992  12.222  18.079  0.00  0.00    +0.000 A 
ATOM     10  C   UNL     1      -1.914  11.397  17.481  0.00  0.00    +0.000 A 
ATOM     11  C   UNL     1      -2.222  10.165  18.003  0.00  0.00    +0.000 A 
ATOM     12  C   UNL     1      -1.604   9.676  19.138  0.00  0.00    +0.000 A 
ATOM     13  O   UNL     1      -3.176   9.520  17.280  0.00  0.00    +0.000 OA
ATOM     14  C   UNL     1      -3.445  10.496  16.253  0.00  0.00    +0.000 C 
ATOM     15  O   UNL     1      -2.620  11.676  16.354  0.00  0.00    +0.000 OA
ENDBRANCH   5   7
BRANCH   1  18
ATOM     16  O   UNL     1       1.480   6.403  20.938  0.00  0.00    +0.000 OA
ATOM     17  C   UNL     1       1.957   7.136  20.070  0.00  0.00    +0.000 C 
ATOM     18  N   UNL     1       1.800   8.512  20.057  0.00  0.00    +0.000 N 
ATOM     19  H   UNL     1       2.269   9.024  19.315  0.00  0.00    +0.000 HD
BRANCH  17  20
ATOM     20  C   UNL     1       2.749   6.589  18.961  0.00  0.00    +0.000 A 
ATOM     21  C   UNL     1       3.386   7.374  17.968  0.00  0.00    +0.000 A 
ATOM     22  C   UNL     1       4.077   6.489  17.179  0.00  0.00    +0.000 A 
ATOM     23  N   UNL     1       3.773   5.256  17.660  0.00  0.00    +0.000 N 
ATOM     24  N   UNL     1       2.979   5.275  18.758  0.00  0.00    +0.000 NA
ATOM     25  C   UNL     1       4.198   4.003  17.086  0.00  0.00    +0.000 C 
ATOM     26  C   UNL     1       5.179   4.106  15.918  0.00  0.00    +0.000 C 
ATOM     27  C   UNL     1       5.599   5.489  15.414  0.00  0.00    +0.000 C 
ATOM     28  C   UNL     1       4.982   6.731  16.040  0.00  0.00    +0.000 C 
ENDBRANCH  17  20
ENDBRANCH   1  18
BRANCH   4  29
ATOM     29  C   UNL     1      -1.312  11.264  22.961  0.00  0.00    +0.000 C 
ATOM     30  C   UNL     1      -2.068  12.162  21.999  0.00  0.00    +0.000 C 
ATOM     31  C   UNL     1      -1.042  12.756  22.902  0.00  0.00    +0.000 C 
ENDBRANCH   4  29
TORSDOF 4
ENDMDL
MODEL 8
REMARK VINA RESULT:      -8.1      2.530      8.702
REMARK  Name = 
REMARK  4 active torsions:
REMARK  status: ('A' for Active; 'I' for Inactive)
REMARK    1  A    between atoms: C_2  and  C_21
REMARK    2  A    between atoms: N_3  and  C_4
REMARK    3  A    between atoms: C_7  and  C_8
REMARK    4  A    between atoms: C_11  and  C_12
REMARK                            x       y       z     vdW  Elec       q    Type
REMARK                         _______ _______ _______ _____ _____    ______ ____
ROOT
ATOM      1  C   UNL     1       0.863   9.458  20.933  0.00  0.00    +0.000 A 
ATOM      2  N   UNL     1       1.121   9.432  22.283  0.00  0.00    +0.000 N 
ATOM      3  N   UNL     1       0.231  10.090  23.029  0.00  0.00    +0.000 NA
ATOM      4  C   UNL     1      -0.571  10.662  22.124  0.00  0.00    +0.000 A 
ATOM      5  C   UNL     1      -0.246  10.282  20.780  0.00  0.00    +0.000 A 
ATOM      6  H   UNL     1       1.892   8.951  22.739  0.00  0.00    +0.000 HD
ENDROOT
BRANCH   5   7
ATOM      7  C   UNL     1      -0.853  10.641  19.498  0.00  0.00    +0.000 A 
ATOM      8  C   UNL     1      -0.617  11.908  18.909  0.00  0.00    +0.000 A 
ATOM      9  C   UNL     1      -1.166  12.256  17.669  0.00  0.00    +0.000 A 
ATOM     10  C   UNL     1      -1.995  11.344  17.062  0.00  0.00    +0.000 A 
ATOM     11  C   UNL     1      -2.261  10.123  17.633  0.00  0.00    +0.000 A 
ATOM     12  C   UNL     1      -1.690   9.735  18.829  0.00  0.00    +0.000 A 
ATOM     13  O   UNL     1      -3.125   9.381  16.890  0.00  0.00    +0.000 OA
ATOM     14  C   UNL     1      -3.385  10.283  15.795  0.00  0.00    +0.000 C 
ATOM     15  O   UNL     1      -2.642  11.517  15.880  0.00  0.00    +0.000 OA
ENDBRANCH   5   7
BRANCH   1  18
ATOM     16  O   UNL     1       1.312   6.701  21.047  0.00  0.00    +0.000 OA
ATOM     17  C   UNL     1       1.820   7.378  20.152  0.00  0.00    +0.000 C 
ATOM     18  N   UNL     1       1.640   8.746  20.029  0.00  0.00    +0.000 N 
ATOM     19  H   UNL     1       2.137   9.213  19.276  0.00  0.00    +0.000 HD
BRANCH  17  20
ATOM     20  C   UNL     1       2.679   6.769  19.128  0.00  0.00    +0.000 A 
ATOM     21  C   UNL     1       2.913   5.376  19.004  0.00  0.00    +0.000 A 
ATOM     22  C   UNL     1       3.695   5.228  17.887  0.00  0.00    +0.000 A 
ATOM     23  N   UNL     1       3.955   6.488  17.452  0.00  0.00    +0.000 N 
ATOM     24  N   UNL     1       3.338   7.456  18.173  0.00  0.00    +0.000 NA
ATOM     25  C   UNL     1       4.821   6.835  16.352  0.00  0.00    +0.000 C 
ATOM     26  C   UNL     1       5.373   5.659  15.545  0.00  0.00    +0.000 C 
ATOM     27  C   UNL     1       5.024   4.231  15.970  0.00  0.00    +0.000 C 
ATOM     28  C   UNL     1       4.191   4.007  17.223  0.00  0.00    +0.000 C 
ENDBRANCH  17  20
ENDBRANCH   1  18
BRANCH   4  29
ATOM     29  C   UNL     1      -1.670  11.633  22.559  0.00  0.00    +0.000 C 
ATOM     30  C   UNL     1      -1.763  12.983  21.873  0.00  0.00    +0.000 C 
ATOM     31  C   UNL     1      -1.269  12.909  23.277  0.00  0.00    +0.000 C 
ENDBRANCH   4  29
TORSDOF 4
ENDMDL
MODEL 9
REMARK VINA RESULT:      -8.0      1.148      1.445
REMARK  Name = 
REMARK  4 active torsions:
REMARK  status: ('A' for Active; 'I' for Inactive)
REMARK    1  A    between atoms: C_2  and  C_21
REMARK    2  A    between atoms: N_3  and  C_4
REMARK    3  A    between atoms: C_7  and  C_8
REMARK    4  A    between atoms: C_11  and  C_12
REMARK                            x       y       z     vdW  Elec       q    Type
REMARK                         _______ _______ _______ _____ _____    ______ ____
ROOT
ATOM      1  C   UNL     1       3.873   7.067  17.553  0.00  0.00    +0.000 A 
ATOM      2  N   UNL     1       4.636   7.830  16.702  0.00  0.00    +0.000 N 
ATOM      3  N   UNL     1       5.313   7.131  15.788  0.00  0.00    +0.000 NA
ATOM      4  C   UNL     1       5.075   5.860  16.130  0.00  0.00    +0.000 A 
ATOM      5  C   UNL     1       4.149   5.746  17.220  0.00  0.00    +0.000 A 
ATOM      6  H   UNL     1       4.702   8.845  16.700  0.00  0.00    +0.000 HD
ENDROOT
BRANCH   5   7
ATOM      7  C   UNL     1       3.594   4.576  17.902  0.00  0.00    +0.000 A 
ATOM      8  C   UNL     1       4.413   3.745  18.706  0.00  0.00    +0.000 A 
ATOM      9  C   UNL     1       3.890   2.639  19.389  0.00  0.00    +0.000 A 
ATOM     10  C   UNL     1       2.560   2.349  19.206  0.00  0.00    +0.000 A 
ATOM     11  C   UNL     1       1.759   3.124  18.405  0.00  0.00    +0.000 A 
ATOM     12  C   UNL     1       2.236   4.250  17.763  0.00  0.00    +0.000 A 
ATOM     13  O   UNL     1       0.486   2.652  18.333  0.00  0.00    +0.000 OA
ATOM     14  C   UNL     1       0.583   1.481  19.169  0.00  0.00    +0.000 C 
ATOM     15  O   UNL     1       1.890   1.303  19.756  0.00  0.00    +0.000 OA
ENDBRANCH   5   7
BRANCH   1  18
ATOM     16  O   UNL     1       2.091   9.158  17.037  0.00  0.00    +0.000 OA
ATOM     17  C   UNL     1       2.182   8.683  18.170  0.00  0.00    +0.000 C 
ATOM     18  N   UNL     1       3.038   7.646  18.499  0.00  0.00    +0.000 N 
ATOM     19  H   UNL     1       3.061   7.356  19.473  0.00  0.00    +0.000 HD
BRANCH  17  20
ATOM     20  C   UNL     1       1.372   9.199  19.280  0.00  0.00    +0.000 A 
ATOM     21  C   UNL     1       1.175   8.523  20.511  0.00  0.00    +0.000 A 
ATOM     22  C   UNL     1       0.433   9.374  21.290  0.00  0.00    +0.000 A 
ATOM     23  N   UNL     1       0.157  10.444  20.500  0.00  0.00    +0.000 N 
ATOM     24  N   UNL     1       0.726  10.383  19.272  0.00  0.00    +0.000 NA
ATOM     25  C   UNL     1      -0.682  11.560  20.864  0.00  0.00    +0.000 C 
ATOM     26  C   UNL     1      -1.178  11.575  22.309  0.00  0.00    +0.000 C 
ATOM     27  C   UNL     1      -0.808  10.418  23.240  0.00  0.00    +0.000 C 
ATOM     28  C   UNL     1      -0.010   9.245  22.690  0.00  0.00    +0.000 C 
ENDBRANCH  17  20
ENDBRANCH   1  18
BRANCH   4  29
ATOM     29  C   UNL     1       5.782   4.712  15.407  0.00  0.00    +0.000 C 
ATOM     30  C   UNL     1       7.122   4.234  15.936  0.00  0.00    +0.000 C 
ATOM     31  C   UNL     1       7.072   5.008  14.665  0.00  0.00    +0.000 C 
ENDBRANCH   4  29
TORSDOF 4
ENDMDL
