MODEL 1
REMARK VINA RESULT:      -8.8      0.000      0.000
REMARK  Name = 
REMARK  7 active torsions:
REMARK  status: ('A' for Active; 'I' for Inactive)
REMARK    1  A    between atoms: C_1  and  N_2
REMARK    2  A    between atoms: N_2  and  C_3
REMARK    3  A    between atoms: C_3  and  C_4
REMARK    4  A    between atoms: C_4  and  C_5
REMARK    5  A    between atoms: C_5  and  C_6
REMARK    6  A    between atoms: C_10  and  N_11
REMARK    7  A    between atoms: C_16  and  C_17
REMARK                            x       y       z     vdW  Elec       q    Type
REMARK                         _______ _______ _______ _____ _____    ______ ____
ROOT
ATOM      1  C   UNL     1       3.124   4.113  19.412  0.00  0.00    +0.000 A 
ATOM      2  C   UNL     1       2.818   3.530  18.168  0.00  0.00    +0.000 A 
ATOM      3  C   UNL     1       3.811   3.077  17.307  0.00  0.00    +0.000 A 
ATOM      4  C   UNL     1       5.143   3.284  17.624  0.00  0.00    +0.000 A 
ATOM      5  C   UNL     1       5.460   4.147  18.680  0.00  0.00    +0.000 A 
ATOM      6  C   UNL     1       4.483   4.412  19.645  0.00  0.00    +0.000 A 
ENDROOT
BRANCH   5   7
ATOM      7  N   UNL     1       6.513   5.144  18.493  0.00  0.00    +0.000 N 
ATOM      8  C   UNL     1       5.924   6.394  17.939  0.00  0.00    +0.000 C 
ATOM      9  C   UNL     1       5.994   6.131  16.467  0.00  0.00    +0.000 A 
ATOM     10  C   UNL     1       5.036   6.344  15.491  0.00  0.00    +0.000 A 
ATOM     11  C   UNL     1       5.169   5.650  14.281  0.00  0.00    +0.000 A 
ATOM     12  C   UNL     1       6.260   4.776  14.043  0.00  0.00    +0.000 A 
ATOM     13  C   UNL     1       7.245   4.609  15.033  0.00  0.00    +0.000 A 
ATOM     14  C   UNL     1       7.070   5.274  16.234  0.00  0.00    +0.000 A 
ATOM     15  C   UNL     1       7.525   4.776  17.560  0.00  0.00    +0.000 C 
ATOM     16  O   UNL     1       8.456   4.009  17.717  0.00  0.00    +0.000 OA
BRANCH  12  17
ATOM     17  C   UNL     1       6.314   3.924  12.796  0.00  0.00    +0.000 C 
ATOM     18  F   UNL     1       7.239   4.344  11.889  0.00  0.00    +0.000 F 
ATOM     19  F   UNL     1       6.606   2.624  13.062  0.00  0.00    +0.000 F 
ATOM     20  F   UNL     1       5.124   3.915  12.129  0.00  0.00    +0.000 F 
ENDBRANCH  12  17
ENDBRANCH   5   7
BRANCH   1  21
ATOM     21  C   UNL     1       1.978   4.402  20.497  0.00  0.00    +0.000 C 
ATOM     22  C   UNL     1       0.626   3.644  20.351  0.00  0.00    +0.000 C 
ATOM     23  O   UNL     1       1.019   2.679  21.358  0.00  0.00    +0.000 OA
ATOM     24  C   UNL     1       2.050   3.584  21.823  0.00  0.00    +0.000 C 
BRANCH  21  25
ATOM     25  C   UNL     1       1.891   5.924  20.735  0.00  0.00    +0.000 C 
BRANCH  25  26
ATOM     26  C   UNL     1       2.332   6.725  19.501  0.00  0.00    +0.000 C 
BRANCH  26  28
ATOM     27  C   UNL     1       1.237   8.574  20.784  0.00  0.00    +0.000 C 
ATOM     28  N   UNL     1       1.792   8.072  19.538  0.00  0.00    +0.000 N 
ATOM     29  C   UNL     1       1.857   8.838  18.456  0.00  0.00    +0.000 C 
ATOM     30  N   UNL     1       2.165   9.022  17.281  0.00  0.00    +0.000 NA
ATOM     31  N   UNL     1       1.486  10.067  18.184  0.00  0.00    +0.000 N 
ATOM     32  H   UNL     1       1.467  10.773  17.445  0.00  0.00    +0.000 HD
ENDBRANCH  26  28
ENDBRANCH  25  26
ENDBRANCH  21  25
ENDBRANCH   1  21
TORSDOF 6
ENDMDL
MODEL 2
REMARK VINA RESULT:      -8.3      0.768      1.096
REMARK  Name = 
REMARK  7 active torsions:
REMARK  status: ('A' for Active; 'I' for Inactive)
REMARK    1  A    between atoms: C_1  and  N_2
REMARK    2  A    between atoms: N_2  and  C_3
REMARK    3  A    between atoms: C_3  and  C_4
REMARK    4  A    between atoms: C_4  and  C_5
REMARK    5  A    between atoms: C_5  and  C_6
REMARK    6  A    between atoms: C_10  and  N_11
REMARK    7  A    between atoms: C_16  and  C_17
REMARK                            x       y       z     vdW  Elec       q    Type
REMARK                         _______ _______ _______ _____ _____    ______ ____
ROOT
ATOM      1  C   UNL     1       3.005   3.911  19.376  0.00  0.00    +0.000 A 
ATOM      2  C   UNL     1       2.661   3.459  18.088  0.00  0.00    +0.000 A 
ATOM      3  C   UNL     1       3.627   3.106  17.152  0.00  0.00    +0.000 A 
ATOM      4  C   UNL     1       4.968   3.289  17.447  0.00  0.00    +0.000 A 
ATOM      5  C   UNL     1       5.315   4.039  18.577  0.00  0.00    +0.000 A 
ATOM      6  C   UNL     1       4.370   4.194  19.595  0.00  0.00    +0.000 A 
ENDROOT
BRANCH   5   7
ATOM      7  N   UNL     1       6.359   5.057  18.462  0.00  0.00    +0.000 N 
ATOM      8  C   UNL     1       5.773   6.312  17.914  0.00  0.00    +0.000 C 
ATOM      9  C   UNL     1       5.912   6.087  16.440  0.00  0.00    +0.000 A 
ATOM     10  C   UNL     1       4.993   6.310  15.428  0.00  0.00    +0.000 A 
ATOM     11  C   UNL     1       5.191   5.650  14.208  0.00  0.00    +0.000 A 
ATOM     12  C   UNL     1       6.306   4.800  13.997  0.00  0.00    +0.000 A 
ATOM     13  C   UNL     1       7.251   4.624  15.025  0.00  0.00    +0.000 A 
ATOM     14  C   UNL     1       7.011   5.255  16.234  0.00  0.00    +0.000 A 
ATOM     15  C   UNL     1       7.416   4.731  17.565  0.00  0.00    +0.000 C 
ATOM     16  O   UNL     1       8.353   3.975  17.744  0.00  0.00    +0.000 OA
BRANCH  12  17
ATOM     17  C   UNL     1       6.430   3.982  12.732  0.00  0.00    +0.000 C 
ATOM     18  F   UNL     1       7.392   4.436  11.882  0.00  0.00    +0.000 F 
ATOM     19  F   UNL     1       6.725   2.678  12.979  0.00  0.00    +0.000 F 
ATOM     20  F   UNL     1       5.274   3.977  12.009  0.00  0.00    +0.000 F 
ENDBRANCH  12  17
ENDBRANCH   5   7
BRANCH   1  21
ATOM     21  C   UNL     1       1.894   4.076  20.522  0.00  0.00    +0.000 C 
ATOM     22  C   UNL     1       1.055   2.824  20.913  0.00  0.00    +0.000 C 
ATOM     23  O   UNL     1       1.889   2.586  22.073  0.00  0.00    +0.000 OA
ATOM     24  C   UNL     1       2.386   3.944  21.996  0.00  0.00    +0.000 C 
BRANCH  21  25
ATOM     25  C   UNL     1       1.107   5.379  20.266  0.00  0.00    +0.000 C 
BRANCH  25  26
ATOM     26  C   UNL     1       1.816   6.605  20.861  0.00  0.00    +0.000 C 
BRANCH  26  28
ATOM     27  C   UNL     1       2.393   7.539  18.611  0.00  0.00    +0.000 C 
ATOM     28  N   UNL     1       1.800   7.716  19.926  0.00  0.00    +0.000 N 
ATOM     29  C   UNL     1       1.205   8.853  20.265  0.00  0.00    +0.000 C 
ATOM     30  N   UNL     1       0.591   9.553  21.067  0.00  0.00    +0.000 NA
ATOM     31  N   UNL     1       1.011   9.999  19.655  0.00  0.00    +0.000 N 
ATOM     32  H   UNL     1       0.592  10.924  19.764  0.00  0.00    +0.000 HD
ENDBRANCH  26  28
ENDBRANCH  25  26
ENDBRANCH  21  25
ENDBRANCH   1  21
TORSDOF 6
ENDMDL
MODEL 3
REMARK VINA RESULT:      -8.2      5.435      8.811
REMARK  Name = 
REMARK  7 active torsions:
REMARK  status: ('A' for Active; 'I' for Inactive)
REMARK    1  A    between atoms: C_1  and  N_2
REMARK    2  A    between atoms: N_2  and  C_3
REMARK    3  A    between atoms: C_3  and  C_4
REMARK    4  A    between atoms: C_4  and  C_5
REMARK    5  A    between atoms: C_5  and  C_6
REMARK    6  A    between atoms: C_10  and  N_11
REMARK    7  A    between atoms: C_16  and  C_17
REMARK                            x       y       z     vdW  Elec       q    Type
REMARK                         _______ _______ _______ _____ _____    ______ ____
ROOT
ATOM      1  C   UNL     1       2.230   7.072  19.326  0.00  0.00    +0.000 A 
ATOM      2  C   UNL     1       2.329   7.595  18.022  0.00  0.00    +0.000 A 
ATOM      3  C   UNL     1       2.064   8.931  17.746  0.00  0.00    +0.000 A 
ATOM      4  C   UNL     1       1.596   9.761  18.752  0.00  0.00    +0.000 A 
ATOM      5  C   UNL     1       1.177   9.189  19.959  0.00  0.00    +0.000 A 
ATOM      6  C   UNL     1       1.640   7.913  20.293  0.00  0.00    +0.000 A 
ENDROOT
BRANCH   5   7
ATOM      7  N   UNL     1      -0.086   9.627  20.553  0.00  0.00    +0.000 N 
ATOM      8  C   UNL     1      -0.929  10.275  19.511  0.00  0.00    +0.000 C 
ATOM      9  C   UNL     1      -0.465  11.697  19.594  0.00  0.00    +0.000 A 
ATOM     10  C   UNL     1      -0.152  12.578  18.573  0.00  0.00    +0.000 A 
ATOM     11  C   UNL     1       0.640  13.690  18.889  0.00  0.00    +0.000 A 
ATOM     12  C   UNL     1       1.090  13.928  20.213  0.00  0.00    +0.000 A 
ATOM     13  C   UNL     1       0.722  13.043  21.242  0.00  0.00    +0.000 A 
ATOM     14  C   UNL     1      -0.027  11.930  20.897  0.00  0.00    +0.000 A 
ATOM     15  C   UNL     1       0.044  10.609  21.576  0.00  0.00    +0.000 C 
ATOM     16  O   UNL     1       0.387  10.455  22.733  0.00  0.00    +0.000 OA
BRANCH  12  17
ATOM     17  C   UNL     1       2.061  15.047  20.512  0.00  0.00    +0.000 C 
ATOM     18  F   UNL     1       2.027  15.466  21.807  0.00  0.00    +0.000 F 
ATOM     19  F   UNL     1       3.351  14.702  20.259  0.00  0.00    +0.000 F 
ATOM     20  F   UNL     1       1.813  16.157  19.761  0.00  0.00    +0.000 F 
ENDBRANCH  12  17
ENDBRANCH   5   7
BRANCH   1  21
ATOM     21  C   UNL     1       2.774   5.603  19.674  0.00  0.00    +0.000 C 
ATOM     22  C   UNL     1       2.297   4.942  21.000  0.00  0.00    +0.000 C 
ATOM     23  O   UNL     1       1.304   4.159  20.292  0.00  0.00    +0.000 OA
ATOM     24  C   UNL     1       1.998   4.405  19.045  0.00  0.00    +0.000 C 
BRANCH  21  25
ATOM     25  C   UNL     1       4.289   5.554  19.387  0.00  0.00    +0.000 C 
BRANCH  25  26
ATOM     26  C   UNL     1       4.743   4.161  18.924  0.00  0.00    +0.000 C 
BRANCH  26  28
ATOM     27  C   UNL     1       4.792   4.167  16.422  0.00  0.00    +0.000 C 
ATOM     28  N   UNL     1       5.500   4.247  17.689  0.00  0.00    +0.000 N 
ATOM     29  C   UNL     1       6.811   4.446  17.732  0.00  0.00    +0.000 C 
ATOM     30  N   UNL     1       7.859   4.603  18.354  0.00  0.00    +0.000 NA
ATOM     31  N   UNL     1       7.744   4.582  16.820  0.00  0.00    +0.000 N 
ATOM     32  H   UNL     1       8.746   4.738  16.689  0.00  0.00    +0.000 HD
ENDBRANCH  26  28
ENDBRANCH  25  26
ENDBRANCH  21  25
ENDBRANCH   1  21
TORSDOF 6
ENDMDL
MODEL 4
REMARK VINA RESULT:      -8.0      4.456      7.765
REMARK  Name = 
REMARK  7 active torsions:
REMARK  status: ('A' for Active; 'I' for Inactive)
REMARK    1  A    between atoms: C_1  and  N_2
REMARK    2  A    between atoms: N_2  and  C_3
REMARK    3  A    between atoms: C_3  and  C_4
REMARK    4  A    between atoms: C_4  and  C_5
REMARK    5  A    between atoms: C_5  and  C_6
REMARK    6  A    between atoms: C_10  and  N_11
REMARK    7  A    between atoms: C_16  and  C_17
REMARK                            x       y       z     vdW  Elec       q    Type
REMARK                         _______ _______ _______ _____ _____    ______ ____
ROOT
ATOM      1  C   UNL     1       2.121   5.425  19.324  0.00  0.00    +0.000 A 
ATOM      2  C   UNL     1       2.090   6.192  18.143  0.00  0.00    +0.000 A 
ATOM      3  C   UNL     1       2.118   7.582  18.171  0.00  0.00    +0.000 A 
ATOM      4  C   UNL     1       2.080   8.246  19.386  0.00  0.00    +0.000 A 
ATOM      5  C   UNL     1       1.776   7.519  20.543  0.00  0.00    +0.000 A 
ATOM      6  C   UNL     1       1.963   6.133  20.533  0.00  0.00    +0.000 A 
ENDROOT
BRANCH   5   7
ATOM      7  N   UNL     1       0.806   8.064  21.492  0.00  0.00    +0.000 N 
ATOM      8  C   UNL     1      -0.488   8.306  20.797  0.00  0.00    +0.000 C 
ATOM      9  C   UNL     1      -0.295   9.700  20.284  0.00  0.00    +0.000 A 
ATOM     10  C   UNL     1      -0.586  10.224  19.036  0.00  0.00    +0.000 A 
ATOM     11  C   UNL     1       0.051  11.414  18.662  0.00  0.00    +0.000 A 
ATOM     12  C   UNL     1       0.946  12.083  19.534  0.00  0.00    +0.000 A 
ATOM     13  C   UNL     1       1.192  11.555  20.815  0.00  0.00    +0.000 A 
ATOM     14  C   UNL     1       0.582  10.357  21.146  0.00  0.00    +0.000 A 
ATOM     15  C   UNL     1       1.159   9.326  22.049  0.00  0.00    +0.000 C 
ATOM     16  O   UNL     1       1.962   9.565  22.932  0.00  0.00    +0.000 OA
BRANCH  12  17
ATOM     17  C   UNL     1       1.736  13.282  19.065  0.00  0.00    +0.000 C 
ATOM     18  F   UNL     1       1.127  14.472  19.325  0.00  0.00    +0.000 F 
ATOM     19  F   UNL     1       2.968  13.354  19.636  0.00  0.00    +0.000 F 
ATOM     20  F   UNL     1       1.945  13.264  17.718  0.00  0.00    +0.000 F 
ENDBRANCH  12  17
ENDBRANCH   5   7
BRANCH   1  21
ATOM     21  C   UNL     1       2.338   3.836  19.274  0.00  0.00    +0.000 C 
ATOM     22  C   UNL     1       2.522   3.081  20.624  0.00  0.00    +0.000 C 
ATOM     23  O   UNL     1       1.134   2.663  20.618  0.00  0.00    +0.000 OA
ATOM     24  C   UNL     1       1.051   2.958  19.202  0.00  0.00    +0.000 C 
BRANCH  21  25
ATOM     25  C   UNL     1       3.352   3.508  18.159  0.00  0.00    +0.000 C 
BRANCH  25  26
ATOM     26  C   UNL     1       4.785   3.902  18.548  0.00  0.00    +0.000 C 
BRANCH  26  28
ATOM     27  C   UNL     1       4.922   4.274  16.077  0.00  0.00    +0.000 C 
ATOM     28  N   UNL     1       5.582   4.186  17.370  0.00  0.00    +0.000 N 
ATOM     29  C   UNL     1       6.885   4.409  17.493  0.00  0.00    +0.000 C 
ATOM     30  N   UNL     1       7.904   4.500  18.173  0.00  0.00    +0.000 NA
ATOM     31  N   UNL     1       7.845   4.701  16.648  0.00  0.00    +0.000 N 
ATOM     32  H   UNL     1       8.845   4.900  16.581  0.00  0.00    +0.000 HD
ENDBRANCH  26  28
ENDBRANCH  25  26
ENDBRANCH  21  25
ENDBRANCH   1  21
TORSDOF 6
ENDMDL
MODEL 5
REMARK VINA RESULT:      -8.0      4.467      7.692
REMARK  Name = 
REMARK  7 active torsions:
REMARK  status: ('A' for Active; 'I' for Inactive)
REMARK    1  A    between atoms: C_1  and  N_2
REMARK    2  A    between atoms: N_2  and  C_3
REMARK    3  A    between atoms: C_3  and  C_4
REMARK    4  A    between atoms: C_4  and  C_5
REMARK    5  A    between atoms: C_5  and  C_6
REMARK    6  A    between atoms: C_10  and  N_11
REMARK    7  A    between atoms: C_16  and  C_17
REMARK                            x       y       z     vdW  Elec       q    Type
REMARK                         _______ _______ _______ _____ _____    ______ ____
ROOT
ATOM      1  C   UNL     1       2.156   5.448  19.209  0.00  0.00    +0.000 A 
ATOM      2  C   UNL     1       2.108   6.260  18.059  0.00  0.00    +0.000 A 
ATOM      3  C   UNL     1       2.141   7.647  18.139  0.00  0.00    +0.000 A 
ATOM      4  C   UNL     1       2.126   8.264  19.379  0.00  0.00    +0.000 A 
ATOM      5  C   UNL     1       1.840   7.495  20.513  0.00  0.00    +0.000 A 
ATOM      6  C   UNL     1       2.021   6.110  20.447  0.00  0.00    +0.000 A 
ENDROOT
BRANCH   5   7
ATOM      7  N   UNL     1       0.887   8.005  21.498  0.00  0.00    +0.000 N 
ATOM      8  C   UNL     1      -0.435   8.219  20.848  0.00  0.00    +0.000 C 
ATOM      9  C   UNL     1      -0.296   9.622  20.343  0.00  0.00    +0.000 A 
ATOM     10  C   UNL     1      -0.642  10.149  19.110  0.00  0.00    +0.000 A 
ATOM     11  C   UNL     1      -0.049  11.359  18.726  0.00  0.00    +0.000 A 
ATOM     12  C   UNL     1       0.857  12.043  19.575  0.00  0.00    +0.000 A 
ATOM     13  C   UNL     1       1.159  11.511  20.842  0.00  0.00    +0.000 A 
ATOM     14  C   UNL     1       0.592  10.295  21.181  0.00  0.00    +0.000 A 
ATOM     15  C   UNL     1       1.225   9.272  22.056  0.00  0.00    +0.000 C 
ATOM     16  O   UNL     1       2.051   9.524  22.913  0.00  0.00    +0.000 OA
BRANCH  12  17
ATOM     17  C   UNL     1       1.600  13.267  19.092  0.00  0.00    +0.000 C 
ATOM     18  F   UNL     1       1.860  13.254  17.755  0.00  0.00    +0.000 F 
ATOM     19  F   UNL     1       0.923  14.421  19.335  0.00  0.00    +0.000 F 
ATOM     20  F   UNL     1       2.813  13.406  19.700  0.00  0.00    +0.000 F 
ENDBRANCH  12  17
ENDBRANCH   5   7
BRANCH   1  21
ATOM     21  C   UNL     1       2.367   3.861  19.095  0.00  0.00    +0.000 C 
ATOM     22  C   UNL     1       2.157   3.002  20.376  0.00  0.00    +0.000 C 
ATOM     23  O   UNL     1       0.824   2.627  19.947  0.00  0.00    +0.000 OA
ATOM     24  C   UNL     1       1.147   3.030  18.593  0.00  0.00    +0.000 C 
BRANCH  21  25
ATOM     25  C   UNL     1       3.652   3.588  18.286  0.00  0.00    +0.000 C 
BRANCH  25  26
ATOM     26  C   UNL     1       4.920   3.876  19.105  0.00  0.00    +0.000 C 
BRANCH  26  28
ATOM     27  C   UNL     1       5.466   5.177  17.038  0.00  0.00    +0.000 C 
ATOM     28  N   UNL     1       5.788   4.806  18.406  0.00  0.00    +0.000 N 
ATOM     29  C   UNL     1       6.827   5.338  19.036  0.00  0.00    +0.000 C 
ATOM     30  N   UNL     1       7.540   5.462  20.029  0.00  0.00    +0.000 NA
ATOM     31  N   UNL     1       7.760   6.197  18.695  0.00  0.00    +0.000 N 
ATOM     32  H   UNL     1       8.585   6.691  19.041  0.00  0.00    +0.000 HD
ENDBRANCH  26  28
ENDBRANCH  25  26
ENDBRANCH  21  25
ENDBRANCH   1  21
TORSDOF 6
ENDMDL
MODEL 6
REMARK VINA RESULT:      -7.8      5.478      8.811
REMARK  Name = 
REMARK  7 active torsions:
REMARK  status: ('A' for Active; 'I' for Inactive)
REMARK    1  A    between atoms: C_1  and  N_2
REMARK    2  A    between atoms: N_2  and  C_3
REMARK    3  A    between atoms: C_3  and  C_4
REMARK    4  A    between atoms: C_4  and  C_5
REMARK    5  A    between atoms: C_5  and  C_6
REMARK    6  A    between atoms: C_10  and  N_11
REMARK    7  A    between atoms: C_16  and  C_17
REMARK                            x       y       z     vdW  Elec       q    Type
REMARK                         _______ _______ _______ _____ _____    ______ ____
ROOT
ATOM      1  C   UNL     1       2.146   7.102  19.348  0.00  0.00    +0.000 A 
ATOM      2  C   UNL     1       2.283   7.638  18.053  0.00  0.00    +0.000 A 
ATOM      3  C   UNL     1       2.050   8.982  17.788  0.00  0.00    +0.000 A 
ATOM      4  C   UNL     1       1.579   9.810  18.794  0.00  0.00    +0.000 A 
ATOM      5  C   UNL     1       1.124   9.232  19.985  0.00  0.00    +0.000 A 
ATOM      6  C   UNL     1       1.555   7.943  20.313  0.00  0.00    +0.000 A 
ENDROOT
BRANCH   5   7
ATOM      7  N   UNL     1      -0.141   9.689  20.559  0.00  0.00    +0.000 N 
ATOM      8  C   UNL     1      -0.967  10.329  19.499  0.00  0.00    +0.000 C 
ATOM      9  C   UNL     1      -0.493  11.748  19.567  0.00  0.00    +0.000 A 
ATOM     10  C   UNL     1      -0.161  12.612  18.537  0.00  0.00    +0.000 A 
ATOM     11  C   UNL     1       0.636  13.722  18.847  0.00  0.00    +0.000 A 
ATOM     12  C   UNL     1       1.074  13.975  20.171  0.00  0.00    +0.000 A 
ATOM     13  C   UNL     1       0.688  13.107  21.209  0.00  0.00    +0.000 A 
ATOM     14  C   UNL     1      -0.066  11.997  20.871  0.00  0.00    +0.000 A 
ATOM     15  C   UNL     1      -0.014  10.685  21.570  0.00  0.00    +0.000 C 
ATOM     16  O   UNL     1       0.315  10.544  22.733  0.00  0.00    +0.000 OA
BRANCH  12  17
ATOM     17  C   UNL     1       2.051  15.090  20.466  0.00  0.00    +0.000 C 
ATOM     18  F   UNL     1       2.575  15.665  19.348  0.00  0.00    +0.000 F 
ATOM     19  F   UNL     1       1.494  16.099  21.186  0.00  0.00    +0.000 F 
ATOM     20  F   UNL     1       3.122  14.655  21.191  0.00  0.00    +0.000 F 
ENDBRANCH  12  17
ENDBRANCH   5   7
BRANCH   1  21
ATOM     21  C   UNL     1       2.653   5.618  19.689  0.00  0.00    +0.000 C 
ATOM     22  C   UNL     1       2.058   4.912  20.942  0.00  0.00    +0.000 C 
ATOM     23  O   UNL     1       1.130   4.161  20.121  0.00  0.00    +0.000 OA
ATOM     24  C   UNL     1       1.933   4.448  18.950  0.00  0.00    +0.000 C 
BRANCH  21  25
ATOM     25  C   UNL     1       4.188   5.570  19.536  0.00  0.00    +0.000 C 
BRANCH  25  26
ATOM     26  C   UNL     1       4.618   4.778  18.292  0.00  0.00    +0.000 C 
BRANCH  26  28
ATOM     27  C   UNL     1       6.873   5.547  19.058  0.00  0.00    +0.000 C 
ATOM     28  N   UNL     1       6.034   4.956  18.029  0.00  0.00    +0.000 N 
ATOM     29  C   UNL     1       6.549   4.535  16.880  0.00  0.00    +0.000 C 
ATOM     30  N   UNL     1       6.435   4.016  15.772  0.00  0.00    +0.000 NA
ATOM     31  N   UNL     1       7.757   4.534  16.367  0.00  0.00    +0.000 N 
ATOM     32  H   UNL     1       8.297   4.260  15.545  0.00  0.00    +0.000 HD
ENDBRANCH  26  28
ENDBRANCH  25  26
ENDBRANCH  21  25
ENDBRANCH   1  21
TORSDOF 6
ENDMDL
MODEL 7
REMARK VINA RESULT:      -7.8      9.216     11.894
REMARK  Name = 
REMARK  7 active torsions:
REMARK  status: ('A' for Active; 'I' for Inactive)
REMARK    1  A    between atoms: C_1  and  N_2
REMARK    2  A    between atoms: N_2  and  C_3
REMARK    3  A    between atoms: C_3  and  C_4
REMARK    4  A    between atoms: C_4  and  C_5
REMARK    5  A    between atoms: C_5  and  C_6
REMARK    6  A    between atoms: C_10  and  N_11
REMARK    7  A    between atoms: C_16  and  C_17
REMARK                            x       y       z     vdW  Elec       q    Type
REMARK                         _______ _______ _______ _____ _____    ______ ____
ROOT
ATOM      1  C   UNL     1      -3.944  11.370  18.088  0.00  0.00    +0.000 A 
ATOM      2  C   UNL     1      -3.961  10.843  16.782  0.00  0.00    +0.000 A 
ATOM      3  C   UNL     1      -2.924  10.056  16.296  0.00  0.00    +0.000 A 
ATOM      4  C   UNL     1      -1.792   9.855  17.070  0.00  0.00    +0.000 A 
ATOM      5  C   UNL     1      -1.614  10.633  18.219  0.00  0.00    +0.000 A 
ATOM      6  C   UNL     1      -2.732  11.243  18.797  0.00  0.00    +0.000 A 
ENDROOT
BRANCH   5   7
ATOM      7  N   UNL     1      -0.307  11.240  18.472  0.00  0.00    +0.000 N 
ATOM      8  C   UNL     1       0.428  10.434  19.486  0.00  0.00    +0.000 C 
ATOM      9  C   UNL     1      -0.043  11.059  20.763  0.00  0.00    +0.000 A 
ATOM     10  C   UNL     1      -0.460  10.451  21.935  0.00  0.00    +0.000 A 
ATOM     11  C   UNL     1      -1.232  11.209  22.825  0.00  0.00    +0.000 A 
ATOM     12  C   UNL     1      -1.561  12.561  22.557  0.00  0.00    +0.000 A 
ATOM     13  C   UNL     1      -1.090  13.171  21.380  0.00  0.00    +0.000 A 
ATOM     14  C   UNL     1      -0.363  12.390  20.498  0.00  0.00    +0.000 A 
ATOM     15  C   UNL     1      -0.354  12.554  19.020  0.00  0.00    +0.000 C 
ATOM     16  O   UNL     1      -0.587  13.603  18.448  0.00  0.00    +0.000 OA
BRANCH  12  17
ATOM     17  C   UNL     1      -2.514  13.320  23.451  0.00  0.00    +0.000 C 
ATOM     18  F   UNL     1      -1.891  14.051  24.416  0.00  0.00    +0.000 F 
ATOM     19  F   UNL     1      -3.298  14.191  22.762  0.00  0.00    +0.000 F 
ATOM     20  F   UNL     1      -3.368  12.489  24.114  0.00  0.00    +0.000 F 
ENDBRANCH  12  17
ENDBRANCH   5   7
BRANCH   1  21
ATOM     21  C   UNL     1      -5.247  12.061  18.720  0.00  0.00    +0.000 C 
ATOM     22  C   UNL     1      -6.094  12.996  17.807  0.00  0.00    +0.000 C 
ATOM     23  O   UNL     1      -7.054  11.939  17.558  0.00  0.00    +0.000 OA
ATOM     24  C   UNL     1      -6.558  11.216  18.711  0.00  0.00    +0.000 C 
BRANCH  21  25
ATOM     25  C   UNL     1      -4.892  12.604  20.119  0.00  0.00    +0.000 C 
BRANCH  25  26
ATOM     26  C   UNL     1      -6.004  12.330  21.143  0.00  0.00    +0.000 C 
BRANCH  26  28
ATOM     27  C   UNL     1      -6.308  14.808  21.309  0.00  0.00    +0.000 C 
ATOM     28  N   UNL     1      -6.264  13.506  21.953  0.00  0.00    +0.000 N 
ATOM     29  C   UNL     1      -6.504  13.372  23.251  0.00  0.00    +0.000 C 
ATOM     30  N   UNL     1      -6.626  12.682  24.260  0.00  0.00    +0.000 NA
ATOM     31  N   UNL     1      -6.783  14.212  24.219  0.00  0.00    +0.000 N 
ATOM     32  H   UNL     1      -6.990  14.272  25.218  0.00  0.00    +0.000 HD
ENDBRANCH  26  28
ENDBRANCH  25  26
ENDBRANCH  21  25
ENDBRANCH   1  21
TORSDOF 6
ENDMDL
MODEL 8
REMARK VINA RESULT:      -7.7      5.446      8.746
REMARK  Name = 
REMARK  7 active torsions:
REMARK  status: ('A' for Active; 'I' for Inactive)
REMARK    1  A    between atoms: C_1  and  N_2
REMARK    2  A    between atoms: N_2  and  C_3
REMARK    3  A    between atoms: C_3  and  C_4
REMARK    4  A    between atoms: C_4  and  C_5
REMARK    5  A    between atoms: C_5  and  C_6
REMARK    6  A    between atoms: C_10  and  N_11
REMARK    7  A    between atoms: C_16  and  C_17
REMARK                            x       y       z     vdW  Elec       q    Type
REMARK                         _______ _______ _______ _____ _____    ______ ____
ROOT
ATOM      1  C   UNL     1       2.140   7.068  19.293  0.00  0.00    +0.000 A 
ATOM      2  C   UNL     1       2.288   7.616  18.003  0.00  0.00    +0.000 A 
ATOM      3  C   UNL     1       2.077   8.967  17.752  0.00  0.00    +0.000 A 
ATOM      4  C   UNL     1       1.617   9.791  18.766  0.00  0.00    +0.000 A 
ATOM      5  C   UNL     1       1.150   9.208  19.950  0.00  0.00    +0.000 A 
ATOM      6  C   UNL     1       1.560   7.908  20.265  0.00  0.00    +0.000 A 
ENDROOT
BRANCH   5   7
ATOM      7  N   UNL     1      -0.109   9.678  20.527  0.00  0.00    +0.000 N 
ATOM      8  C   UNL     1      -0.913  10.362  19.477  0.00  0.00    +0.000 C 
ATOM      9  C   UNL     1      -0.408  11.768  19.583  0.00  0.00    +0.000 A 
ATOM     10  C   UNL     1      -0.050  12.650  18.577  0.00  0.00    +0.000 A 
ATOM     11  C   UNL     1       0.770  13.733  18.918  0.00  0.00    +0.000 A 
ATOM     12  C   UNL     1       1.203  13.945  20.252  0.00  0.00    +0.000 A 
ATOM     13  C   UNL     1       0.790  13.061  21.265  0.00  0.00    +0.000 A 
ATOM     14  C   UNL     1       0.014  11.976  20.895  0.00  0.00    +0.000 A 
ATOM     15  C   UNL     1       0.032  10.646  21.562  0.00  0.00    +0.000 C 
ATOM     16  O   UNL     1       0.350  10.470  22.723  0.00  0.00    +0.000 OA
BRANCH  12  17
ATOM     17  C   UNL     1       2.202  15.030  20.580  0.00  0.00    +0.000 C 
ATOM     18  F   UNL     1       3.168  15.186  19.633  0.00  0.00    +0.000 F 
ATOM     19  F   UNL     1       1.620  16.249  20.733  0.00  0.00    +0.000 F 
ATOM     20  F   UNL     1       2.867  14.780  21.744  0.00  0.00    +0.000 F 
ENDBRANCH  12  17
ENDBRANCH   5   7
BRANCH   1  21
ATOM     21  C   UNL     1       2.623   5.573  19.619  0.00  0.00    +0.000 C 
ATOM     22  C   UNL     1       1.850   4.777  20.711  0.00  0.00    +0.000 C 
ATOM     23  O   UNL     1       1.087   4.068  19.703  0.00  0.00    +0.000 OA
ATOM     24  C   UNL     1       2.063   4.444  18.700  0.00  0.00    +0.000 C 
BRANCH  21  25
ATOM     25  C   UNL     1       4.162   5.559  19.716  0.00  0.00    +0.000 C 
BRANCH  25  26
ATOM     26  C   UNL     1       4.819   5.107  18.403  0.00  0.00    +0.000 C 
BRANCH  26  28
ATOM     27  C   UNL     1       6.116   6.705  16.979  0.00  0.00    +0.000 C 
ATOM     28  N   UNL     1       6.040   5.850  18.152  0.00  0.00    +0.000 N 
ATOM     29  C   UNL     1       7.045   5.778  19.016  0.00  0.00    +0.000 C 
ATOM     30  N   UNL     1       7.552   5.343  20.047  0.00  0.00    +0.000 NA
ATOM     31  N   UNL     1       8.235   6.326  19.080  0.00  0.00    +0.000 N 
ATOM     32  H   UNL     1       9.083   6.379  19.647  0.00  0.00    +0.000 HD
ENDBRANCH  26  28
ENDBRANCH  25  26
ENDBRANCH  21  25
ENDBRANCH   1  21
TORSDOF 6
ENDMDL
MODEL 9
REMARK VINA RESULT:      -7.7      2.501      4.097
REMARK  Name = 
REMARK  7 active torsions:
REMARK  status: ('A' for Active; 'I' for Inactive)
REMARK    1  A    between atoms: C_1  and  N_2
REMARK    2  A    between atoms: N_2  and  C_3
REMARK    3  A    between atoms: C_3  and  C_4
REMARK    4  A    between atoms: C_4  and  C_5
REMARK    5  A    between atoms: C_5  and  C_6
REMARK    6  A    between atoms: C_10  and  N_11
REMARK    7  A    between atoms: C_16  and  C_17
REMARK                            x       y       z     vdW  Elec       q    Type
REMARK                         _______ _______ _______ _____ _____    ______ ____
ROOT
ATOM      1  C   UNL     1       1.743   8.230  19.516  0.00  0.00    +0.000 A 
ATOM      2  C   UNL     1       2.400   8.679  18.354  0.00  0.00    +0.000 A 
ATOM      3  C   UNL     1       2.875   7.794  17.392  0.00  0.00    +0.000 A 
ATOM      4  C   UNL     1       2.793   6.429  17.614  0.00  0.00    +0.000 A 
ATOM      5  C   UNL     1       2.452   5.972  18.892  0.00  0.00    +0.000 A 
ATOM      6  C   UNL     1       1.784   6.841  19.760  0.00  0.00    +0.000 A 
ENDROOT
BRANCH   5   7
ATOM      7  N   UNL     1       3.228   4.885  19.489  0.00  0.00    +0.000 N 
ATOM      8  C   UNL     1       4.589   5.377  19.837  0.00  0.00    +0.000 C 
ATOM      9  C   UNL     1       5.332   5.127  18.561  0.00  0.00    +0.000 A 
ATOM     10  C   UNL     1       6.215   5.952  17.884  0.00  0.00    +0.000 A 
ATOM     11  C   UNL     1       6.456   5.681  16.531  0.00  0.00    +0.000 A 
ATOM     12  C   UNL     1       5.843   4.585  15.873  0.00  0.00    +0.000 A 
ATOM     13  C   UNL     1       4.984   3.734  16.593  0.00  0.00    +0.000 A 
ATOM     14  C   UNL     1       4.730   4.047  17.917  0.00  0.00    +0.000 A 
ATOM     15  C   UNL     1       3.454   3.771  18.630  0.00  0.00    +0.000 C 
ATOM     16  O   UNL     1       2.682   2.881  18.327  0.00  0.00    +0.000 OA
BRANCH  12  17
ATOM     17  C   UNL     1       5.996   4.390  14.382  0.00  0.00    +0.000 C 
ATOM     18  F   UNL     1       6.798   5.318  13.791  0.00  0.00    +0.000 F 
ATOM     19  F   UNL     1       6.520   3.177  14.064  0.00  0.00    +0.000 F 
ATOM     20  F   UNL     1       4.801   4.468  13.729  0.00  0.00    +0.000 F 
ENDBRANCH  12  17
ENDBRANCH   5   7
BRANCH   1  21
ATOM     21  C   UNL     1       0.985   9.257  20.489  0.00  0.00    +0.000 C 
ATOM     22  C   UNL     1      -0.288   8.756  21.231  0.00  0.00    +0.000 C 
ATOM     23  O   UNL     1       0.470   8.520  22.444  0.00  0.00    +0.000 OA
ATOM     24  C   UNL     1       1.532   9.370  21.945  0.00  0.00    +0.000 C 
BRANCH  21  25
ATOM     25  C   UNL     1       0.877  10.623  19.781  0.00  0.00    +0.000 C 
BRANCH  25  26
ATOM     26  C   UNL     1      -0.530  11.227  19.908  0.00  0.00    +0.000 C 
BRANCH  26  28
ATOM     27  C   UNL     1      -0.434  13.253  18.442  0.00  0.00    +0.000 C 
ATOM     28  N   UNL     1      -0.916  11.903  18.684  0.00  0.00    +0.000 N 
ATOM     29  C   UNL     1      -1.657  11.267  17.785  0.00  0.00    +0.000 C 
ATOM     30  N   UNL     1      -2.279  10.278  17.405  0.00  0.00    +0.000 NA
ATOM     31  N   UNL     1      -2.141  11.588  16.609  0.00  0.00    +0.000 N 
ATOM     32  H   UNL     1      -2.695  11.235  15.826  0.00  0.00    +0.000 HD
ENDBRANCH  26  28
ENDBRANCH  25  26
ENDBRANCH  21  25
ENDBRANCH   1  21
TORSDOF 6
ENDMDL
