MODEL 1
REMARK VINA RESULT:      -8.6      0.000      0.000
REMARK  Name = 
REMARK  5 active torsions:
REMARK  status: ('A' for Active; 'I' for Inactive)
REMARK    1  A    between atoms: C_2  and  C_3
REMARK    2  A    between atoms: C_3  and  N_4
REMARK    3  A    between atoms: N_16  and  C_17
REMARK    4  A    between atoms: C_17  and  C_18
REMARK    5  A    between atoms: C_22  and  C_23
REMARK                            x       y       z     vdW  Elec       q    Type
REMARK                         _______ _______ _______ _____ _____    ______ ____
ROOT
ATOM      1  O   UNL     1       1.248   3.561  19.907  0.00  0.00    +0.000 OA
ATOM      2  C   UNL     1       2.424   3.873  20.080  0.00  0.00    +0.000 C 
ATOM      3  N   UNL     1       2.816   5.119  20.525  0.00  0.00    +0.000 N 
ATOM      4  H   UNL     1       3.793   5.378  20.468  0.00  0.00    +0.000 HD
ENDROOT
BRANCH   2   5
ATOM      5  C   UNL     1       3.574   2.898  19.810  0.00  0.00    +0.000 C 
BRANCH   5   6
ATOM      6  N   UNL     1       4.460   3.455  18.802  0.00  0.00    +0.000 N 
ATOM      7  N   UNL     1       5.672   3.970  19.259  0.00  0.00    +0.000 N 
ATOM      8  C   UNL     1       6.620   4.502  18.423  0.00  0.00    +0.000 A 
ATOM      9  O   UNL     1       7.668   4.971  18.855  0.00  0.00    +0.000 OA
ATOM     10  C   UNL     1       6.319   4.490  16.978  0.00  0.00    +0.000 A 
ATOM     11  C   UNL     1       7.278   4.949  16.065  0.00  0.00    +0.000 A 
ATOM     12  C   UNL     1       7.007   4.921  14.696  0.00  0.00    +0.000 A 
ATOM     13  C   UNL     1       5.780   4.444  14.238  0.00  0.00    +0.000 A 
ATOM     14  C   UNL     1       4.821   3.993  15.146  0.00  0.00    +0.000 A 
ATOM     15  C   UNL     1       5.093   4.011  16.521  0.00  0.00    +0.000 A 
ATOM     16  C   UNL     1       4.086   3.497  17.472  0.00  0.00    +0.000 A 
ATOM     17  O   UNL     1       2.989   3.112  17.077  0.00  0.00    +0.000 OA
ATOM     18  H   UNL     1       5.904   3.916  20.247  0.00  0.00    +0.000 HD
ENDBRANCH   5   6
ENDBRANCH   2   5
BRANCH   3  19
ATOM     19  C   UNL     1       1.865   6.168  20.816  0.00  0.00    +0.000 C 
BRANCH  19  20
ATOM     20  C   UNL     1       1.911   7.270  19.786  0.00  0.00    +0.000 A 
ATOM     21  C   UNL     1       2.609   7.098  18.584  0.00  0.00    +0.000 A 
ATOM     22  C   UNL     1       2.687   8.135  17.653  0.00  0.00    +0.000 A 
ATOM     23  C   UNL     1       2.073   9.360  17.917  0.00  0.00    +0.000 A 
ATOM     24  C   UNL     1       1.371   9.561  19.115  0.00  0.00    +0.000 A 
ATOM     25  C   UNL     1       1.289   8.505  20.038  0.00  0.00    +0.000 A 
BRANCH  24  26
ATOM     26  C   UNL     1       0.733  10.892  19.430  0.00  0.00    +0.000 C 
ATOM     27  F   UNL     1      -0.626  10.836  19.515  0.00  0.00    +0.000 F 
ATOM     28  F   UNL     1       1.159  11.415  20.612  0.00  0.00    +0.000 F 
ATOM     29  F   UNL     1       1.004  11.833  18.483  0.00  0.00    +0.000 F 
ENDBRANCH  24  26
ENDBRANCH  19  20
ENDBRANCH   3  19
TORSDOF 5
ENDMDL
MODEL 2
REMARK VINA RESULT:      -8.6      5.320      6.843
REMARK  Name = 
REMARK  5 active torsions:
REMARK  status: ('A' for Active; 'I' for Inactive)
REMARK    1  A    between atoms: C_2  and  C_3
REMARK    2  A    between atoms: C_3  and  N_4
REMARK    3  A    between atoms: N_16  and  C_17
REMARK    4  A    between atoms: C_17  and  C_18
REMARK    5  A    between atoms: C_22  and  C_23
REMARK                            x       y       z     vdW  Elec       q    Type
REMARK                         _______ _______ _______ _____ _____    ______ ____
ROOT
ATOM      1  O   UNL     1       6.893   6.103  18.530  0.00  0.00    +0.000 OA
ATOM      2  C   UNL     1       6.577   6.925  17.672  0.00  0.00    +0.000 C 
ATOM      3  N   UNL     1       7.303   8.071  17.423  0.00  0.00    +0.000 N 
ATOM      4  H   UNL     1       6.897   8.796  16.845  0.00  0.00    +0.000 HD
ENDROOT
BRANCH   2   5
ATOM      5  C   UNL     1       5.333   6.751  16.797  0.00  0.00    +0.000 C 
BRANCH   5   6
ATOM      6  N   UNL     1       4.310   6.034  17.539  0.00  0.00    +0.000 N 
ATOM      7  N   UNL     1       3.646   6.753  18.532  0.00  0.00    +0.000 N 
ATOM      8  C   UNL     1       2.640   6.217  19.295  0.00  0.00    +0.000 A 
ATOM      9  O   UNL     1       2.090   6.865  20.179  0.00  0.00    +0.000 OA
ATOM     10  C   UNL     1       2.252   4.823  19.007  0.00  0.00    +0.000 A 
ATOM     11  C   UNL     1       1.180   4.244  19.698  0.00  0.00    +0.000 A 
ATOM     12  C   UNL     1       0.795   2.932  19.415  0.00  0.00    +0.000 A 
ATOM     13  C   UNL     1       1.482   2.196  18.451  0.00  0.00    +0.000 A 
ATOM     14  C   UNL     1       2.554   2.770  17.765  0.00  0.00    +0.000 A 
ATOM     15  C   UNL     1       2.938   4.090  18.041  0.00  0.00    +0.000 A 
ATOM     16  C   UNL     1       4.050   4.700  17.284  0.00  0.00    +0.000 A 
ATOM     17  O   UNL     1       4.684   4.044  16.461  0.00  0.00    +0.000 OA
ATOM     18  H   UNL     1       3.871   7.732  18.683  0.00  0.00    +0.000 HD
ENDBRANCH   5   6
ENDBRANCH   2   5
BRANCH   3  19
ATOM     19  C   UNL     1       8.499   8.404  18.164  0.00  0.00    +0.000 C 
BRANCH  19  20
ATOM     20  C   UNL     1       8.660   9.895  18.332  0.00  0.00    +0.000 A 
ATOM     21  C   UNL     1       8.046  10.786  17.442  0.00  0.00    +0.000 A 
ATOM     22  C   UNL     1       8.233  12.163  17.573  0.00  0.00    +0.000 A 
ATOM     23  C   UNL     1       9.043  12.665  18.594  0.00  0.00    +0.000 A 
ATOM     24  C   UNL     1       9.673  11.795  19.496  0.00  0.00    +0.000 A 
ATOM     25  C   UNL     1       9.465  10.411  19.361  0.00  0.00    +0.000 A 
BRANCH  24  26
ATOM     26  C   UNL     1      10.579  12.321  20.582  0.00  0.00    +0.000 C 
ATOM     27  F   UNL     1      10.065  12.178  21.836  0.00  0.00    +0.000 F 
ATOM     28  F   UNL     1      11.791  11.701  20.604  0.00  0.00    +0.000 F 
ATOM     29  F   UNL     1      10.840  13.650  20.440  0.00  0.00    +0.000 F 
ENDBRANCH  24  26
ENDBRANCH  19  20
ENDBRANCH   3  19
TORSDOF 5
ENDMDL
MODEL 3
REMARK VINA RESULT:      -8.4      5.261      8.714
REMARK  Name = 
REMARK  5 active torsions:
REMARK  status: ('A' for Active; 'I' for Inactive)
REMARK    1  A    between atoms: C_2  and  C_3
REMARK    2  A    between atoms: C_3  and  N_4
REMARK    3  A    between atoms: N_16  and  C_17
REMARK    4  A    between atoms: C_17  and  C_18
REMARK    5  A    between atoms: C_22  and  C_23
REMARK                            x       y       z     vdW  Elec       q    Type
REMARK                         _______ _______ _______ _____ _____    ______ ____
ROOT
ATOM      1  O   UNL     1      -0.119   9.458  22.130  0.00  0.00    +0.000 OA
ATOM      2  C   UNL     1       0.559   9.652  21.124  0.00  0.00    +0.000 C 
ATOM      3  N   UNL     1       1.405   8.702  20.590  0.00  0.00    +0.000 N 
ATOM      4  H   UNL     1       2.073   8.979  19.882  0.00  0.00    +0.000 HD
ENDROOT
BRANCH   2   5
ATOM      5  C   UNL     1       0.530  10.983  20.366  0.00  0.00    +0.000 C 
BRANCH   5   6
ATOM      6  N   UNL     1      -0.696  11.077  19.592  0.00  0.00    +0.000 N 
ATOM      7  N   UNL     1      -1.737  11.806  20.166  0.00  0.00    +0.000 N 
ATOM      8  C   UNL     1      -2.942  12.004  19.542  0.00  0.00    +0.000 A 
ATOM      9  O   UNL     1      -3.849  12.630  20.081  0.00  0.00    +0.000 OA
ATOM     10  C   UNL     1      -3.100  11.426  18.194  0.00  0.00    +0.000 A 
ATOM     11  C   UNL     1      -4.279  11.658  17.472  0.00  0.00    +0.000 A 
ATOM     12  C   UNL     1      -4.425  11.131  16.188  0.00  0.00    +0.000 A 
ATOM     13  C   UNL     1      -3.403  10.367  15.627  0.00  0.00    +0.000 A 
ATOM     14  C   UNL     1      -2.231  10.130  16.346  0.00  0.00    +0.000 A 
ATOM     15  C   UNL     1      -2.076  10.665  17.633  0.00  0.00    +0.000 A 
ATOM     16  C   UNL     1      -0.817  10.439  18.371  0.00  0.00    +0.000 A 
ATOM     17  O   UNL     1       0.071   9.735  17.898  0.00  0.00    +0.000 OA
ATOM     18  H   UNL     1      -1.600  12.258  21.065  0.00  0.00    +0.000 HD
ENDBRANCH   5   6
ENDBRANCH   2   5
BRANCH   3  19
ATOM     19  C   UNL     1       1.570   7.394  21.184  0.00  0.00    +0.000 C 
BRANCH  19  20
ATOM     20  C   UNL     1       1.908   6.347  20.152  0.00  0.00    +0.000 A 
ATOM     21  C   UNL     1       2.565   6.697  18.965  0.00  0.00    +0.000 A 
ATOM     22  C   UNL     1       2.837   5.733  17.993  0.00  0.00    +0.000 A 
ATOM     23  C   UNL     1       2.449   4.408  18.194  0.00  0.00    +0.000 A 
ATOM     24  C   UNL     1       1.787   4.030  19.372  0.00  0.00    +0.000 A 
ATOM     25  C   UNL     1       1.530   5.008  20.348  0.00  0.00    +0.000 A 
BRANCH  24  26
ATOM     26  C   UNL     1       1.330   2.608  19.587  0.00  0.00    +0.000 C 
ATOM     27  F   UNL     1       0.231   2.274  18.853  0.00  0.00    +0.000 F 
ATOM     28  F   UNL     1       2.284   1.693  19.266  0.00  0.00    +0.000 F 
ATOM     29  F   UNL     1       0.995   2.363  20.884  0.00  0.00    +0.000 F 
ENDBRANCH  24  26
ENDBRANCH  19  20
ENDBRANCH   3  19
TORSDOF 5
ENDMDL
MODEL 4
REMARK VINA RESULT:      -8.3      5.436      9.248
REMARK  Name = 
REMARK  5 active torsions:
REMARK  status: ('A' for Active; 'I' for Inactive)
REMARK    1  A    between atoms: C_2  and  C_3
REMARK    2  A    between atoms: C_3  and  N_4
REMARK    3  A    between atoms: N_16  and  C_17
REMARK    4  A    between atoms: C_17  and  C_18
REMARK    5  A    between atoms: C_22  and  C_23
REMARK                            x       y       z     vdW  Elec       q    Type
REMARK                         _______ _______ _______ _____ _____    ______ ____
ROOT
ATOM      1  O   UNL     1       1.893   9.945  17.410  0.00  0.00    +0.000 OA
ATOM      2  C   UNL     1       1.527   9.596  18.531  0.00  0.00    +0.000 C 
ATOM      3  N   UNL     1       1.826   8.362  19.070  0.00  0.00    +0.000 N 
ATOM      4  H   UNL     1       1.344   8.060  19.908  0.00  0.00    +0.000 HD
ENDROOT
BRANCH   2   5
ATOM      5  C   UNL     1       0.694  10.507  19.437  0.00  0.00    +0.000 C 
BRANCH   5   6
ATOM      6  N   UNL     1      -0.620  10.709  18.850  0.00  0.00    +0.000 N 
ATOM      7  N   UNL     1      -0.856  10.082  17.628  0.00  0.00    +0.000 N 
ATOM      8  C   UNL     1      -2.056  10.160  16.968  0.00  0.00    +0.000 A 
ATOM      9  O   UNL     1      -2.228   9.618  15.881  0.00  0.00    +0.000 OA
ATOM     10  C   UNL     1      -3.130  10.930  17.624  0.00  0.00    +0.000 A 
ATOM     11  C   UNL     1      -4.403  10.984  17.039  0.00  0.00    +0.000 A 
ATOM     12  C   UNL     1      -5.428  11.694  17.665  0.00  0.00    +0.000 A 
ATOM     13  C   UNL     1      -5.186  12.356  18.867  0.00  0.00    +0.000 A 
ATOM     14  C   UNL     1      -3.917  12.309  19.448  0.00  0.00    +0.000 A 
ATOM     15  C   UNL     1      -2.886  11.589  18.827  0.00  0.00    +0.000 A 
ATOM     16  C   UNL     1      -1.558  11.515  19.468  0.00  0.00    +0.000 A 
ATOM     17  O   UNL     1      -1.328  12.128  20.507  0.00  0.00    +0.000 OA
ATOM     18  H   UNL     1      -0.136   9.499  17.212  0.00  0.00    +0.000 HD
ENDBRANCH   5   6
ENDBRANCH   2   5
BRANCH   3  19
ATOM     19  C   UNL     1       2.592   7.369  18.349  0.00  0.00    +0.000 C 
BRANCH  19  20
ATOM     20  C   UNL     1       2.448   5.996  18.959  0.00  0.00    +0.000 A 
ATOM     21  C   UNL     1       1.961   5.839  20.263  0.00  0.00    +0.000 A 
ATOM     22  C   UNL     1       1.872   4.572  20.840  0.00  0.00    +0.000 A 
ATOM     23  C   UNL     1       2.274   3.445  20.120  0.00  0.00    +0.000 A 
ATOM     24  C   UNL     1       2.768   3.574  18.814  0.00  0.00    +0.000 A 
ATOM     25  C   UNL     1       2.841   4.855  18.240  0.00  0.00    +0.000 A 
BRANCH  24  26
ATOM     26  C   UNL     1       3.240   2.370  18.037  0.00  0.00    +0.000 C 
ATOM     27  F   UNL     1       2.262   1.793  17.283  0.00  0.00    +0.000 F 
ATOM     28  F   UNL     1       4.252   2.661  17.174  0.00  0.00    +0.000 F 
ATOM     29  F   UNL     1       3.711   1.382  18.848  0.00  0.00    +0.000 F 
ENDBRANCH  24  26
ENDBRANCH  19  20
ENDBRANCH   3  19
TORSDOF 5
ENDMDL
MODEL 5
REMARK VINA RESULT:      -8.3      5.010      8.921
REMARK  Name = 
REMARK  5 active torsions:
REMARK  status: ('A' for Active; 'I' for Inactive)
REMARK    1  A    between atoms: C_2  and  C_3
REMARK    2  A    between atoms: C_3  and  N_4
REMARK    3  A    between atoms: N_16  and  C_17
REMARK    4  A    between atoms: C_17  and  C_18
REMARK    5  A    between atoms: C_22  and  C_23
REMARK                            x       y       z     vdW  Elec       q    Type
REMARK                         _______ _______ _______ _____ _____    ______ ____
ROOT
ATOM      1  O   UNL     1       1.993  10.377  17.535  0.00  0.00    +0.000 OA
ATOM      2  C   UNL     1       1.616   9.670  18.467  0.00  0.00    +0.000 C 
ATOM      3  N   UNL     1       2.027   8.364  18.636  0.00  0.00    +0.000 N 
ATOM      4  H   UNL     1       1.543   7.778  19.305  0.00  0.00    +0.000 HD
ENDROOT
BRANCH   2   5
ATOM      5  C   UNL     1       0.642  10.179  19.533  0.00  0.00    +0.000 C 
BRANCH   5   6
ATOM      6  N   UNL     1      -0.628  10.517  18.914  0.00  0.00    +0.000 N 
ATOM      7  N   UNL     1      -0.853   9.998  17.639  0.00  0.00    +0.000 N 
ATOM      8  C   UNL     1      -2.015  10.209  16.942  0.00  0.00    +0.000 A 
ATOM      9  O   UNL     1      -2.176   9.761  15.812  0.00  0.00    +0.000 OA
ATOM     10  C   UNL     1      -3.061  11.004  17.612  0.00  0.00    +0.000 A 
ATOM     11  C   UNL     1      -4.301  11.190  16.985  0.00  0.00    +0.000 A 
ATOM     12  C   UNL     1      -5.302  11.924  17.622  0.00  0.00    +0.000 A 
ATOM     13  C   UNL     1      -5.067  12.478  18.880  0.00  0.00    +0.000 A 
ATOM     14  C   UNL     1      -3.831  12.299  19.504  0.00  0.00    +0.000 A 
ATOM     15  C   UNL     1      -2.826  11.555  18.870  0.00  0.00    +0.000 A 
ATOM     16  C   UNL     1      -1.535  11.341  19.554  0.00  0.00    +0.000 A 
ATOM     17  O   UNL     1      -1.309  11.859  20.645  0.00  0.00    +0.000 OA
ATOM     18  H   UNL     1      -0.156   9.397  17.209  0.00  0.00    +0.000 HD
ENDBRANCH   5   6
ENDBRANCH   2   5
BRANCH   3  19
ATOM     19  C   UNL     1       2.934   7.715  17.716  0.00  0.00    +0.000 C 
BRANCH  19  20
ATOM     20  C   UNL     1       3.164   6.269  18.080  0.00  0.00    +0.000 A 
ATOM     21  C   UNL     1       4.041   5.472  17.332  0.00  0.00    +0.000 A 
ATOM     22  C   UNL     1       4.217   4.124  17.643  0.00  0.00    +0.000 A 
ATOM     23  C   UNL     1       3.513   3.553  18.705  0.00  0.00    +0.000 A 
ATOM     24  C   UNL     1       2.626   4.326  19.469  0.00  0.00    +0.000 A 
ATOM     25  C   UNL     1       2.467   5.686  19.152  0.00  0.00    +0.000 A 
BRANCH  24  26
ATOM     26  C   UNL     1       1.831   3.714  20.596  0.00  0.00    +0.000 C 
ATOM     27  F   UNL     1       0.505   4.028  20.559  0.00  0.00    +0.000 F 
ATOM     28  F   UNL     1       1.891   2.354  20.607  0.00  0.00    +0.000 F 
ATOM     29  F   UNL     1       2.271   4.119  21.819  0.00  0.00    +0.000 F 
ENDBRANCH  24  26
ENDBRANCH  19  20
ENDBRANCH   3  19
TORSDOF 5
ENDMDL
MODEL 6
REMARK VINA RESULT:      -8.3      5.142      6.605
REMARK  Name = 
REMARK  5 active torsions:
REMARK  status: ('A' for Active; 'I' for Inactive)
REMARK    1  A    between atoms: C_2  and  C_3
REMARK    2  A    between atoms: C_3  and  N_4
REMARK    3  A    between atoms: N_16  and  C_17
REMARK    4  A    between atoms: C_17  and  C_18
REMARK    5  A    between atoms: C_22  and  C_23
REMARK                            x       y       z     vdW  Elec       q    Type
REMARK                         _______ _______ _______ _____ _____    ______ ____
ROOT
ATOM      1  O   UNL     1       7.967   6.786  18.729  0.00  0.00    +0.000 OA
ATOM      2  C   UNL     1       7.706   7.476  17.746  0.00  0.00    +0.000 C 
ATOM      3  N   UNL     1       8.068   8.802  17.638  0.00  0.00    +0.000 N 
ATOM      4  H   UNL     1       7.665   9.365  16.898  0.00  0.00    +0.000 HD
ENDROOT
BRANCH   2   5
ATOM      5  C   UNL     1       6.940   6.920  16.541  0.00  0.00    +0.000 C 
BRANCH   5   6
ATOM      6  N   UNL     1       5.691   6.327  16.988  0.00  0.00    +0.000 N 
ATOM      7  N   UNL     1       4.717   7.211  17.451  0.00  0.00    +0.000 N 
ATOM      8  C   UNL     1       3.480   6.801  17.878  0.00  0.00    +0.000 A 
ATOM      9  O   UNL     1       2.650   7.597  18.304  0.00  0.00    +0.000 OA
ATOM     10  C   UNL     1       3.194   5.355  17.806  0.00  0.00    +0.000 A 
ATOM     11  C   UNL     1       1.922   4.881  18.155  0.00  0.00    +0.000 A 
ATOM     12  C   UNL     1       1.639   3.517  18.070  0.00  0.00    +0.000 A 
ATOM     13  C   UNL     1       2.623   2.625  17.645  0.00  0.00    +0.000 A 
ATOM     14  C   UNL     1       3.892   3.095  17.303  0.00  0.00    +0.000 A 
ATOM     15  C   UNL     1       4.177   4.465  17.379  0.00  0.00    +0.000 A 
ATOM     16  C   UNL     1       5.512   4.957  16.980  0.00  0.00    +0.000 A 
ATOM     17  O   UNL     1       6.394   4.172  16.642  0.00  0.00    +0.000 OA
ATOM     18  H   UNL     1       4.894   8.211  17.436  0.00  0.00    +0.000 HD
ENDBRANCH   5   6
ENDBRANCH   2   5
BRANCH   3  19
ATOM     19  C   UNL     1       8.783   9.495  18.686  0.00  0.00    +0.000 C 
BRANCH  19  20
ATOM     20  C   UNL     1       9.216  10.875  18.255  0.00  0.00    +0.000 A 
ATOM     21  C   UNL     1      10.542  11.124  17.876  0.00  0.00    +0.000 A 
ATOM     22  C   UNL     1      10.949  12.410  17.521  0.00  0.00    +0.000 A 
ATOM     23  C   UNL     1      10.036  13.466  17.546  0.00  0.00    +0.000 A 
ATOM     24  C   UNL     1       8.703  13.246  17.925  0.00  0.00    +0.000 A 
ATOM     25  C   UNL     1       8.303  11.943  18.268  0.00  0.00    +0.000 A 
BRANCH  24  26
ATOM     26  C   UNL     1       7.714  14.383  17.992  0.00  0.00    +0.000 C 
ATOM     27  F   UNL     1       8.156  15.523  17.391  0.00  0.00    +0.000 F 
ATOM     28  F   UNL     1       6.527  14.085  17.397  0.00  0.00    +0.000 F 
ATOM     29  F   UNL     1       7.414  14.734  19.273  0.00  0.00    +0.000 F 
ENDBRANCH  24  26
ENDBRANCH  19  20
ENDBRANCH   3  19
TORSDOF 5
ENDMDL
MODEL 7
REMARK VINA RESULT:      -8.3      5.028      8.922
REMARK  Name = 
REMARK  5 active torsions:
REMARK  status: ('A' for Active; 'I' for Inactive)
REMARK    1  A    between atoms: C_2  and  C_3
REMARK    2  A    between atoms: C_3  and  N_4
REMARK    3  A    between atoms: N_16  and  C_17
REMARK    4  A    between atoms: C_17  and  C_18
REMARK    5  A    between atoms: C_22  and  C_23
REMARK                            x       y       z     vdW  Elec       q    Type
REMARK                         _______ _______ _______ _____ _____    ______ ____
ROOT
ATOM      1  O   UNL     1       2.016   9.641  17.473  0.00  0.00    +0.000 OA
ATOM      2  C   UNL     1       1.659   9.205  18.565  0.00  0.00    +0.000 C 
ATOM      3  N   UNL     1       1.935   7.923  18.992  0.00  0.00    +0.000 N 
ATOM      4  H   UNL     1       1.458   7.562  19.809  0.00  0.00    +0.000 HD
ENDROOT
BRANCH   2   5
ATOM      5  C   UNL     1       0.861  10.054  19.559  0.00  0.00    +0.000 C 
BRANCH   5   6
ATOM      6  N   UNL     1      -0.425  10.405  18.980  0.00  0.00    +0.000 N 
ATOM      7  N   UNL     1      -0.698   9.883  17.716  0.00  0.00    +0.000 N 
ATOM      8  C   UNL     1      -1.880  10.105  17.057  0.00  0.00    +0.000 A 
ATOM      9  O   UNL     1      -2.084   9.655  15.934  0.00  0.00    +0.000 OA
ATOM     10  C   UNL     1      -2.895  10.915  17.758  0.00  0.00    +0.000 A 
ATOM     11  C   UNL     1      -4.152  11.114  17.171  0.00  0.00    +0.000 A 
ATOM     12  C   UNL     1      -5.123  11.862  17.838  0.00  0.00    +0.000 A 
ATOM     13  C   UNL     1      -4.840  12.419  19.085  0.00  0.00    +0.000 A 
ATOM     14  C   UNL     1      -3.586  12.227  19.668  0.00  0.00    +0.000 A 
ATOM     15  C   UNL     1      -2.611  11.469  19.005  0.00  0.00    +0.000 A 
ATOM     16  C   UNL     1      -1.301  11.241  19.647  0.00  0.00    +0.000 A 
ATOM     17  O   UNL     1      -1.032  11.761  20.727  0.00  0.00    +0.000 OA
ATOM     18  H   UNL     1      -0.024   9.272  17.265  0.00  0.00    +0.000 HD
ENDBRANCH   5   6
ENDBRANCH   2   5
BRANCH   3  19
ATOM     19  C   UNL     1       2.666   6.979  18.177  0.00  0.00    +0.000 C 
BRANCH  19  20
ATOM     20  C   UNL     1       2.304   5.552  18.508  0.00  0.00    +0.000 A 
ATOM     21  C   UNL     1       1.803   4.692  17.521  0.00  0.00    +0.000 A 
ATOM     22  C   UNL     1       1.426   3.387  17.840  0.00  0.00    +0.000 A 
ATOM     23  C   UNL     1       1.542   2.927  19.153  0.00  0.00    +0.000 A 
ATOM     24  C   UNL     1       2.036   3.767  20.162  0.00  0.00    +0.000 A 
ATOM     25  C   UNL     1       2.423   5.075  19.824  0.00  0.00    +0.000 A 
BRANCH  24  26
ATOM     26  C   UNL     1       2.132   3.295  21.591  0.00  0.00    +0.000 C 
ATOM     27  F   UNL     1       2.443   4.288  22.472  0.00  0.00    +0.000 F 
ATOM     28  F   UNL     1       0.973   2.746  22.045  0.00  0.00    +0.000 F 
ATOM     29  F   UNL     1       3.090   2.341  21.759  0.00  0.00    +0.000 F 
ENDBRANCH  24  26
ENDBRANCH  19  20
ENDBRANCH   3  19
TORSDOF 5
ENDMDL
MODEL 8
REMARK VINA RESULT:      -8.2      0.856      1.018
REMARK  Name = 
REMARK  5 active torsions:
REMARK  status: ('A' for Active; 'I' for Inactive)
REMARK    1  A    between atoms: C_2  and  C_3
REMARK    2  A    between atoms: C_3  and  N_4
REMARK    3  A    between atoms: N_16  and  C_17
REMARK    4  A    between atoms: C_17  and  C_18
REMARK    5  A    between atoms: C_22  and  C_23
REMARK                            x       y       z     vdW  Elec       q    Type
REMARK                         _______ _______ _______ _____ _____    ______ ____
ROOT
ATOM      1  O   UNL     1       2.239   4.055  21.736  0.00  0.00    +0.000 OA
ATOM      2  C   UNL     1       2.364   4.270  20.532  0.00  0.00    +0.000 C 
ATOM      3  N   UNL     1       2.157   5.509  19.962  0.00  0.00    +0.000 N 
ATOM      4  H   UNL     1       2.089   5.583  18.955  0.00  0.00    +0.000 HD
ENDROOT
BRANCH   2   5
ATOM      5  C   UNL     1       2.759   3.168  19.545  0.00  0.00    +0.000 C 
BRANCH   5   6
ATOM      6  N   UNL     1       3.834   3.640  18.690  0.00  0.00    +0.000 N 
ATOM      7  N   UNL     1       4.985   4.092  19.335  0.00  0.00    +0.000 N 
ATOM      8  C   UNL     1       6.091   4.542  18.660  0.00  0.00    +0.000 A 
ATOM      9  O   UNL     1       7.081   4.957  19.253  0.00  0.00    +0.000 OA
ATOM     10  C   UNL     1       6.034   4.507  17.185  0.00  0.00    +0.000 A 
ATOM     11  C   UNL     1       7.159   4.880  16.438  0.00  0.00    +0.000 A 
ATOM     12  C   UNL     1       7.118   4.830  15.044  0.00  0.00    +0.000 A 
ATOM     13  C   UNL     1       5.956   4.416  14.394  0.00  0.00    +0.000 A 
ATOM     14  C   UNL     1       4.832   4.050  15.137  0.00  0.00    +0.000 A 
ATOM     15  C   UNL     1       4.872   4.091  16.538  0.00  0.00    +0.000 A 
ATOM     16  C   UNL     1       3.690   3.667  17.315  0.00  0.00    +0.000 A 
ATOM     17  O   UNL     1       2.651   3.339  16.749  0.00  0.00    +0.000 OA
ATOM     18  H   UNL     1       5.045   4.053  20.348  0.00  0.00    +0.000 HD
ENDBRANCH   5   6
ENDBRANCH   2   5
BRANCH   3  19
ATOM     19  C   UNL     1       1.765   6.661  20.742  0.00  0.00    +0.000 C 
BRANCH  19  20
ATOM     20  C   UNL     1       1.639   7.900  19.890  0.00  0.00    +0.000 A 
ATOM     21  C   UNL     1       2.212   7.953  18.613  0.00  0.00    +0.000 A 
ATOM     22  C   UNL     1       2.132   9.115  17.846  0.00  0.00    +0.000 A 
ATOM     23  C   UNL     1       1.482  10.243  18.350  0.00  0.00    +0.000 A 
ATOM     24  C   UNL     1       0.903  10.220  19.627  0.00  0.00    +0.000 A 
ATOM     25  C   UNL     1       0.980   9.038  20.385  0.00  0.00    +0.000 A 
BRANCH  24  26
ATOM     26  C   UNL     1       0.229  11.442  20.199  0.00  0.00    +0.000 C 
ATOM     27  F   UNL     1      -0.013  11.353  21.538  0.00  0.00    +0.000 F 
ATOM     28  F   UNL     1       0.961  12.577  20.029  0.00  0.00    +0.000 F 
ATOM     29  F   UNL     1      -0.980  11.686  19.622  0.00  0.00    +0.000 F 
ENDBRANCH  24  26
ENDBRANCH  19  20
ENDBRANCH   3  19
TORSDOF 5
ENDMDL
MODEL 9
REMARK VINA RESULT:      -8.2      4.692      8.861
REMARK  Name = 
REMARK  5 active torsions:
REMARK  status: ('A' for Active; 'I' for Inactive)
REMARK    1  A    between atoms: C_2  and  C_3
REMARK    2  A    between atoms: C_3  and  N_4
REMARK    3  A    between atoms: N_16  and  C_17
REMARK    4  A    between atoms: C_17  and  C_18
REMARK    5  A    between atoms: C_22  and  C_23
REMARK                            x       y       z     vdW  Elec       q    Type
REMARK                         _______ _______ _______ _____ _____    ______ ____
ROOT
ATOM      1  O   UNL     1       2.344  10.392  18.203  0.00  0.00    +0.000 OA
ATOM      2  C   UNL     1       1.495   9.525  18.011  0.00  0.00    +0.000 C 
ATOM      3  N   UNL     1       1.808   8.198  17.798  0.00  0.00    +0.000 N 
ATOM      4  H   UNL     1       1.089   7.570  17.461  0.00  0.00    +0.000 HD
ENDROOT
BRANCH   2   5
ATOM      5  C   UNL     1      -0.003   9.842  17.987  0.00  0.00    +0.000 C 
BRANCH   5   6
ATOM      6  N   UNL     1      -0.396  10.439  19.253  0.00  0.00    +0.000 N 
ATOM      7  N   UNL     1       0.283   9.993  20.385  0.00  0.00    +0.000 N 
ATOM      8  C   UNL     1       0.041  10.483  21.643  0.00  0.00    +0.000 A 
ATOM      9  O   UNL     1       0.636  10.055  22.626  0.00  0.00    +0.000 OA
ATOM     10  C   UNL     1      -0.974  11.548  21.760  0.00  0.00    +0.000 A 
ATOM     11  C   UNL     1      -1.214  12.145  23.006  0.00  0.00    +0.000 A 
ATOM     12  C   UNL     1      -2.158  13.166  23.119  0.00  0.00    +0.000 A 
ATOM     13  C   UNL     1      -2.868  13.588  21.996  0.00  0.00    +0.000 A 
ATOM     14  C   UNL     1      -2.635  12.991  20.756  0.00  0.00    +0.000 A 
ATOM     15  C   UNL     1      -1.681  11.970  20.636  0.00  0.00    +0.000 A 
ATOM     16  C   UNL     1      -1.416  11.369  19.313  0.00  0.00    +0.000 A 
ATOM     17  O   UNL     1      -2.066  11.710  18.328  0.00  0.00    +0.000 OA
ATOM     18  H   UNL     1       1.027   9.307  20.291  0.00  0.00    +0.000 HD
ENDBRANCH   5   6
ENDBRANCH   2   5
BRANCH   3  19
ATOM     19  C   UNL     1       3.173   7.721  17.772  0.00  0.00    +0.000 C 
BRANCH  19  20
ATOM     20  C   UNL     1       3.245   6.217  17.870  0.00  0.00    +0.000 A 
ATOM     21  C   UNL     1       4.224   5.500  17.170  0.00  0.00    +0.000 A 
ATOM     22  C   UNL     1       4.261   4.107  17.227  0.00  0.00    +0.000 A 
ATOM     23  C   UNL     1       3.312   3.412  17.980  0.00  0.00    +0.000 A 
ATOM     24  C   UNL     1       2.318   4.104  18.687  0.00  0.00    +0.000 A 
ATOM     25  C   UNL     1       2.300   5.509  18.631  0.00  0.00    +0.000 A 
BRANCH  24  26
ATOM     26  C   UNL     1       1.265   3.365  19.475  0.00  0.00    +0.000 C 
ATOM     27  F   UNL     1       0.449   4.186  20.195  0.00  0.00    +0.000 F 
ATOM     28  F   UNL     1       0.441   2.621  18.687  0.00  0.00    +0.000 F 
ATOM     29  F   UNL     1       1.805   2.499  20.377  0.00  0.00    +0.000 F 
ENDBRANCH  24  26
ENDBRANCH  19  20
ENDBRANCH   3  19
TORSDOF 5
ENDMDL
