MODEL 1
REMARK VINA RESULT:      -9.0      0.000      0.000
REMARK  Name = 
REMARK  6 active torsions:
REMARK  status: ('A' for Active; 'I' for Inactive)
REMARK    1  A    between atoms: C_2  and  C_15
REMARK    2  A    between atoms: N_3  and  C_4
REMARK    3  A    between atoms: C_4  and  C_5
REMARK    4  A    between atoms: C_5  and  C_6
REMARK    5  A    between atoms: C_19  and  C_20
REMARK    6  A    between atoms: C_20  and  N_21
REMARK                            x       y       z     vdW  Elec       q    Type
REMARK                         _______ _______ _______ _____ _____    ______ ____
ROOT
ATOM      1  O   UNL     1       2.283   7.579  19.627  0.00  0.00    +0.000 OA
ATOM      2  C   UNL     1       2.641   7.631  18.456  0.00  0.00    +0.000 C 
ATOM      3  N   UNL     1       2.458   8.730  17.643  0.00  0.00    +0.000 N 
ATOM      4  H   UNL     1       2.534   8.602  16.643  0.00  0.00    +0.000 HD
ENDROOT
BRANCH   2   5
ATOM      5  C   UNL     1       3.264   6.447  17.803  0.00  0.00    +0.000 A 
ATOM      6  C   UNL     1       4.414   6.632  17.030  0.00  0.00    +0.000 A 
ATOM      7  C   UNL     1       5.041   5.533  16.440  0.00  0.00    +0.000 A 
ATOM      8  C   UNL     1       4.535   4.247  16.640  0.00  0.00    +0.000 A 
ATOM      9  C   UNL     1       3.391   4.045  17.426  0.00  0.00    +0.000 A 
ATOM     10  C   UNL     1       2.736   5.160  17.972  0.00  0.00    +0.000 A 
BRANCH   9  11
ATOM     11  C   UNL     1       2.896   2.659  17.747  0.00  0.00    +0.000 C 
BRANCH  11  12
ATOM     12  N   UNL     1       2.541   2.452  19.136  0.00  0.00    +0.000 N 
ATOM     13  C   UNL     1       3.408   2.859  20.216  0.00  0.00    +0.000 C 
ATOM     14  C   UNL     1       2.594   2.545  21.456  0.00  0.00    +0.000 C 
ATOM     15  C   UNL     1       1.160   2.784  21.006  0.00  0.00    +0.000 C 
ATOM     16  C   UNL     1       1.207   2.459  19.534  0.00  0.00    +0.000 C 
ATOM     17  O   UNL     1       0.230   2.316  18.816  0.00  0.00    +0.000 OA
ENDBRANCH  11  12
ENDBRANCH   9  11
ENDBRANCH   2   5
BRANCH   3  18
ATOM     18  C   UNL     1       1.766   9.911  18.128  0.00  0.00    +0.000 C 
BRANCH  18  19
ATOM     19  C   UNL     1       0.249   9.752  18.038  0.00  0.00    +0.000 C 
BRANCH  19  20
ATOM     20  C   UNL     1      -0.476  10.643  18.992  0.00  0.00    +0.000 A 
ATOM     21  C   UNL     1      -1.176  11.789  18.671  0.00  0.00    +0.000 A 
ATOM     22  N   UNL     1      -1.672  12.330  19.826  0.00  0.00    +0.000 N 
ATOM     23  C   UNL     1      -1.311  11.559  20.905  0.00  0.00    +0.000 A 
ATOM     24  C   UNL     1      -1.578  11.731  22.267  0.00  0.00    +0.000 A 
ATOM     25  C   UNL     1      -1.073  10.774  23.156  0.00  0.00    +0.000 A 
ATOM     26  C   UNL     1      -0.335   9.685  22.693  0.00  0.00    +0.000 A 
ATOM     27  C   UNL     1      -0.075   9.532  21.326  0.00  0.00    +0.000 A 
ATOM     28  C   UNL     1      -0.565  10.484  20.412  0.00  0.00    +0.000 A 
ATOM     29  H   UNL     1      -2.219  13.178  19.884  0.00  0.00    +0.000 HD
ENDBRANCH  19  20
ENDBRANCH  18  19
ENDBRANCH   3  18
TORSDOF 6
ENDMDL
MODEL 2
REMARK VINA RESULT:      -8.7      1.456      2.650
REMARK  Name = 
REMARK  6 active torsions:
REMARK  status: ('A' for Active; 'I' for Inactive)
REMARK    1  A    between atoms: C_2  and  C_15
REMARK    2  A    between atoms: N_3  and  C_4
REMARK    3  A    between atoms: C_4  and  C_5
REMARK    4  A    between atoms: C_5  and  C_6
REMARK    5  A    between atoms: C_19  and  C_20
REMARK    6  A    between atoms: C_20  and  N_21
REMARK                            x       y       z     vdW  Elec       q    Type
REMARK                         _______ _______ _______ _____ _____    ______ ____
ROOT
ATOM      1  O   UNL     1       2.131   7.755  19.752  0.00  0.00    +0.000 OA
ATOM      2  C   UNL     1       2.454   7.821  18.572  0.00  0.00    +0.000 C 
ATOM      3  N   UNL     1       2.185   8.903  17.759  0.00  0.00    +0.000 N 
ATOM      4  H   UNL     1       2.242   8.774  16.758  0.00  0.00    +0.000 HD
ENDROOT
BRANCH   2   5
ATOM      5  C   UNL     1       3.129   6.672  17.908  0.00  0.00    +0.000 A 
ATOM      6  C   UNL     1       4.287   6.911  17.162  0.00  0.00    +0.000 A 
ATOM      7  C   UNL     1       4.962   5.847  16.563  0.00  0.00    +0.000 A 
ATOM      8  C   UNL     1       4.494   4.540  16.726  0.00  0.00    +0.000 A 
ATOM      9  C   UNL     1       3.342   4.285  17.484  0.00  0.00    +0.000 A 
ATOM     10  C   UNL     1       2.640   5.365  18.039  0.00  0.00    +0.000 A 
BRANCH   9  11
ATOM     11  C   UNL     1       2.887   2.876  17.765  0.00  0.00    +0.000 C 
BRANCH  11  12
ATOM     12  N   UNL     1       2.544   2.619  19.149  0.00  0.00    +0.000 N 
ATOM     13  C   UNL     1       3.405   3.017  20.237  0.00  0.00    +0.000 C 
ATOM     14  C   UNL     1       2.604   2.645  21.470  0.00  0.00    +0.000 C 
ATOM     15  C   UNL     1       1.163   2.860  21.033  0.00  0.00    +0.000 C 
ATOM     16  C   UNL     1       1.211   2.579  19.552  0.00  0.00    +0.000 C 
ATOM     17  O   UNL     1       0.236   2.433  18.832  0.00  0.00    +0.000 OA
ENDBRANCH  11  12
ENDBRANCH   9  11
ENDBRANCH   2   5
BRANCH   3  18
ATOM     18  C   UNL     1       1.437  10.043  18.258  0.00  0.00    +0.000 C 
BRANCH  18  19
ATOM     19  C   UNL     1       0.258   9.607  19.127  0.00  0.00    +0.000 C 
BRANCH  19  20
ATOM     20  C   UNL     1      -0.930  10.498  18.965  0.00  0.00    +0.000 A 
ATOM     21  C   UNL     1      -1.327  11.498  19.830  0.00  0.00    +0.000 A 
ATOM     22  N   UNL     1      -2.472  12.064  19.339  0.00  0.00    +0.000 N 
ATOM     23  C   UNL     1      -2.836  11.454  18.163  0.00  0.00    +0.000 A 
ATOM     24  C   UNL     1      -3.933  11.689  17.325  0.00  0.00    +0.000 A 
ATOM     25  C   UNL     1      -4.055  10.900  16.175  0.00  0.00    +0.000 A 
ATOM     26  C   UNL     1      -3.112   9.918  15.876  0.00  0.00    +0.000 A 
ATOM     27  C   UNL     1      -2.023   9.695  16.728  0.00  0.00    +0.000 A 
ATOM     28  C   UNL     1      -1.881  10.470  17.896  0.00  0.00    +0.000 A 
ATOM     29  H   UNL     1      -2.984  12.817  19.778  0.00  0.00    +0.000 HD
ENDBRANCH  19  20
ENDBRANCH  18  19
ENDBRANCH   3  18
TORSDOF 6
ENDMDL
MODEL 3
REMARK VINA RESULT:      -8.6      5.739      7.714
REMARK  Name = 
REMARK  6 active torsions:
REMARK  status: ('A' for Active; 'I' for Inactive)
REMARK    1  A    between atoms: C_2  and  C_15
REMARK    2  A    between atoms: N_3  and  C_4
REMARK    3  A    between atoms: C_4  and  C_5
REMARK    4  A    between atoms: C_5  and  C_6
REMARK    5  A    between atoms: C_19  and  C_20
REMARK    6  A    between atoms: C_20  and  N_21
REMARK                            x       y       z     vdW  Elec       q    Type
REMARK                         _______ _______ _______ _____ _____    ______ ____
ROOT
ATOM      1  O   UNL     1       8.135   6.100  19.213  0.00  0.00    +0.000 OA
ATOM      2  C   UNL     1       7.578   6.592  18.239  0.00  0.00    +0.000 C 
ATOM      3  N   UNL     1       7.871   7.842  17.733  0.00  0.00    +0.000 N 
ATOM      4  H   UNL     1       7.201   8.275  17.113  0.00  0.00    +0.000 HD
ENDROOT
BRANCH   2   5
ATOM      5  C   UNL     1       6.470   5.868  17.557  0.00  0.00    +0.000 A 
ATOM      6  C   UNL     1       6.769   5.069  16.449  0.00  0.00    +0.000 A 
ATOM      7  C   UNL     1       5.756   4.348  15.817  0.00  0.00    +0.000 A 
ATOM      8  C   UNL     1       4.447   4.405  16.302  0.00  0.00    +0.000 A 
ATOM      9  C   UNL     1       4.136   5.191  17.421  0.00  0.00    +0.000 A 
ATOM     10  C   UNL     1       5.150   5.954  18.019  0.00  0.00    +0.000 A 
BRANCH   9  11
ATOM     11  C   UNL     1       2.756   5.177  18.027  0.00  0.00    +0.000 C 
BRANCH  11  12
ATOM     12  N   UNL     1       2.601   4.276  19.151  0.00  0.00    +0.000 N 
ATOM     13  C   UNL     1       2.700   4.732  20.517  0.00  0.00    +0.000 C 
ATOM     14  C   UNL     1       2.372   3.491  21.324  0.00  0.00    +0.000 C 
ATOM     15  C   UNL     1       1.368   2.756  20.449  0.00  0.00    +0.000 C 
ATOM     16  C   UNL     1       1.775   3.159  19.053  0.00  0.00    +0.000 C 
ATOM     17  O   UNL     1       1.370   2.639  18.026  0.00  0.00    +0.000 OA
ENDBRANCH  11  12
ENDBRANCH   9  11
ENDBRANCH   2   5
BRANCH   3  18
ATOM     18  C   UNL     1       8.857   8.693  18.374  0.00  0.00    +0.000 C 
BRANCH  18  19
ATOM     19  C   UNL     1       8.356  10.131  18.513  0.00  0.00    +0.000 C 
BRANCH  19  20
ATOM     20  C   UNL     1       9.267  10.975  19.341  0.00  0.00    +0.000 A 
ATOM     21  C   UNL     1       9.282  11.055  20.719  0.00  0.00    +0.000 A 
ATOM     22  N   UNL     1      10.244  11.954  21.090  0.00  0.00    +0.000 N 
ATOM     23  C   UNL     1      10.866  12.469  19.978  0.00  0.00    +0.000 A 
ATOM     24  C   UNL     1      11.887  13.419  19.873  0.00  0.00    +0.000 A 
ATOM     25  C   UNL     1      12.330  13.761  18.590  0.00  0.00    +0.000 A 
ATOM     26  C   UNL     1      11.773  13.168  17.458  0.00  0.00    +0.000 A 
ATOM     27  C   UNL     1      10.748  12.222  17.582  0.00  0.00    +0.000 A 
ATOM     28  C   UNL     1      10.280  11.865  18.862  0.00  0.00    +0.000 A 
ATOM     29  H   UNL     1      10.464  12.212  22.042  0.00  0.00    +0.000 HD
ENDBRANCH  19  20
ENDBRANCH  18  19
ENDBRANCH   3  18
TORSDOF 6
ENDMDL
MODEL 4
REMARK VINA RESULT:      -8.6      1.429      2.126
REMARK  Name = 
REMARK  6 active torsions:
REMARK  status: ('A' for Active; 'I' for Inactive)
REMARK    1  A    between atoms: C_2  and  C_15
REMARK    2  A    between atoms: N_3  and  C_4
REMARK    3  A    between atoms: C_4  and  C_5
REMARK    4  A    between atoms: C_5  and  C_6
REMARK    5  A    between atoms: C_19  and  C_20
REMARK    6  A    between atoms: C_20  and  N_21
REMARK                            x       y       z     vdW  Elec       q    Type
REMARK                         _______ _______ _______ _____ _____    ______ ____
ROOT
ATOM      1  O   UNL     1       2.207   7.356  19.563  0.00  0.00    +0.000 OA
ATOM      2  C   UNL     1       2.652   7.463  18.426  0.00  0.00    +0.000 C 
ATOM      3  N   UNL     1       2.508   8.591  17.645  0.00  0.00    +0.000 N 
ATOM      4  H   UNL     1       2.662   8.506  16.649  0.00  0.00    +0.000 HD
ENDROOT
BRANCH   2   5
ATOM      5  C   UNL     1       3.347   6.318  17.776  0.00  0.00    +0.000 A 
ATOM      6  C   UNL     1       4.429   6.580  16.930  0.00  0.00    +0.000 A 
ATOM      7  C   UNL     1       5.124   5.523  16.340  0.00  0.00    +0.000 A 
ATOM      8  C   UNL     1       4.755   4.203  16.612  0.00  0.00    +0.000 A 
ATOM      9  C   UNL     1       3.681   3.926  17.471  0.00  0.00    +0.000 A 
ATOM     10  C   UNL     1       2.955   4.995  18.018  0.00  0.00    +0.000 A 
BRANCH   9  11
ATOM     11  C   UNL     1       3.339   2.512  17.865  0.00  0.00    +0.000 C 
BRANCH  11  12
ATOM     12  N   UNL     1       2.753   2.380  19.183  0.00  0.00    +0.000 N 
ATOM     13  C   UNL     1       3.465   2.763  20.379  0.00  0.00    +0.000 C 
ATOM     14  C   UNL     1       2.442   2.550  21.478  0.00  0.00    +0.000 C 
ATOM     15  C   UNL     1       1.120   2.873  20.797  0.00  0.00    +0.000 C 
ATOM     16  C   UNL     1       1.376   2.493  19.360  0.00  0.00    +0.000 C 
ATOM     17  O   UNL     1       0.519   2.395  18.497  0.00  0.00    +0.000 OA
ENDBRANCH  11  12
ENDBRANCH   9  11
ENDBRANCH   2   5
BRANCH   3  18
ATOM     18  C   UNL     1       1.756   9.738  18.122  0.00  0.00    +0.000 C 
BRANCH  18  19
ATOM     19  C   UNL     1       0.260   9.585  17.848  0.00  0.00    +0.000 C 
BRANCH  19  20
ATOM     20  C   UNL     1      -0.557  10.616  18.555  0.00  0.00    +0.000 A 
ATOM     21  C   UNL     1      -0.094  11.546  19.464  0.00  0.00    +0.000 A 
ATOM     22  N   UNL     1      -1.156  12.290  19.900  0.00  0.00    +0.000 N 
ATOM     23  C   UNL     1      -2.313  11.868  19.291  0.00  0.00    +0.000 A 
ATOM     24  C   UNL     1      -3.629  12.322  19.438  0.00  0.00    +0.000 A 
ATOM     25  C   UNL     1      -4.623  11.693  18.681  0.00  0.00    +0.000 A 
ATOM     26  C   UNL     1      -4.309  10.653  17.807  0.00  0.00    +0.000 A 
ATOM     27  C   UNL     1      -2.987  10.210  17.675  0.00  0.00    +0.000 A 
ATOM     28  C   UNL     1      -1.968  10.822  18.431  0.00  0.00    +0.000 A 
ATOM     29  H   UNL     1      -1.104  13.039  20.577  0.00  0.00    +0.000 HD
ENDBRANCH  19  20
ENDBRANCH  18  19
ENDBRANCH   3  18
TORSDOF 6
ENDMDL
MODEL 5
REMARK VINA RESULT:      -8.5      1.230      2.074
REMARK  Name = 
REMARK  6 active torsions:
REMARK  status: ('A' for Active; 'I' for Inactive)
REMARK    1  A    between atoms: C_2  and  C_15
REMARK    2  A    between atoms: N_3  and  C_4
REMARK    3  A    between atoms: C_4  and  C_5
REMARK    4  A    between atoms: C_5  and  C_6
REMARK    5  A    between atoms: C_19  and  C_20
REMARK    6  A    between atoms: C_20  and  N_21
REMARK                            x       y       z     vdW  Elec       q    Type
REMARK                         _______ _______ _______ _____ _____    ______ ____
ROOT
ATOM      1  O   UNL     1       2.370   8.558  17.436  0.00  0.00    +0.000 OA
ATOM      2  C   UNL     1       2.572   7.597  18.168  0.00  0.00    +0.000 C 
ATOM      3  N   UNL     1       2.241   7.566  19.508  0.00  0.00    +0.000 N 
ATOM      4  H   UNL     1       2.673   6.861  20.090  0.00  0.00    +0.000 HD
ENDROOT
BRANCH   2   5
ATOM      5  C   UNL     1       3.264   6.385  17.651  0.00  0.00    +0.000 A 
ATOM      6  C   UNL     1       4.478   6.541  16.974  0.00  0.00    +0.000 A 
ATOM      7  C   UNL     1       5.168   5.418  16.514  0.00  0.00    +0.000 A 
ATOM      8  C   UNL     1       4.660   4.138  16.750  0.00  0.00    +0.000 A 
ATOM      9  C   UNL     1       3.452   3.967  17.441  0.00  0.00    +0.000 A 
ATOM     10  C   UNL     1       2.738   5.102  17.853  0.00  0.00    +0.000 A 
BRANCH   9  11
ATOM     11  C   UNL     1       2.946   2.595  17.804  0.00  0.00    +0.000 C 
BRANCH  11  12
ATOM     12  N   UNL     1       2.554   2.445  19.191  0.00  0.00    +0.000 N 
ATOM     13  C   UNL     1       3.413   2.850  20.277  0.00  0.00    +0.000 C 
ATOM     14  C   UNL     1       2.561   2.606  21.507  0.00  0.00    +0.000 C 
ATOM     15  C   UNL     1       1.148   2.889  21.019  0.00  0.00    +0.000 C 
ATOM     16  C   UNL     1       1.212   2.517  19.558  0.00  0.00    +0.000 C 
ATOM     17  O   UNL     1       0.246   2.392  18.823  0.00  0.00    +0.000 OA
ENDBRANCH  11  12
ENDBRANCH   9  11
ENDBRANCH   2   5
BRANCH   3  18
ATOM     18  C   UNL     1       1.659   8.725  20.160  0.00  0.00    +0.000 C 
BRANCH  18  19
ATOM     19  C   UNL     1       0.518   8.330  21.098  0.00  0.00    +0.000 C 
BRANCH  19  20
ATOM     20  C   UNL     1      -0.154   9.515  21.708  0.00  0.00    +0.000 A 
ATOM     21  C   UNL     1      -0.307   9.766  23.057  0.00  0.00    +0.000 A 
ATOM     22  N   UNL     1      -0.995  10.938  23.204  0.00  0.00    +0.000 N 
ATOM     23  C   UNL     1      -1.299  11.468  21.973  0.00  0.00    +0.000 A 
ATOM     24  C   UNL     1      -1.997  12.634  21.639  0.00  0.00    +0.000 A 
ATOM     25  C   UNL     1      -2.161  12.928  20.280  0.00  0.00    +0.000 A 
ATOM     26  C   UNL     1      -1.640  12.087  19.297  0.00  0.00    +0.000 A 
ATOM     27  C   UNL     1      -0.948  10.923  19.651  0.00  0.00    +0.000 A 
ATOM     28  C   UNL     1      -0.774  10.601  21.011  0.00  0.00    +0.000 A 
ATOM     29  H   UNL     1      -1.253  11.356  24.088  0.00  0.00    +0.000 HD
ENDBRANCH  19  20
ENDBRANCH  18  19
ENDBRANCH   3  18
TORSDOF 6
ENDMDL
MODEL 6
REMARK VINA RESULT:      -8.5      5.422      7.284
REMARK  Name = 
REMARK  6 active torsions:
REMARK  status: ('A' for Active; 'I' for Inactive)
REMARK    1  A    between atoms: C_2  and  C_15
REMARK    2  A    between atoms: N_3  and  C_4
REMARK    3  A    between atoms: C_4  and  C_5
REMARK    4  A    between atoms: C_5  and  C_6
REMARK    5  A    between atoms: C_19  and  C_20
REMARK    6  A    between atoms: C_20  and  N_21
REMARK                            x       y       z     vdW  Elec       q    Type
REMARK                         _______ _______ _______ _____ _____    ______ ____
ROOT
ATOM      1  O   UNL     1       8.185   6.423  19.065  0.00  0.00    +0.000 OA
ATOM      2  C   UNL     1       7.537   6.798  18.095  0.00  0.00    +0.000 C 
ATOM      3  N   UNL     1       7.636   8.059  17.545  0.00  0.00    +0.000 N 
ATOM      4  H   UNL     1       6.894   8.372  16.933  0.00  0.00    +0.000 HD
ENDROOT
BRANCH   2   5
ATOM      5  C   UNL     1       6.527   5.902  17.468  0.00  0.00    +0.000 A 
ATOM      6  C   UNL     1       6.956   4.954  16.534  0.00  0.00    +0.000 A 
ATOM      7  C   UNL     1       6.035   4.075  15.961  0.00  0.00    +0.000 A 
ATOM      8  C   UNL     1       4.691   4.125  16.338  0.00  0.00    +0.000 A 
ATOM      9  C   UNL     1       4.250   5.061  17.285  0.00  0.00    +0.000 A 
ATOM     10  C   UNL     1       5.172   5.975  17.816  0.00  0.00    +0.000 A 
BRANCH   9  11
ATOM     11  C   UNL     1       2.830   5.056  17.787  0.00  0.00    +0.000 C 
BRANCH  11  12
ATOM     12  N   UNL     1       2.635   4.350  19.038  0.00  0.00    +0.000 N 
ATOM     13  C   UNL     1       2.295   5.038  20.260  0.00  0.00    +0.000 C 
ATOM     14  C   UNL     1       2.094   3.909  21.252  0.00  0.00    +0.000 C 
ATOM     15  C   UNL     1       1.535   2.782  20.397  0.00  0.00    +0.000 C 
ATOM     16  C   UNL     1       2.151   3.044  19.045  0.00  0.00    +0.000 C 
ATOM     17  O   UNL     1       2.139   2.265  18.105  0.00  0.00    +0.000 OA
ENDBRANCH  11  12
ENDBRANCH   9  11
ENDBRANCH   2   5
BRANCH   3  18
ATOM     18  C   UNL     1       8.506   9.063  18.130  0.00  0.00    +0.000 C 
BRANCH  18  19
ATOM     19  C   UNL     1       7.963  10.476  17.913  0.00  0.00    +0.000 C 
BRANCH  19  20
ATOM     20  C   UNL     1       9.045  11.504  17.890  0.00  0.00    +0.000 A 
ATOM     21  C   UNL     1      10.404  11.264  17.891  0.00  0.00    +0.000 A 
ATOM     22  N   UNL     1      11.056  12.467  17.890  0.00  0.00    +0.000 N 
ATOM     23  C   UNL     1      10.148  13.499  17.886  0.00  0.00    +0.000 A 
ATOM     24  C   UNL     1      10.354  14.883  17.899  0.00  0.00    +0.000 A 
ATOM     25  C   UNL     1       9.224  15.709  17.894  0.00  0.00    +0.000 A 
ATOM     26  C   UNL     1       7.940  15.167  17.874  0.00  0.00    +0.000 A 
ATOM     27  C   UNL     1       7.754  13.780  17.866  0.00  0.00    +0.000 A 
ATOM     28  C   UNL     1       8.874  12.926  17.877  0.00  0.00    +0.000 A 
ATOM     29  H   UNL     1      12.060  12.586  17.898  0.00  0.00    +0.000 HD
ENDBRANCH  19  20
ENDBRANCH  18  19
ENDBRANCH   3  18
TORSDOF 6
ENDMDL
MODEL 7
REMARK VINA RESULT:      -8.4      5.545      7.319
REMARK  Name = 
REMARK  6 active torsions:
REMARK  status: ('A' for Active; 'I' for Inactive)
REMARK    1  A    between atoms: C_2  and  C_15
REMARK    2  A    between atoms: N_3  and  C_4
REMARK    3  A    between atoms: C_4  and  C_5
REMARK    4  A    between atoms: C_5  and  C_6
REMARK    5  A    between atoms: C_19  and  C_20
REMARK    6  A    between atoms: C_20  and  N_21
REMARK                            x       y       z     vdW  Elec       q    Type
REMARK                         _______ _______ _______ _____ _____    ______ ____
ROOT
ATOM      1  O   UNL     1       8.025   5.932  19.265  0.00  0.00    +0.000 OA
ATOM      2  C   UNL     1       7.569   6.409  18.232  0.00  0.00    +0.000 C 
ATOM      3  N   UNL     1       7.830   7.692  17.796  0.00  0.00    +0.000 N 
ATOM      4  H   UNL     1       7.218   8.091  17.096  0.00  0.00    +0.000 HD
ENDROOT
BRANCH   2   5
ATOM      5  C   UNL     1       6.626   5.624  17.389  0.00  0.00    +0.000 A 
ATOM      6  C   UNL     1       6.726   5.721  15.998  0.00  0.00    +0.000 A 
ATOM      7  C   UNL     1       5.880   4.965  15.185  0.00  0.00    +0.000 A 
ATOM      8  C   UNL     1       4.951   4.094  15.758  0.00  0.00    +0.000 A 
ATOM      9  C   UNL     1       4.850   3.976  17.152  0.00  0.00    +0.000 A 
ATOM     10  C   UNL     1       5.667   4.778  17.963  0.00  0.00    +0.000 A 
BRANCH   9  11
ATOM     11  C   UNL     1       3.935   2.962  17.787  0.00  0.00    +0.000 C 
BRANCH  11  12
ATOM     12  N   UNL     1       3.405   3.353  19.077  0.00  0.00    +0.000 N 
ATOM     13  C   UNL     1       2.083   3.914  19.224  0.00  0.00    +0.000 C 
ATOM     14  C   UNL     1       1.932   4.064  20.725  0.00  0.00    +0.000 C 
ATOM     15  C   UNL     1       2.731   2.894  21.280  0.00  0.00    +0.000 C 
ATOM     16  C   UNL     1       3.799   2.687  20.235  0.00  0.00    +0.000 C 
ATOM     17  O   UNL     1       4.787   1.982  20.372  0.00  0.00    +0.000 OA
ENDBRANCH  11  12
ENDBRANCH   9  11
ENDBRANCH   2   5
BRANCH   3  18
ATOM     18  C   UNL     1       8.648   8.596  18.583  0.00  0.00    +0.000 C 
BRANCH  18  19
ATOM     19  C   UNL     1       8.533  10.037  18.087  0.00  0.00    +0.000 C 
BRANCH  19  20
ATOM     20  C   UNL     1       9.277  10.999  18.952  0.00  0.00    +0.000 A 
ATOM     21  C   UNL     1      10.030  10.686  20.066  0.00  0.00    +0.000 A 
ATOM     22  N   UNL     1      10.528  11.846  20.592  0.00  0.00    +0.000 N 
ATOM     23  C   UNL     1      10.116  12.922  19.843  0.00  0.00    +0.000 A 
ATOM     24  C   UNL     1      10.366  14.289  20.011  0.00  0.00    +0.000 A 
ATOM     25  C   UNL     1       9.807  15.172  19.081  0.00  0.00    +0.000 A 
ATOM     26  C   UNL     1       9.032  14.702  18.022  0.00  0.00    +0.000 A 
ATOM     27  C   UNL     1       8.789  13.332  17.872  0.00  0.00    +0.000 A 
ATOM     28  C   UNL     1       9.335  12.421  18.798  0.00  0.00    +0.000 A 
ATOM     29  H   UNL     1      11.109  11.910  21.417  0.00  0.00    +0.000 HD
ENDBRANCH  19  20
ENDBRANCH  18  19
ENDBRANCH   3  18
TORSDOF 6
ENDMDL
MODEL 8
REMARK VINA RESULT:      -8.4      2.514      4.459
REMARK  Name = 
REMARK  6 active torsions:
REMARK  status: ('A' for Active; 'I' for Inactive)
REMARK    1  A    between atoms: C_2  and  C_15
REMARK    2  A    between atoms: N_3  and  C_4
REMARK    3  A    between atoms: C_4  and  C_5
REMARK    4  A    between atoms: C_5  and  C_6
REMARK    5  A    between atoms: C_19  and  C_20
REMARK    6  A    between atoms: C_20  and  N_21
REMARK                            x       y       z     vdW  Elec       q    Type
REMARK                         _______ _______ _______ _____ _____    ______ ____
ROOT
ATOM      1  O   UNL     1       1.231   7.910  21.281  0.00  0.00    +0.000 OA
ATOM      2  C   UNL     1       1.770   7.472  20.271  0.00  0.00    +0.000 C 
ATOM      3  N   UNL     1       1.951   8.204  19.116  0.00  0.00    +0.000 N 
ATOM      4  H   UNL     1       2.153   7.703  18.260  0.00  0.00    +0.000 HD
ENDROOT
BRANCH   2   5
ATOM      5  C   UNL     1       2.222   6.055  20.210  0.00  0.00    +0.000 A 
ATOM      6  C   UNL     1       1.356   5.051  20.656  0.00  0.00    +0.000 A 
ATOM      7  C   UNL     1       1.740   3.712  20.572  0.00  0.00    +0.000 A 
ATOM      8  C   UNL     1       2.979   3.371  20.023  0.00  0.00    +0.000 A 
ATOM      9  C   UNL     1       3.851   4.367  19.558  0.00  0.00    +0.000 A 
ATOM     10  C   UNL     1       3.480   5.713  19.695  0.00  0.00    +0.000 A 
BRANCH   9  11
ATOM     11  C   UNL     1       5.139   4.015  18.861  0.00  0.00    +0.000 C 
BRANCH  11  12
ATOM     12  N   UNL     1       5.930   5.156  18.445  0.00  0.00    +0.000 N 
ATOM     13  C   UNL     1       7.152   5.526  19.117  0.00  0.00    +0.000 C 
ATOM     14  C   UNL     1       7.670   6.685  18.287  0.00  0.00    +0.000 C 
ATOM     15  C   UNL     1       7.216   6.339  16.877  0.00  0.00    +0.000 C 
ATOM     16  C   UNL     1       5.951   5.553  17.110  0.00  0.00    +0.000 C 
ATOM     17  O   UNL     1       5.142   5.252  16.246  0.00  0.00    +0.000 OA
ENDBRANCH  11  12
ENDBRANCH   9  11
ENDBRANCH   2   5
BRANCH   3  18
ATOM     18  C   UNL     1       1.457   9.564  19.009  0.00  0.00    +0.000 C 
BRANCH  18  19
ATOM     19  C   UNL     1       0.437   9.707  17.879  0.00  0.00    +0.000 C 
BRANCH  19  20
ATOM     20  C   UNL     1      -0.777  10.468  18.300  0.00  0.00    +0.000 A 
ATOM     21  C   UNL     1      -0.946  11.147  19.490  0.00  0.00    +0.000 A 
ATOM     22  N   UNL     1      -2.201  11.691  19.503  0.00  0.00    +0.000 N 
ATOM     23  C   UNL     1      -2.864  11.384  18.338  0.00  0.00    +0.000 A 
ATOM     24  C   UNL     1      -4.159  11.711  17.923  0.00  0.00    +0.000 A 
ATOM     25  C   UNL     1      -4.575  11.253  16.668  0.00  0.00    +0.000 A 
ATOM     26  C   UNL     1      -3.724  10.501  15.860  0.00  0.00    +0.000 A 
ATOM     27  C   UNL     1      -2.432  10.180  16.294  0.00  0.00    +0.000 A 
ATOM     28  C   UNL     1      -1.990  10.623  17.556  0.00  0.00    +0.000 A 
ATOM     29  H   UNL     1      -2.593  12.235  20.259  0.00  0.00    +0.000 HD
ENDBRANCH  19  20
ENDBRANCH  18  19
ENDBRANCH   3  18
TORSDOF 6
ENDMDL
MODEL 9
REMARK VINA RESULT:      -8.3      2.022      3.801
REMARK  Name = 
REMARK  6 active torsions:
REMARK  status: ('A' for Active; 'I' for Inactive)
REMARK    1  A    between atoms: C_2  and  C_15
REMARK    2  A    between atoms: N_3  and  C_4
REMARK    3  A    between atoms: C_4  and  C_5
REMARK    4  A    between atoms: C_5  and  C_6
REMARK    5  A    between atoms: C_19  and  C_20
REMARK    6  A    between atoms: C_20  and  N_21
REMARK                            x       y       z     vdW  Elec       q    Type
REMARK                         _______ _______ _______ _____ _____    ______ ____
ROOT
ATOM      1  O   UNL     1       1.690   9.341  22.683  0.00  0.00    +0.000 OA
ATOM      2  C   UNL     1       0.931   9.396  21.723  0.00  0.00    +0.000 C 
ATOM      3  N   UNL     1      -0.345   9.919  21.778  0.00  0.00    +0.000 N 
ATOM      4  H   UNL     1      -0.989   9.688  21.034  0.00  0.00    +0.000 HD
ENDROOT
BRANCH   2   5
ATOM      5  C   UNL     1       1.333   8.827  20.407  0.00  0.00    +0.000 A 
ATOM      6  C   UNL     1       1.104   9.578  19.250  0.00  0.00    +0.000 A 
ATOM      7  C   UNL     1       1.509   9.086  18.009  0.00  0.00    +0.000 A 
ATOM      8  C   UNL     1       2.163   7.854  17.923  0.00  0.00    +0.000 A 
ATOM      9  C   UNL     1       2.413   7.097  19.077  0.00  0.00    +0.000 A 
ATOM     10  C   UNL     1       1.956   7.575  20.315  0.00  0.00    +0.000 A 
BRANCH   9  11
ATOM     11  C   UNL     1       3.215   5.824  19.019  0.00  0.00    +0.000 C 
BRANCH  11  12
ATOM     12  N   UNL     1       2.526   4.654  19.527  0.00  0.00    +0.000 N 
ATOM     13  C   UNL     1       2.328   4.437  20.939  0.00  0.00    +0.000 C 
ATOM     14  C   UNL     1       1.489   3.174  20.984  0.00  0.00    +0.000 C 
ATOM     15  C   UNL     1       0.640   3.269  19.725  0.00  0.00    +0.000 C 
ATOM     16  C   UNL     1       1.522   4.045  18.778  0.00  0.00    +0.000 C 
ATOM     17  O   UNL     1       1.322   4.175  17.581  0.00  0.00    +0.000 OA
ENDBRANCH  11  12
ENDBRANCH   9  11
ENDBRANCH   2   5
BRANCH   3  18
ATOM     18  C   UNL     1      -0.898  10.408  23.029  0.00  0.00    +0.000 C 
BRANCH  18  19
ATOM     19  C   UNL     1      -1.270  11.887  22.940  0.00  0.00    +0.000 C 
BRANCH  19  20
ATOM     20  C   UNL     1      -1.404  12.358  21.530  0.00  0.00    +0.000 A 
ATOM     21  C   UNL     1      -2.574  12.444  20.802  0.00  0.00    +0.000 A 
ATOM     22  N   UNL     1      -2.271  12.897  19.548  0.00  0.00    +0.000 N 
ATOM     23  C   UNL     1      -0.919  13.114  19.435  0.00  0.00    +0.000 A 
ATOM     24  C   UNL     1      -0.163  13.558  18.344  0.00  0.00    +0.000 A 
ATOM     25  C   UNL     1       1.220  13.685  18.519  0.00  0.00    +0.000 A 
ATOM     26  C   UNL     1       1.819  13.383  19.741  0.00  0.00    +0.000 A 
ATOM     27  C   UNL     1       1.047  12.936  20.820  0.00  0.00    +0.000 A 
ATOM     28  C   UNL     1      -0.346  12.793  20.669  0.00  0.00    +0.000 A 
ATOM     29  H   UNL     1      -2.940  13.045  18.805  0.00  0.00    +0.000 HD
ENDBRANCH  19  20
ENDBRANCH  18  19
ENDBRANCH   3  18
TORSDOF 6
ENDMDL
