MODEL 1
REMARK VINA RESULT:      -8.4      0.000      0.000
REMARK  Name = 
REMARK  5 active torsions:
REMARK  status: ('A' for Active; 'I' for Inactive)
REMARK    1  A    between atoms: C_2  and  C_17
REMARK    2  A    between atoms: C_7  and  C_8
REMARK    3  A    between atoms: C_8  and  C_9
REMARK    4  A    between atoms: C_20  and  C_21
REMARK    5  A    between atoms: C_21  and  N_22
REMARK                            x       y       z     vdW  Elec       q    Type
REMARK                         _______ _______ _______ _____ _____    ______ ____
ROOT
ATOM      1  O   UNL     1       0.478  10.271  18.309  0.00  0.00    +0.000 OA
ATOM      2  C   UNL     1       0.737   9.587  19.297  0.00  0.00    +0.000 C 
ATOM      3  N   UNL     1       0.244   9.761  20.572  0.00  0.00    +0.000 N 
ATOM      4  C   UNL     1      -0.610  10.808  20.821  0.00  0.00    +0.000 A 
ATOM      5  N   UNL     1      -1.271  11.525  19.953  0.00  0.00    +0.000 NA
ATOM      6  C   UNL     1      -1.887  12.581  20.585  0.00  0.00    +0.000 A 
ATOM      7  C   UNL     1      -1.705  12.642  21.952  0.00  0.00    +0.000 A 
ATOM      8  S   UNL     1      -0.797  11.263  22.457  0.00  0.00    +0.000 S 
ATOM      9  H   UNL     1       0.645   9.283  21.364  0.00  0.00    +0.000 HD
ENDROOT
BRANCH   2  10
ATOM     10  C   UNL     1       1.742   8.516  19.098  0.00  0.00    +0.000 A 
ATOM     11  C   UNL     1       2.464   8.529  17.896  0.00  0.00    +0.000 A 
ATOM     12  C   UNL     1       3.339   7.490  17.578  0.00  0.00    +0.000 A 
ATOM     13  C   UNL     1       3.498   6.411  18.455  0.00  0.00    +0.000 A 
ATOM     14  C   UNL     1       2.784   6.415  19.669  0.00  0.00    +0.000 A 
ATOM     15  C   UNL     1       1.907   7.459  19.994  0.00  0.00    +0.000 A 
BRANCH  13  16
ATOM     16  C   UNL     1       4.397   5.248  18.095  0.00  0.00    +0.000 C 
BRANCH  16  17
ATOM     17  N   UNL     1       3.722   3.966  18.157  0.00  0.00    +0.000 N 
ATOM     18  C   UNL     1       2.706   3.567  17.215  0.00  0.00    +0.000 C 
ATOM     19  C   UNL     1       2.186   2.265  17.799  0.00  0.00    +0.000 C 
ATOM     20  C   UNL     1       3.399   1.681  18.510  0.00  0.00    +0.000 C 
ATOM     21  C   UNL     1       4.150   2.913  18.951  0.00  0.00    +0.000 C 
ATOM     22  O   UNL     1       5.018   2.945  19.807  0.00  0.00    +0.000 OA
ENDBRANCH  16  17
ENDBRANCH  13  16
ENDBRANCH   2  10
BRANCH   7  23
ATOM     23  C   UNL     1      -2.166  13.706  22.900  0.00  0.00    +0.000 C 
BRANCH  23  24
ATOM     24  C   UNL     1      -3.603  13.495  23.337  0.00  0.00    +0.000 A 
ATOM     25  C   UNL     1      -3.929  12.512  24.287  0.00  0.00    +0.000 A 
ATOM     26  C   UNL     1      -5.263  12.261  24.613  0.00  0.00    +0.000 A 
ATOM     27  C   UNL     1      -6.271  12.993  23.997  0.00  0.00    +0.000 A 
ATOM     28  F   UNL     1      -7.551  12.733  24.292  0.00  0.00    +0.000 F 
ATOM     29  C   UNL     1      -5.968  13.984  23.072  0.00  0.00    +0.000 A 
ATOM     30  C   UNL     1      -4.637  14.235  22.742  0.00  0.00    +0.000 A 
ENDBRANCH  23  24
ENDBRANCH   7  23
TORSDOF 5
ENDMDL
MODEL 2
REMARK VINA RESULT:      -8.2      1.816      2.344
REMARK  Name = 
REMARK  5 active torsions:
REMARK  status: ('A' for Active; 'I' for Inactive)
REMARK    1  A    between atoms: C_2  and  C_17
REMARK    2  A    between atoms: C_7  and  C_8
REMARK    3  A    between atoms: C_8  and  C_9
REMARK    4  A    between atoms: C_20  and  C_21
REMARK    5  A    between atoms: C_21  and  N_22
REMARK                            x       y       z     vdW  Elec       q    Type
REMARK                         _______ _______ _______ _____ _____    ______ ____
ROOT
ATOM      1  O   UNL     1       1.160   9.319  17.749  0.00  0.00    +0.000 OA
ATOM      2  C   UNL     1       1.391   8.774  18.827  0.00  0.00    +0.000 C 
ATOM      3  N   UNL     1       0.862   9.114  20.053  0.00  0.00    +0.000 N 
ATOM      4  C   UNL     1       0.001  10.183  20.136  0.00  0.00    +0.000 A 
ATOM      5  N   UNL     1      -0.635  10.775  19.162  0.00  0.00    +0.000 NA
ATOM      6  C   UNL     1      -1.268  11.904  19.630  0.00  0.00    +0.000 A 
ATOM      7  C   UNL     1      -1.125  12.147  20.981  0.00  0.00    +0.000 A 
ATOM      8  S   UNL     1      -0.232  10.850  21.691  0.00  0.00    +0.000 S 
ATOM      9  H   UNL     1       1.240   8.747  20.913  0.00  0.00    +0.000 HD
ENDROOT
BRANCH   2  10
ATOM     10  C   UNL     1       2.400   7.689  18.801  0.00  0.00    +0.000 A 
ATOM     11  C   UNL     1       3.306   7.681  17.730  0.00  0.00    +0.000 A 
ATOM     12  C   UNL     1       4.207   6.629  17.566  0.00  0.00    +0.000 A 
ATOM     13  C   UNL     1       4.209   5.557  18.467  0.00  0.00    +0.000 A 
ATOM     14  C   UNL     1       3.310   5.583  19.551  0.00  0.00    +0.000 A 
ATOM     15  C   UNL     1       2.406   6.640  19.722  0.00  0.00    +0.000 A 
BRANCH  13  16
ATOM     16  C   UNL     1       5.139   4.380  18.266  0.00  0.00    +0.000 C 
BRANCH  16  17
ATOM     17  N   UNL     1       5.702   4.321  16.931  0.00  0.00    +0.000 N 
ATOM     18  C   UNL     1       4.895   4.200  15.743  0.00  0.00    +0.000 C 
ATOM     19  C   UNL     1       5.924   3.988  14.647  0.00  0.00    +0.000 C 
ATOM     20  C   UNL     1       7.142   4.753  15.146  0.00  0.00    +0.000 C 
ATOM     21  C   UNL     1       7.024   4.623  16.644  0.00  0.00    +0.000 C 
ATOM     22  O   UNL     1       7.923   4.816  17.445  0.00  0.00    +0.000 OA
ENDBRANCH  16  17
ENDBRANCH  13  16
ENDBRANCH   2  10
BRANCH   7  23
ATOM     23  C   UNL     1      -1.612  13.326  21.765  0.00  0.00    +0.000 C 
BRANCH  23  24
ATOM     24  C   UNL     1      -2.944  13.051  22.437  0.00  0.00    +0.000 A 
ATOM     25  C   UNL     1      -4.150  13.193  21.729  0.00  0.00    +0.000 A 
ATOM     26  C   UNL     1      -5.373  13.028  22.380  0.00  0.00    +0.000 A 
ATOM     27  C   UNL     1      -5.396  12.718  23.735  0.00  0.00    +0.000 A 
ATOM     28  F   UNL     1      -6.570  12.586  24.364  0.00  0.00    +0.000 F 
ATOM     29  C   UNL     1      -4.215  12.552  24.447  0.00  0.00    +0.000 A 
ATOM     30  C   UNL     1      -2.990  12.719  23.800  0.00  0.00    +0.000 A 
ENDBRANCH  23  24
ENDBRANCH   7  23
TORSDOF 5
ENDMDL
MODEL 3
REMARK VINA RESULT:      -8.1      2.798      3.730
REMARK  Name = 
REMARK  5 active torsions:
REMARK  status: ('A' for Active; 'I' for Inactive)
REMARK    1  A    between atoms: C_2  and  C_17
REMARK    2  A    between atoms: C_7  and  C_8
REMARK    3  A    between atoms: C_8  and  C_9
REMARK    4  A    between atoms: C_20  and  C_21
REMARK    5  A    between atoms: C_21  and  N_22
REMARK                            x       y       z     vdW  Elec       q    Type
REMARK                         _______ _______ _______ _____ _____    ______ ____
ROOT
ATOM      1  O   UNL     1       1.135   7.514  21.293  0.00  0.00    +0.000 OA
ATOM      2  C   UNL     1       1.649   7.795  20.212  0.00  0.00    +0.000 C 
ATOM      3  N   UNL     1       1.489   8.965  19.502  0.00  0.00    +0.000 N 
ATOM      4  C   UNL     1       0.658   9.941  20.000  0.00  0.00    +0.000 A 
ATOM      5  N   UNL     1       0.198  10.054  21.217  0.00  0.00    +0.000 NA
ATOM      6  C   UNL     1      -0.731  11.068  21.275  0.00  0.00    +0.000 A 
ATOM      7  C   UNL     1      -0.951  11.741  20.091  0.00  0.00    +0.000 A 
ATOM      8  S   UNL     1       0.122  11.121  18.888  0.00  0.00    +0.000 S 
ATOM      9  H   UNL     1       1.787   9.047  18.542  0.00  0.00    +0.000 HD
ENDROOT
BRANCH   2  10
ATOM     10  C   UNL     1       2.463   6.727  19.584  0.00  0.00    +0.000 A 
ATOM     11  C   UNL     1       2.918   6.953  18.277  0.00  0.00    +0.000 A 
ATOM     12  C   UNL     1       3.585   5.951  17.571  0.00  0.00    +0.000 A 
ATOM     13  C   UNL     1       3.797   4.697  18.159  0.00  0.00    +0.000 A 
ATOM     14  C   UNL     1       3.354   4.486  19.479  0.00  0.00    +0.000 A 
ATOM     15  C   UNL     1       2.687   5.491  20.193  0.00  0.00    +0.000 A 
BRANCH  13  16
ATOM     16  C   UNL     1       4.463   3.583  17.383  0.00  0.00    +0.000 C 
BRANCH  16  17
ATOM     17  N   UNL     1       5.536   4.048  16.525  0.00  0.00    +0.000 N 
ATOM     18  C   UNL     1       5.355   4.326  15.123  0.00  0.00    +0.000 C 
ATOM     19  C   UNL     1       6.769   4.589  14.637  0.00  0.00    +0.000 C 
ATOM     20  C   UNL     1       7.463   5.183  15.856  0.00  0.00    +0.000 C 
ATOM     21  C   UNL     1       6.754   4.506  17.003  0.00  0.00    +0.000 C 
ATOM     22  O   UNL     1       7.164   4.442  18.150  0.00  0.00    +0.000 OA
ENDBRANCH  16  17
ENDBRANCH  13  16
ENDBRANCH   2  10
BRANCH   7  23
ATOM     23  C   UNL     1      -1.952  12.820  19.812  0.00  0.00    +0.000 C 
BRANCH  23  24
ATOM     24  C   UNL     1      -3.301  12.254  19.412  0.00  0.00    +0.000 A 
ATOM     25  C   UNL     1      -3.432  11.448  18.268  0.00  0.00    +0.000 A 
ATOM     26  C   UNL     1      -4.691  11.009  17.856  0.00  0.00    +0.000 A 
ATOM     27  C   UNL     1      -5.819  11.369  18.585  0.00  0.00    +0.000 A 
ATOM     28  F   UNL     1      -7.028  10.969  18.173  0.00  0.00    +0.000 F 
ATOM     29  C   UNL     1      -5.708  12.146  19.730  0.00  0.00    +0.000 A 
ATOM     30  C   UNL     1      -4.451  12.589  20.144  0.00  0.00    +0.000 A 
ENDBRANCH  23  24
ENDBRANCH   7  23
TORSDOF 5
ENDMDL
MODEL 4
REMARK VINA RESULT:      -8.1      1.745      2.452
REMARK  Name = 
REMARK  5 active torsions:
REMARK  status: ('A' for Active; 'I' for Inactive)
REMARK    1  A    between atoms: C_2  and  C_17
REMARK    2  A    between atoms: C_7  and  C_8
REMARK    3  A    between atoms: C_8  and  C_9
REMARK    4  A    between atoms: C_20  and  C_21
REMARK    5  A    between atoms: C_21  and  N_22
REMARK                            x       y       z     vdW  Elec       q    Type
REMARK                         _______ _______ _______ _____ _____    ______ ____
ROOT
ATOM      1  O   UNL     1       0.854   9.654  17.890  0.00  0.00    +0.000 OA
ATOM      2  C   UNL     1       1.146   8.982  18.876  0.00  0.00    +0.000 C 
ATOM      3  N   UNL     1       0.683   9.161  20.162  0.00  0.00    +0.000 N 
ATOM      4  C   UNL     1      -0.179  10.199  20.424  0.00  0.00    +0.000 A 
ATOM      5  N   UNL     1      -0.870  10.900  19.567  0.00  0.00    +0.000 NA
ATOM      6  C   UNL     1      -1.483  11.953  20.206  0.00  0.00    +0.000 A 
ATOM      7  C   UNL     1      -1.269  12.029  21.566  0.00  0.00    +0.000 A 
ATOM      8  S   UNL     1      -0.330  10.665  22.060  0.00  0.00    +0.000 S 
ATOM      9  H   UNL     1       1.110   8.694  20.948  0.00  0.00    +0.000 HD
ENDROOT
BRANCH   2  10
ATOM     10  C   UNL     1       2.160   7.922  18.662  0.00  0.00    +0.000 A 
ATOM     11  C   UNL     1       2.237   6.905  19.624  0.00  0.00    +0.000 A 
ATOM     12  C   UNL     1       3.241   5.939  19.561  0.00  0.00    +0.000 A 
ATOM     13  C   UNL     1       4.196   5.981  18.538  0.00  0.00    +0.000 A 
ATOM     14  C   UNL     1       4.098   6.994  17.564  0.00  0.00    +0.000 A 
ATOM     15  C   UNL     1       3.089   7.964  17.621  0.00  0.00    +0.000 A 
BRANCH  13  16
ATOM     16  C   UNL     1       5.326   4.977  18.493  0.00  0.00    +0.000 C 
BRANCH  16  17
ATOM     17  N   UNL     1       5.792   4.702  17.147  0.00  0.00    +0.000 N 
ATOM     18  C   UNL     1       5.010   3.975  16.179  0.00  0.00    +0.000 C 
ATOM     19  C   UNL     1       5.979   3.787  15.025  0.00  0.00    +0.000 C 
ATOM     20  C   UNL     1       6.873   5.017  15.103  0.00  0.00    +0.000 C 
ATOM     21  C   UNL     1       6.900   5.314  16.582  0.00  0.00    +0.000 C 
ATOM     22  O   UNL     1       7.719   6.019  17.148  0.00  0.00    +0.000 OA
ENDBRANCH  16  17
ENDBRANCH  13  16
ENDBRANCH   2  10
BRANCH   7  23
ATOM     23  C   UNL     1      -1.719  13.095  22.517  0.00  0.00    +0.000 C 
BRANCH  23  24
ATOM     24  C   UNL     1      -3.165  12.909  22.935  0.00  0.00    +0.000 A 
ATOM     25  C   UNL     1      -4.215  13.246  22.064  0.00  0.00    +0.000 A 
ATOM     26  C   UNL     1      -5.541  13.160  22.491  0.00  0.00    +0.000 A 
ATOM     27  C   UNL     1      -5.822  12.733  23.784  0.00  0.00    +0.000 A 
ATOM     28  F   UNL     1      -7.093  12.676  24.201  0.00  0.00    +0.000 F 
ATOM     29  C   UNL     1      -4.799  12.374  24.653  0.00  0.00    +0.000 A 
ATOM     30  C   UNL     1      -3.473  12.462  24.230  0.00  0.00    +0.000 A 
ENDBRANCH  23  24
ENDBRANCH   7  23
TORSDOF 5
ENDMDL
MODEL 5
REMARK VINA RESULT:      -8.1      1.382      2.246
REMARK  Name = 
REMARK  5 active torsions:
REMARK  status: ('A' for Active; 'I' for Inactive)
REMARK    1  A    between atoms: C_2  and  C_17
REMARK    2  A    between atoms: C_7  and  C_8
REMARK    3  A    between atoms: C_8  and  C_9
REMARK    4  A    between atoms: C_20  and  C_21
REMARK    5  A    between atoms: C_21  and  N_22
REMARK                            x       y       z     vdW  Elec       q    Type
REMARK                         _______ _______ _______ _____ _____    ______ ____
ROOT
ATOM      1  O   UNL     1       0.845  10.147  18.464  0.00  0.00    +0.000 OA
ATOM      2  C   UNL     1       0.885   9.372  19.417  0.00  0.00    +0.000 C 
ATOM      3  N   UNL     1       0.247   9.523  20.630  0.00  0.00    +0.000 N 
ATOM      4  C   UNL     1      -0.506  10.652  20.852  0.00  0.00    +0.000 A 
ATOM      5  N   UNL     1      -0.954  11.502  19.969  0.00  0.00    +0.000 NA
ATOM      6  C   UNL     1      -1.522  12.584  20.602  0.00  0.00    +0.000 A 
ATOM      7  C   UNL     1      -1.523  12.532  21.981  0.00  0.00    +0.000 A 
ATOM      8  S   UNL     1      -0.860  11.018  22.483  0.00  0.00    +0.000 S 
ATOM      9  H   UNL     1       0.477   8.948  21.424  0.00  0.00    +0.000 HD
ENDROOT
BRANCH   2  10
ATOM     10  C   UNL     1       1.776   8.198  19.262  0.00  0.00    +0.000 A 
ATOM     11  C   UNL     1       2.483   8.085  18.055  0.00  0.00    +0.000 A 
ATOM     12  C   UNL     1       3.246   6.951  17.780  0.00  0.00    +0.000 A 
ATOM     13  C   UNL     1       3.306   5.901  18.705  0.00  0.00    +0.000 A 
ATOM     14  C   UNL     1       2.609   6.031  19.921  0.00  0.00    +0.000 A 
ATOM     15  C   UNL     1       1.844   7.171  20.204  0.00  0.00    +0.000 A 
BRANCH  13  16
ATOM     16  C   UNL     1       4.080   4.639  18.392  0.00  0.00    +0.000 C 
BRANCH  16  17
ATOM     17  N   UNL     1       5.495   4.875  18.184  0.00  0.00    +0.000 N 
ATOM     18  C   UNL     1       6.367   5.378  19.216  0.00  0.00    +0.000 C 
ATOM     19  C   UNL     1       7.669   5.630  18.475  0.00  0.00    +0.000 C 
ATOM     20  C   UNL     1       7.664   4.579  17.374  0.00  0.00    +0.000 C 
ATOM     21  C   UNL     1       6.194   4.414  17.079  0.00  0.00    +0.000 C 
ATOM     22  O   UNL     1       5.725   3.906  16.074  0.00  0.00    +0.000 OA
ENDBRANCH  16  17
ENDBRANCH  13  16
ENDBRANCH   2  10
BRANCH   7  23
ATOM     23  C   UNL     1      -1.982  13.581  22.946  0.00  0.00    +0.000 C 
BRANCH  23  24
ATOM     24  C   UNL     1      -3.447  13.423  23.304  0.00  0.00    +0.000 A 
ATOM     25  C   UNL     1      -4.416  14.287  22.767  0.00  0.00    +0.000 A 
ATOM     26  C   UNL     1      -5.748  14.194  23.173  0.00  0.00    +0.000 A 
ATOM     27  C   UNL     1      -6.115  13.236  24.111  0.00  0.00    +0.000 A 
ATOM     28  F   UNL     1      -7.388  13.164  24.520  0.00  0.00    +0.000 F 
ATOM     29  C   UNL     1      -5.176  12.357  24.637  0.00  0.00    +0.000 A 
ATOM     30  C   UNL     1      -3.844  12.450  24.235  0.00  0.00    +0.000 A 
ENDBRANCH  23  24
ENDBRANCH   7  23
TORSDOF 5
ENDMDL
MODEL 6
REMARK VINA RESULT:      -8.1      1.977      2.747
REMARK  Name = 
REMARK  5 active torsions:
REMARK  status: ('A' for Active; 'I' for Inactive)
REMARK    1  A    between atoms: C_2  and  C_17
REMARK    2  A    between atoms: C_7  and  C_8
REMARK    3  A    between atoms: C_8  and  C_9
REMARK    4  A    between atoms: C_20  and  C_21
REMARK    5  A    between atoms: C_21  and  N_22
REMARK                            x       y       z     vdW  Elec       q    Type
REMARK                         _______ _______ _______ _____ _____    ______ ____
ROOT
ATOM      1  O   UNL     1       0.140   8.316  21.607  0.00  0.00    +0.000 OA
ATOM      2  C   UNL     1       0.753   8.971  20.767  0.00  0.00    +0.000 C 
ATOM      3  N   UNL     1       0.716  10.339  20.600  0.00  0.00    +0.000 N 
ATOM      4  C   UNL     1      -0.095  11.090  21.418  0.00  0.00    +0.000 A 
ATOM      5  N   UNL     1      -0.643  10.732  22.548  0.00  0.00    +0.000 NA
ATOM      6  C   UNL     1      -1.514  11.706  22.977  0.00  0.00    +0.000 A 
ATOM      7  C   UNL     1      -1.602  12.822  22.170  0.00  0.00    +0.000 A 
ATOM      8  S   UNL     1      -0.474  12.664  20.872  0.00  0.00    +0.000 S 
ATOM      9  H   UNL     1       1.093  10.782  19.777  0.00  0.00    +0.000 HD
ENDROOT
BRANCH   2  10
ATOM     10  C   UNL     1       1.552   8.191  19.792  0.00  0.00    +0.000 A 
ATOM     11  C   UNL     1       2.039   6.945  20.214  0.00  0.00    +0.000 A 
ATOM     12  C   UNL     1       2.898   6.203  19.403  0.00  0.00    +0.000 A 
ATOM     13  C   UNL     1       3.296   6.703  18.157  0.00  0.00    +0.000 A 
ATOM     14  C   UNL     1       2.786   7.946  17.733  0.00  0.00    +0.000 A 
ATOM     15  C   UNL     1       1.920   8.692  18.543  0.00  0.00    +0.000 A 
BRANCH  13  16
ATOM     16  C   UNL     1       4.276   5.938  17.294  0.00  0.00    +0.000 C 
BRANCH  16  17
ATOM     17  N   UNL     1       5.655   6.114  17.705  0.00  0.00    +0.000 N 
ATOM     18  C   UNL     1       6.403   7.319  17.448  0.00  0.00    +0.000 C 
ATOM     19  C   UNL     1       7.810   6.951  17.886  0.00  0.00    +0.000 C 
ATOM     20  C   UNL     1       7.586   5.944  19.006  0.00  0.00    +0.000 C 
ATOM     21  C   UNL     1       6.304   5.266  18.590  0.00  0.00    +0.000 C 
ATOM     22  O   UNL     1       5.897   4.198  19.015  0.00  0.00    +0.000 OA
ENDBRANCH  16  17
ENDBRANCH  13  16
ENDBRANCH   2  10
BRANCH   7  23
ATOM     23  C   UNL     1      -2.515  14.001  22.317  0.00  0.00    +0.000 C 
BRANCH  23  24
ATOM     24  C   UNL     1      -3.965  13.582  22.460  0.00  0.00    +0.000 A 
ATOM     25  C   UNL     1      -4.601  13.606  23.713  0.00  0.00    +0.000 A 
ATOM     26  C   UNL     1      -5.906  13.131  23.852  0.00  0.00    +0.000 A 
ATOM     27  C   UNL     1      -6.579  12.635  22.741  0.00  0.00    +0.000 A 
ATOM     28  F   UNL     1      -7.821  12.156  22.881  0.00  0.00    +0.000 F 
ATOM     29  C   UNL     1      -5.976  12.623  21.490  0.00  0.00    +0.000 A 
ATOM     30  C   UNL     1      -4.671  13.095  21.349  0.00  0.00    +0.000 A 
ENDBRANCH  23  24
ENDBRANCH   7  23
TORSDOF 5
ENDMDL
MODEL 7
REMARK VINA RESULT:      -8.1      1.445      2.306
REMARK  Name = 
REMARK  5 active torsions:
REMARK  status: ('A' for Active; 'I' for Inactive)
REMARK    1  A    between atoms: C_2  and  C_17
REMARK    2  A    between atoms: C_7  and  C_8
REMARK    3  A    between atoms: C_8  and  C_9
REMARK    4  A    between atoms: C_20  and  C_21
REMARK    5  A    between atoms: C_21  and  N_22
REMARK                            x       y       z     vdW  Elec       q    Type
REMARK                         _______ _______ _______ _____ _____    ______ ____
ROOT
ATOM      1  O   UNL     1       1.213  10.393  18.758  0.00  0.00    +0.000 OA
ATOM      2  C   UNL     1       1.021   9.471  19.547  0.00  0.00    +0.000 C 
ATOM      3  N   UNL     1       0.269   9.516  20.702  0.00  0.00    +0.000 N 
ATOM      4  C   UNL     1      -0.328  10.700  21.064  0.00  0.00    +0.000 A 
ATOM      5  N   UNL     1      -0.534  11.753  20.319  0.00  0.00    +0.000 NA
ATOM      6  C   UNL     1      -1.008  12.789  21.090  0.00  0.00    +0.000 A 
ATOM      7  C   UNL     1      -1.185  12.501  22.428  0.00  0.00    +0.000 A 
ATOM      8  S   UNL     1      -0.820  10.834  22.694  0.00  0.00    +0.000 S 
ATOM      9  H   UNL     1       0.313   8.782  21.391  0.00  0.00    +0.000 HD
ENDROOT
BRANCH   2  10
ATOM     10  C   UNL     1       1.739   8.208  19.255  0.00  0.00    +0.000 A 
ATOM     11  C   UNL     1       1.703   7.207  20.238  0.00  0.00    +0.000 A 
ATOM     12  C   UNL     1       2.451   6.039  20.094  0.00  0.00    +0.000 A 
ATOM     13  C   UNL     1       3.262   5.857  18.966  0.00  0.00    +0.000 A 
ATOM     14  C   UNL     1       3.277   6.857  17.976  0.00  0.00    +0.000 A 
ATOM     15  C   UNL     1       2.523   8.031  18.114  0.00  0.00    +0.000 A 
BRANCH  13  16
ATOM     16  C   UNL     1       4.126   4.623  18.827  0.00  0.00    +0.000 C 
BRANCH  16  17
ATOM     17  N   UNL     1       5.490   4.923  18.436  0.00  0.00    +0.000 N 
ATOM     18  C   UNL     1       6.467   5.464  19.347  0.00  0.00    +0.000 C 
ATOM     19  C   UNL     1       7.646   5.776  18.443  0.00  0.00    +0.000 C 
ATOM     20  C   UNL     1       7.544   4.726  17.345  0.00  0.00    +0.000 C 
ATOM     21  C   UNL     1       6.056   4.495  17.245  0.00  0.00    +0.000 C 
ATOM     22  O   UNL     1       5.482   3.966  16.308  0.00  0.00    +0.000 OA
ENDBRANCH  16  17
ENDBRANCH  13  16
ENDBRANCH   2  10
BRANCH   7  23
ATOM     23  C   UNL     1      -1.596  13.431  23.528  0.00  0.00    +0.000 C 
BRANCH  23  24
ATOM     24  C   UNL     1      -3.104  13.515  23.667  0.00  0.00    +0.000 A 
ATOM     25  C   UNL     1      -3.821  12.521  24.353  0.00  0.00    +0.000 A 
ATOM     26  C   UNL     1      -5.215  12.558  24.395  0.00  0.00    +0.000 A 
ATOM     27  C   UNL     1      -5.896  13.589  23.757  0.00  0.00    +0.000 A 
ATOM     28  F   UNL     1      -7.234  13.608  23.776  0.00  0.00    +0.000 F 
ATOM     29  C   UNL     1      -5.205  14.594  23.092  0.00  0.00    +0.000 A 
ATOM     30  C   UNL     1      -3.811  14.558  23.046  0.00  0.00    +0.000 A 
ENDBRANCH  23  24
ENDBRANCH   7  23
TORSDOF 5
ENDMDL
MODEL 8
REMARK VINA RESULT:      -8.0      1.491      2.321
REMARK  Name = 
REMARK  5 active torsions:
REMARK  status: ('A' for Active; 'I' for Inactive)
REMARK    1  A    between atoms: C_2  and  C_17
REMARK    2  A    between atoms: C_7  and  C_8
REMARK    3  A    between atoms: C_8  and  C_9
REMARK    4  A    between atoms: C_20  and  C_21
REMARK    5  A    between atoms: C_21  and  N_22
REMARK                            x       y       z     vdW  Elec       q    Type
REMARK                         _______ _______ _______ _____ _____    ______ ____
ROOT
ATOM      1  O   UNL     1       0.881   9.855  18.106  0.00  0.00    +0.000 OA
ATOM      2  C   UNL     1       1.071   9.126  19.078  0.00  0.00    +0.000 C 
ATOM      3  N   UNL     1       0.529   9.272  20.336  0.00  0.00    +0.000 N 
ATOM      4  C   UNL     1      -0.298  10.341  20.588  0.00  0.00    +0.000 A 
ATOM      5  N   UNL     1      -0.894  11.113  19.720  0.00  0.00    +0.000 NA
ATOM      6  C   UNL     1      -1.499  12.168  20.365  0.00  0.00    +0.000 A 
ATOM      7  C   UNL     1      -1.376  12.172  21.739  0.00  0.00    +0.000 A 
ATOM      8  S   UNL     1      -0.541  10.742  22.231  0.00  0.00    +0.000 S 
ATOM      9  H   UNL     1       0.876   8.751  21.126  0.00  0.00    +0.000 HD
ENDROOT
BRANCH   2  10
ATOM     10  C   UNL     1       2.045   8.026  18.882  0.00  0.00    +0.000 A 
ATOM     11  C   UNL     1       2.116   7.047  19.884  0.00  0.00    +0.000 A 
ATOM     12  C   UNL     1       3.087   6.048  19.836  0.00  0.00    +0.000 A 
ATOM     13  C   UNL     1       4.016   6.017  18.788  0.00  0.00    +0.000 A 
ATOM     14  C   UNL     1       3.924   6.992  17.776  0.00  0.00    +0.000 A 
ATOM     15  C   UNL     1       2.948   7.996  17.818  0.00  0.00    +0.000 A 
BRANCH  13  16
ATOM     16  C   UNL     1       5.113   4.976  18.757  0.00  0.00    +0.000 C 
BRANCH  16  17
ATOM     17  N   UNL     1       5.643   4.747  17.427  0.00  0.00    +0.000 N 
ATOM     18  C   UNL     1       6.995   5.079  17.053  0.00  0.00    +0.000 C 
ATOM     19  C   UNL     1       7.008   4.837  15.554  0.00  0.00    +0.000 C 
ATOM     20  C   UNL     1       5.997   3.716  15.363  0.00  0.00    +0.000 C 
ATOM     21  C   UNL     1       5.006   3.970  16.472  0.00  0.00    +0.000 C 
ATOM     22  O   UNL     1       3.877   3.513  16.532  0.00  0.00    +0.000 OA
ENDBRANCH  16  17
ENDBRANCH  13  16
ENDBRANCH   2  10
BRANCH   7  23
ATOM     23  C   UNL     1      -1.840  13.217  22.707  0.00  0.00    +0.000 C 
BRANCH  23  24
ATOM     24  C   UNL     1      -3.296  13.030  23.090  0.00  0.00    +0.000 A 
ATOM     25  C   UNL     1      -4.324  13.558  22.291  0.00  0.00    +0.000 A 
ATOM     26  C   UNL     1      -5.655  13.461  22.700  0.00  0.00    +0.000 A 
ATOM     27  C   UNL     1      -5.962  12.836  23.902  0.00  0.00    +0.000 A 
ATOM     28  F   UNL     1      -7.237  12.768  24.305  0.00  0.00    +0.000 F 
ATOM     29  C   UNL     1      -4.962  12.288  24.696  0.00  0.00    +0.000 A 
ATOM     30  C   UNL     1      -3.631  12.385  24.291  0.00  0.00    +0.000 A 
ENDBRANCH  23  24
ENDBRANCH   7  23
TORSDOF 5
ENDMDL
MODEL 9
REMARK VINA RESULT:      -8.0      0.916      1.465
REMARK  Name = 
REMARK  5 active torsions:
REMARK  status: ('A' for Active; 'I' for Inactive)
REMARK    1  A    between atoms: C_2  and  C_17
REMARK    2  A    between atoms: C_7  and  C_8
REMARK    3  A    between atoms: C_8  and  C_9
REMARK    4  A    between atoms: C_20  and  C_21
REMARK    5  A    between atoms: C_21  and  N_22
REMARK                            x       y       z     vdW  Elec       q    Type
REMARK                         _______ _______ _______ _____ _____    ______ ____
ROOT
ATOM      1  O   UNL     1       0.888  10.356  18.416  0.00  0.00    +0.000 OA
ATOM      2  C   UNL     1       1.011   9.499  19.289  0.00  0.00    +0.000 C 
ATOM      3  N   UNL     1       0.415   9.498  20.532  0.00  0.00    +0.000 N 
ATOM      4  C   UNL     1      -0.390  10.554  20.889  0.00  0.00    +0.000 A 
ATOM      5  N   UNL     1      -0.921  11.455  20.107  0.00  0.00    +0.000 NA
ATOM      6  C   UNL     1      -1.522  12.436  20.861  0.00  0.00    +0.000 A 
ATOM      7  C   UNL     1      -1.463  12.255  22.228  0.00  0.00    +0.000 A 
ATOM      8  S   UNL     1      -0.696  10.744  22.559  0.00  0.00    +0.000 S 
ATOM      9  H   UNL     1       0.710   8.865  21.260  0.00  0.00    +0.000 HD
ENDROOT
BRANCH   2  10
ATOM     10  C   UNL     1       1.958   8.400  18.990  0.00  0.00    +0.000 A 
ATOM     11  C   UNL     1       2.610   8.436  17.748  0.00  0.00    +0.000 A 
ATOM     12  C   UNL     1       3.423   7.378  17.340  0.00  0.00    +0.000 A 
ATOM     13  C   UNL     1       3.588   6.258  18.163  0.00  0.00    +0.000 A 
ATOM     14  C   UNL     1       2.946   6.240  19.416  0.00  0.00    +0.000 A 
ATOM     15  C   UNL     1       2.132   7.301  19.833  0.00  0.00    +0.000 A 
BRANCH  13  16
ATOM     16  C   UNL     1       4.417   5.078  17.705  0.00  0.00    +0.000 C 
BRANCH  16  17
ATOM     17  N   UNL     1       3.970   3.817  18.264  0.00  0.00    +0.000 N 
ATOM     18  C   UNL     1       4.525   3.251  19.468  0.00  0.00    +0.000 C 
ATOM     19  C   UNL     1       3.883   1.876  19.531  0.00  0.00    +0.000 C 
ATOM     20  C   UNL     1       2.529   2.082  18.866  0.00  0.00    +0.000 C 
ATOM     21  C   UNL     1       2.817   3.164  17.855  0.00  0.00    +0.000 C 
ATOM     22  O   UNL     1       2.117   3.443  16.897  0.00  0.00    +0.000 OA
ENDBRANCH  16  17
ENDBRANCH  13  16
ENDBRANCH   2  10
BRANCH   7  23
ATOM     23  C   UNL     1      -1.940  13.180  23.305  0.00  0.00    +0.000 C 
BRANCH  23  24
ATOM     24  C   UNL     1      -3.447  13.138  23.465  0.00  0.00    +0.000 A 
ATOM     25  C   UNL     1      -4.278  13.941  22.667  0.00  0.00    +0.000 A 
ATOM     26  C   UNL     1      -5.657  13.965  22.885  0.00  0.00    +0.000 A 
ATOM     27  C   UNL     1      -6.208  13.184  23.894  0.00  0.00    +0.000 A 
ATOM     28  F   UNL     1      -7.527  13.228  24.119  0.00  0.00    +0.000 F 
ATOM     29  C   UNL     1      -5.405  12.366  24.680  0.00  0.00    +0.000 A 
ATOM     30  C   UNL     1      -4.027  12.343  24.467  0.00  0.00    +0.000 A 
ENDBRANCH  23  24
ENDBRANCH   7  23
TORSDOF 5
ENDMDL
