MODEL 1
REMARK VINA RESULT:      -8.2      0.000      0.000
REMARK  Name = 
REMARK  6 active torsions:
REMARK  status: ('A' for Active; 'I' for Inactive)
REMARK    1  A    between atoms: N_1  and  S_2
REMARK    2  A    between atoms: S_2  and  C_5
REMARK    3  A    between atoms: C_8  and  N_9
REMARK    4  A    between atoms: C_10  and  C_12
REMARK    5  A    between atoms: N_14  and  C_15
REMARK    6  A    between atoms: C_22  and  C_23
REMARK                            x       y       z     vdW  Elec       q    Type
REMARK                         _______ _______ _______ _____ _____    ______ ____
ROOT
ATOM      1  C   UNL     1       4.390   5.819  16.965  0.00  0.00    +0.000 A 
ATOM      2  C   UNL     1       5.140   5.958  15.818  0.00  0.00    +0.000 A 
ATOM      3  N   UNL     1       5.189   4.726  15.210  0.00  0.00    +0.000 N 
ATOM      4  N   UNL     1       4.480   3.805  15.907  0.00  0.00    +0.000 NA
ATOM      5  C   UNL     1       4.029   4.441  17.003  0.00  0.00    +0.000 A 
ENDROOT
BRANCH   3   6
ATOM      6  C   UNL     1       5.895   4.382  14.022  0.00  0.00    +0.000 A 
ATOM      7  C   UNL     1       5.382   3.428  13.129  0.00  0.00    +0.000 A 
ATOM      8  C   UNL     1       6.074   3.119  11.955  0.00  0.00    +0.000 A 
ATOM      9  C   UNL     1       7.281   3.750  11.669  0.00  0.00    +0.000 A 
ATOM     10  C   UNL     1       7.800   4.694  12.554  0.00  0.00    +0.000 A 
ATOM     11  C   UNL     1       7.111   5.014  13.727  0.00  0.00    +0.000 A 
ENDBRANCH   3   6
BRANCH   5  12
ATOM     12  C   UNL     1       3.320   3.713  18.057  0.00  0.00    +0.000 A 
ATOM     13  C   UNL     1       1.959   3.404  17.951  0.00  0.00    +0.000 A 
ATOM     14  C   UNL     1       1.314   2.701  18.966  0.00  0.00    +0.000 A 
ATOM     15  C   UNL     1       2.047   2.347  20.083  0.00  0.00    +0.000 A 
ATOM     16  N   UNL     1       3.353   2.644  20.245  0.00  0.00    +0.000 NA
ATOM     17  C   UNL     1       3.957   3.320  19.230  0.00  0.00    +0.000 A 
ENDBRANCH   5  12
BRANCH   1  19
ATOM     18  N   UNL     1       2.710   6.851  18.294  0.00  0.00    +0.000 N 
ATOM     19  C   UNL     1       4.037   6.875  17.900  0.00  0.00    +0.000 C 
ATOM     20  O   UNL     1       4.870   7.701  18.244  0.00  0.00    +0.000 OA
ATOM     21  H   UNL     1       2.139   6.101  17.928  0.00  0.00    +0.000 HD
BRANCH  18  25
ATOM     22  C   UNL     1       0.773   9.811  20.580  0.00  0.00    +0.000 A 
ATOM     23  C   UNL     1       1.145   8.622  21.202  0.00  0.00    +0.000 A 
ATOM     24  C   UNL     1       1.785   7.627  20.458  0.00  0.00    +0.000 A 
ATOM     25  C   UNL     1       2.051   7.807  19.095  0.00  0.00    +0.000 A 
ATOM     26  C   UNL     1       1.664   9.006  18.482  0.00  0.00    +0.000 A 
ATOM     27  C   UNL     1       1.018  10.004  19.218  0.00  0.00    +0.000 A 
BRANCH  22  28
ATOM     28  S   UNL     1      -0.062  11.068  21.499  0.00  0.00    +0.000 S 
ATOM     29  O   UNL     1      -0.074  10.709  22.899  0.00  0.00    +0.000 OA
ATOM     30  O   UNL     1      -1.257  11.456  20.789  0.00  0.00    +0.000 OA
BRANCH  28  31
ATOM     31  N   UNL     1       1.000  12.359  21.355  0.00  0.00    +0.000 NA
ATOM     32  H   UNL     1       0.493  13.233  21.500  0.00  0.00    +0.000 HD
ATOM     33  H   UNL     1       1.491  12.312  20.463  0.00  0.00    +0.000 HD
ENDBRANCH  28  31
ENDBRANCH  22  28
ENDBRANCH  18  25
ENDBRANCH   1  19
TORSDOF 6
ENDMDL
MODEL 2
REMARK VINA RESULT:      -8.2      0.701      1.217
REMARK  Name = 
REMARK  6 active torsions:
REMARK  status: ('A' for Active; 'I' for Inactive)
REMARK    1  A    between atoms: N_1  and  S_2
REMARK    2  A    between atoms: S_2  and  C_5
REMARK    3  A    between atoms: C_8  and  N_9
REMARK    4  A    between atoms: C_10  and  C_12
REMARK    5  A    between atoms: N_14  and  C_15
REMARK    6  A    between atoms: C_22  and  C_23
REMARK                            x       y       z     vdW  Elec       q    Type
REMARK                         _______ _______ _______ _____ _____    ______ ____
ROOT
ATOM      1  C   UNL     1       4.422   5.875  16.923  0.00  0.00    +0.000 A 
ATOM      2  C   UNL     1       5.101   5.961  15.729  0.00  0.00    +0.000 A 
ATOM      3  N   UNL     1       5.160   4.694  15.199  0.00  0.00    +0.000 N 
ATOM      4  N   UNL     1       4.523   3.799  15.993  0.00  0.00    +0.000 NA
ATOM      5  C   UNL     1       4.111   4.491  17.069  0.00  0.00    +0.000 A 
ENDROOT
BRANCH   3   6
ATOM      6  C   UNL     1       5.811   4.294  13.997  0.00  0.00    +0.000 A 
ATOM      7  C   UNL     1       5.206   3.381  13.118  0.00  0.00    +0.000 A 
ATOM      8  C   UNL     1       5.847   3.018  11.931  0.00  0.00    +0.000 A 
ATOM      9  C   UNL     1       7.092   3.554  11.617  0.00  0.00    +0.000 A 
ATOM     10  C   UNL     1       7.703   4.456  12.487  0.00  0.00    +0.000 A 
ATOM     11  C   UNL     1       7.065   4.831  13.673  0.00  0.00    +0.000 A 
ENDBRANCH   3   6
BRANCH   5  12
ATOM     12  C   UNL     1       3.487   3.812  18.207  0.00  0.00    +0.000 A 
ATOM     13  C   UNL     1       2.098   3.662  18.303  0.00  0.00    +0.000 A 
ATOM     14  C   UNL     1       1.534   3.003  19.393  0.00  0.00    +0.000 A 
ATOM     15  C   UNL     1       2.379   2.530  20.380  0.00  0.00    +0.000 A 
ATOM     16  N   UNL     1       3.720   2.673  20.347  0.00  0.00    +0.000 NA
ATOM     17  C   UNL     1       4.241   3.311  19.263  0.00  0.00    +0.000 A 
ENDBRANCH   5  12
BRANCH   1  19
ATOM     18  N   UNL     1       2.734   7.064  18.102  0.00  0.00    +0.000 N 
ATOM     19  C   UNL     1       4.084   6.978  17.808  0.00  0.00    +0.000 C 
ATOM     20  O   UNL     1       4.950   7.747  18.196  0.00  0.00    +0.000 OA
ATOM     21  H   UNL     1       2.134   6.350  17.710  0.00  0.00    +0.000 HD
BRANCH  18  25
ATOM     22  C   UNL     1       0.788  10.018  20.388  0.00  0.00    +0.000 A 
ATOM     23  C   UNL     1       1.070  10.285  19.051  0.00  0.00    +0.000 A 
ATOM     24  C   UNL     1       1.719   9.318  18.279  0.00  0.00    +0.000 A 
ATOM     25  C   UNL     1       2.094   8.088  18.833  0.00  0.00    +0.000 A 
ATOM     26  C   UNL     1       1.810   7.838  20.181  0.00  0.00    +0.000 A 
ATOM     27  C   UNL     1       1.167   8.802  20.962  0.00  0.00    +0.000 A 
BRANCH  22  28
ATOM     28  S   UNL     1      -0.007  11.241  21.387  0.00  0.00    +0.000 S 
ATOM     29  O   UNL     1      -1.379  11.389  20.960  0.00  0.00    +0.000 OA
ATOM     30  O   UNL     1       0.880  12.367  21.548  0.00  0.00    +0.000 OA
BRANCH  28  31
ATOM     31  N   UNL     1      -0.060  10.479  22.881  0.00  0.00    +0.000 NA
ATOM     32  H   UNL     1       0.801  10.675  23.393  0.00  0.00    +0.000 HD
ATOM     33  H   UNL     1      -0.250   9.485  22.761  0.00  0.00    +0.000 HD
ENDBRANCH  28  31
ENDBRANCH  22  28
ENDBRANCH  18  25
ENDBRANCH   1  19
TORSDOF 6
ENDMDL
MODEL 3
REMARK VINA RESULT:      -8.1      0.146      1.255
REMARK  Name = 
REMARK  6 active torsions:
REMARK  status: ('A' for Active; 'I' for Inactive)
REMARK    1  A    between atoms: N_1  and  S_2
REMARK    2  A    between atoms: S_2  and  C_5
REMARK    3  A    between atoms: C_8  and  N_9
REMARK    4  A    between atoms: C_10  and  C_12
REMARK    5  A    between atoms: N_14  and  C_15
REMARK    6  A    between atoms: C_22  and  C_23
REMARK                            x       y       z     vdW  Elec       q    Type
REMARK                         _______ _______ _______ _____ _____    ______ ____
ROOT
ATOM      1  C   UNL     1       4.401   5.878  16.904  0.00  0.00    +0.000 A 
ATOM      2  C   UNL     1       5.120   5.991  15.735  0.00  0.00    +0.000 A 
ATOM      3  N   UNL     1       5.174   4.741  15.165  0.00  0.00    +0.000 N 
ATOM      4  N   UNL     1       4.497   3.833  15.908  0.00  0.00    +0.000 NA
ATOM      5  C   UNL     1       4.062   4.496  16.994  0.00  0.00    +0.000 A 
ENDROOT
BRANCH   3   6
ATOM      6  C   UNL     1       5.856   4.370  13.971  0.00  0.00    +0.000 A 
ATOM      7  C   UNL     1       7.093   4.944  13.639  0.00  0.00    +0.000 A 
ATOM      8  C   UNL     1       7.762   4.551  12.477  0.00  0.00    +0.000 A 
ATOM      9  C   UNL     1       7.201   3.592  11.639  0.00  0.00    +0.000 A 
ATOM     10  C   UNL     1       5.970   3.021  11.958  0.00  0.00    +0.000 A 
ATOM     11  C   UNL     1       5.297   3.404  13.123  0.00  0.00    +0.000 A 
ENDBRANCH   3   6
BRANCH   5  12
ATOM     12  C   UNL     1       3.391   3.792  18.088  0.00  0.00    +0.000 A 
ATOM     13  C   UNL     1       2.031   3.463  18.028  0.00  0.00    +0.000 A 
ATOM     14  C   UNL     1       1.423   2.783  19.080  0.00  0.00    +0.000 A 
ATOM     15  C   UNL     1       2.190   2.471  20.187  0.00  0.00    +0.000 A 
ATOM     16  N   UNL     1       3.496   2.789  20.305  0.00  0.00    +0.000 NA
ATOM     17  C   UNL     1       4.064   3.442  19.255  0.00  0.00    +0.000 A 
ENDBRANCH   5  12
BRANCH   1  19
ATOM     18  N   UNL     1       2.713   6.987  18.159  0.00  0.00    +0.000 N 
ATOM     19  C   UNL     1       4.053   6.958  17.814  0.00  0.00    +0.000 C 
ATOM     20  O   UNL     1       4.903   7.756  18.178  0.00  0.00    +0.000 OA
ATOM     21  H   UNL     1       2.128   6.254  17.781  0.00  0.00    +0.000 HD
BRANCH  18  25
ATOM     22  C   UNL     1       0.738   9.837  20.551  0.00  0.00    +0.000 A 
ATOM     23  C   UNL     1       0.971  10.134  19.211  0.00  0.00    +0.000 A 
ATOM     24  C   UNL     1       1.629   9.202  18.404  0.00  0.00    +0.000 A 
ATOM     25  C   UNL     1       2.062   7.977  18.925  0.00  0.00    +0.000 A 
ATOM     26  C   UNL     1       1.827   7.696  20.277  0.00  0.00    +0.000 A 
ATOM     27  C   UNL     1       1.175   8.625  21.093  0.00  0.00    +0.000 A 
BRANCH  22  28
ATOM     28  S   UNL     1      -0.067  11.015  21.593  0.00  0.00    +0.000 S 
ATOM     29  O   UNL     1       0.019  10.576  22.967  0.00  0.00    +0.000 OA
ATOM     30  O   UNL     1      -1.313  11.410  20.982  0.00  0.00    +0.000 OA
BRANCH  28  31
ATOM     31  N   UNL     1       0.953  12.341  21.460  0.00  0.00    +0.000 NA
ATOM     32  H   UNL     1       1.682  12.141  20.774  0.00  0.00    +0.000 HD
ATOM     33  H   UNL     1       1.313  12.600  22.378  0.00  0.00    +0.000 HD
ENDBRANCH  28  31
ENDBRANCH  22  28
ENDBRANCH  18  25
ENDBRANCH   1  19
TORSDOF 6
ENDMDL
MODEL 4
REMARK VINA RESULT:      -8.1      0.662      1.195
REMARK  Name = 
REMARK  6 active torsions:
REMARK  status: ('A' for Active; 'I' for Inactive)
REMARK    1  A    between atoms: N_1  and  S_2
REMARK    2  A    between atoms: S_2  and  C_5
REMARK    3  A    between atoms: C_8  and  N_9
REMARK    4  A    between atoms: C_10  and  C_12
REMARK    5  A    between atoms: N_14  and  C_15
REMARK    6  A    between atoms: C_22  and  C_23
REMARK                            x       y       z     vdW  Elec       q    Type
REMARK                         _______ _______ _______ _____ _____    ______ ____
ROOT
ATOM      1  C   UNL     1       4.428   5.792  16.932  0.00  0.00    +0.000 A 
ATOM      2  C   UNL     1       5.136   5.924  15.758  0.00  0.00    +0.000 A 
ATOM      3  N   UNL     1       5.181   4.684  15.166  0.00  0.00    +0.000 N 
ATOM      4  N   UNL     1       4.508   3.764  15.900  0.00  0.00    +0.000 NA
ATOM      5  C   UNL     1       4.086   4.410  17.001  0.00  0.00    +0.000 A 
ENDROOT
BRANCH   3   6
ATOM      6  C   UNL     1       5.851   4.330  13.960  0.00  0.00    +0.000 A 
ATOM      7  C   UNL     1       7.094   4.895  13.633  0.00  0.00    +0.000 A 
ATOM      8  C   UNL     1       7.750   4.520  12.458  0.00  0.00    +0.000 A 
ATOM      9  C   UNL     1       7.170   3.589  11.601  0.00  0.00    +0.000 A 
ATOM     10  C   UNL     1       5.934   3.027  11.915  0.00  0.00    +0.000 A 
ATOM     11  C   UNL     1       5.274   3.392  13.092  0.00  0.00    +0.000 A 
ENDBRANCH   3   6
BRANCH   5  12
ATOM     12  C   UNL     1       3.423   3.689  18.089  0.00  0.00    +0.000 A 
ATOM     13  C   UNL     1       2.059   3.374  18.040  0.00  0.00    +0.000 A 
ATOM     14  C   UNL     1       1.458   2.678  19.086  0.00  0.00    +0.000 A 
ATOM     15  C   UNL     1       2.237   2.336  20.176  0.00  0.00    +0.000 A 
ATOM     16  N   UNL     1       3.547   2.639  20.283  0.00  0.00    +0.000 NA
ATOM     17  C   UNL     1       4.108   3.309  19.239  0.00  0.00    +0.000 A 
ENDBRANCH   5  12
BRANCH   1  19
ATOM     18  N   UNL     1       2.751   6.901  18.201  0.00  0.00    +0.000 N 
ATOM     19  C   UNL     1       4.093   6.858  17.863  0.00  0.00    +0.000 C 
ATOM     20  O   UNL     1       4.953   7.633  18.250  0.00  0.00    +0.000 OA
ATOM     21  H   UNL     1       2.156   6.187  17.803  0.00  0.00    +0.000 HD
BRANCH  18  25
ATOM     22  C   UNL     1       0.873   9.940  20.433  0.00  0.00    +0.000 A 
ATOM     23  C   UNL     1       1.217   8.754  21.075  0.00  0.00    +0.000 A 
ATOM     24  C   UNL     1       1.838   7.733  20.349  0.00  0.00    +0.000 A 
ATOM     25  C   UNL     1       2.111   7.885  18.985  0.00  0.00    +0.000 A 
ATOM     26  C   UNL     1       1.752   9.081  18.351  0.00  0.00    +0.000 A 
ATOM     27  C   UNL     1       1.126  10.105  19.069  0.00  0.00    +0.000 A 
BRANCH  22  28
ATOM     28  S   UNL     1       0.063  11.229  21.329  0.00  0.00    +0.000 S 
ATOM     29  O   UNL     1      -1.295  11.363  20.853  0.00  0.00    +0.000 OA
ATOM     30  O   UNL     1       0.958  12.356  21.446  0.00  0.00    +0.000 OA
BRANCH  28  31
ATOM     31  N   UNL     1      -0.042  10.563  22.866  0.00  0.00    +0.000 NA
ATOM     32  H   UNL     1      -0.972  10.163  23.000  0.00  0.00    +0.000 HD
ATOM     33  H   UNL     1       0.211  11.258  23.568  0.00  0.00    +0.000 HD
ENDBRANCH  28  31
ENDBRANCH  22  28
ENDBRANCH  18  25
ENDBRANCH   1  19
TORSDOF 6
ENDMDL
MODEL 5
REMARK VINA RESULT:      -8.0      4.063      9.868
REMARK  Name = 
REMARK  6 active torsions:
REMARK  status: ('A' for Active; 'I' for Inactive)
REMARK    1  A    between atoms: N_1  and  S_2
REMARK    2  A    between atoms: S_2  and  C_5
REMARK    3  A    between atoms: C_8  and  N_9
REMARK    4  A    between atoms: C_10  and  C_12
REMARK    5  A    between atoms: N_14  and  C_15
REMARK    6  A    between atoms: C_22  and  C_23
REMARK                            x       y       z     vdW  Elec       q    Type
REMARK                         _______ _______ _______ _____ _____    ______ ____
ROOT
ATOM      1  C   UNL     1       0.076  10.482  19.323  0.00  0.00    +0.000 A 
ATOM      2  C   UNL     1      -1.240  10.225  19.009  0.00  0.00    +0.000 A 
ATOM      3  N   UNL     1      -1.823  11.424  18.676  0.00  0.00    +0.000 N 
ATOM      4  N   UNL     1      -0.928  12.440  18.739  0.00  0.00    +0.000 NA
ATOM      5  C   UNL     1       0.219  11.893  19.178  0.00  0.00    +0.000 A 
ENDROOT
BRANCH   3   6
ATOM      6  C   UNL     1      -3.186  11.651  18.330  0.00  0.00    +0.000 A 
ATOM      7  C   UNL     1      -3.669  11.328  17.052  0.00  0.00    +0.000 A 
ATOM      8  C   UNL     1      -5.015  11.534  16.736  0.00  0.00    +0.000 A 
ATOM      9  C   UNL     1      -5.882  12.067  17.686  0.00  0.00    +0.000 A 
ATOM     10  C   UNL     1      -5.409  12.396  18.955  0.00  0.00    +0.000 A 
ATOM     11  C   UNL     1      -4.065  12.187  19.282  0.00  0.00    +0.000 A 
ENDBRANCH   3   6
BRANCH   5  12
ATOM     12  C   UNL     1       1.381  12.727  19.487  0.00  0.00    +0.000 A 
ATOM     13  C   UNL     1       2.188  13.270  18.479  0.00  0.00    +0.000 A 
ATOM     14  C   UNL     1       3.281  14.068  18.803  0.00  0.00    +0.000 A 
ATOM     15  C   UNL     1       3.559  14.284  20.141  0.00  0.00    +0.000 A 
ATOM     16  N   UNL     1       2.829  13.764  21.149  0.00  0.00    +0.000 NA
ATOM     17  C   UNL     1       1.760  12.998  20.799  0.00  0.00    +0.000 A 
ENDBRANCH   5  12
BRANCH   1  19
ATOM     18  N   UNL     1       1.545   8.748  18.624  0.00  0.00    +0.000 N 
ATOM     19  C   UNL     1       1.085   9.501  19.690  0.00  0.00    +0.000 C 
ATOM     20  O   UNL     1       1.429   9.376  20.856  0.00  0.00    +0.000 OA
ATOM     21  H   UNL     1       1.169   8.970  17.712  0.00  0.00    +0.000 HD
BRANCH  18  25
ATOM     22  C   UNL     1       4.227   5.500  18.668  0.00  0.00    +0.000 A 
ATOM     23  C   UNL     1       3.271   5.592  19.676  0.00  0.00    +0.000 A 
ATOM     24  C   UNL     1       2.375   6.665  19.679  0.00  0.00    +0.000 A 
ATOM     25  C   UNL     1       2.431   7.652  18.688  0.00  0.00    +0.000 A 
ATOM     26  C   UNL     1       3.404   7.549  17.685  0.00  0.00    +0.000 A 
ATOM     27  C   UNL     1       4.307   6.482  17.677  0.00  0.00    +0.000 A 
BRANCH  22  28
ATOM     28  S   UNL     1       5.384   4.165  18.664  0.00  0.00    +0.000 S 
ATOM     29  O   UNL     1       4.931   3.137  19.573  0.00  0.00    +0.000 OA
ATOM     30  O   UNL     1       6.723   4.701  18.707  0.00  0.00    +0.000 OA
BRANCH  28  31
ATOM     31  N   UNL     1       5.185   3.545  17.118  0.00  0.00    +0.000 NA
ATOM     32  H   UNL     1       4.675   4.219  16.545  0.00  0.00    +0.000 HD
ATOM     33  H   UNL     1       4.744   2.627  17.162  0.00  0.00    +0.000 HD
ENDBRANCH  28  31
ENDBRANCH  22  28
ENDBRANCH  18  25
ENDBRANCH   1  19
TORSDOF 6
ENDMDL
MODEL 6
REMARK VINA RESULT:      -8.0      0.516      1.246
REMARK  Name = 
REMARK  6 active torsions:
REMARK  status: ('A' for Active; 'I' for Inactive)
REMARK    1  A    between atoms: N_1  and  S_2
REMARK    2  A    between atoms: S_2  and  C_5
REMARK    3  A    between atoms: C_8  and  N_9
REMARK    4  A    between atoms: C_10  and  C_12
REMARK    5  A    between atoms: N_14  and  C_15
REMARK    6  A    between atoms: C_22  and  C_23
REMARK                            x       y       z     vdW  Elec       q    Type
REMARK                         _______ _______ _______ _____ _____    ______ ____
ROOT
ATOM      1  C   UNL     1       4.386   5.853  16.919  0.00  0.00    +0.000 A 
ATOM      2  C   UNL     1       5.113   5.960  15.755  0.00  0.00    +0.000 A 
ATOM      3  N   UNL     1       5.166   4.709  15.189  0.00  0.00    +0.000 N 
ATOM      4  N   UNL     1       4.481   3.805  15.930  0.00  0.00    +0.000 NA
ATOM      5  C   UNL     1       4.041   4.472  17.011  0.00  0.00    +0.000 A 
ENDROOT
BRANCH   3   6
ATOM      6  C   UNL     1       5.855   4.331  14.000  0.00  0.00    +0.000 A 
ATOM      7  C   UNL     1       5.312   3.379  13.124  0.00  0.00    +0.000 A 
ATOM      8  C   UNL     1       5.988   3.038  11.949  0.00  0.00    +0.000 A 
ATOM      9  C   UNL     1       7.208   3.635  11.647  0.00  0.00    +0.000 A 
ATOM     10  C   UNL     1       7.757   4.577  12.515  0.00  0.00    +0.000 A 
ATOM     11  C   UNL     1       7.084   4.930  13.689  0.00  0.00    +0.000 A 
ENDBRANCH   3   6
BRANCH   5  12
ATOM     12  C   UNL     1       3.360   3.774  18.102  0.00  0.00    +0.000 A 
ATOM     13  C   UNL     1       4.012   3.474  19.305  0.00  0.00    +0.000 A 
ATOM     14  C   UNL     1       3.335   2.817  20.329  0.00  0.00    +0.000 A 
ATOM     15  C   UNL     1       2.019   2.451  20.113  0.00  0.00    +0.000 A 
ATOM     16  N   UNL     1       1.355   2.693  18.964  0.00  0.00    +0.000 NA
ATOM     17  C   UNL     1       2.041   3.347  17.987  0.00  0.00    +0.000 A 
ENDBRANCH   5  12
BRANCH   1  19
ATOM     18  N   UNL     1       2.702   6.950  18.189  0.00  0.00    +0.000 N 
ATOM     19  C   UNL     1       4.037   6.937  17.824  0.00  0.00    +0.000 C 
ATOM     20  O   UNL     1       4.881   7.750  18.168  0.00  0.00    +0.000 OA
ATOM     21  H   UNL     1       2.121   6.205  17.827  0.00  0.00    +0.000 HD
BRANCH  18  25
ATOM     22  C   UNL     1       0.723   9.795  20.583  0.00  0.00    +0.000 A 
ATOM     23  C   UNL     1       0.939  10.086  19.239  0.00  0.00    +0.000 A 
ATOM     24  C   UNL     1       1.598   9.156  18.431  0.00  0.00    +0.000 A 
ATOM     25  C   UNL     1       2.048   7.938  18.956  0.00  0.00    +0.000 A 
ATOM     26  C   UNL     1       1.829   7.663  20.311  0.00  0.00    +0.000 A 
ATOM     27  C   UNL     1       1.176   8.591  21.128  0.00  0.00    +0.000 A 
BRANCH  22  28
ATOM     28  S   UNL     1      -0.084  10.972  21.626  0.00  0.00    +0.000 S 
ATOM     29  O   UNL     1       0.007  10.535  23.000  0.00  0.00    +0.000 OA
ATOM     30  O   UNL     1      -1.333  11.362  21.018  0.00  0.00    +0.000 OA
BRANCH  28  31
ATOM     31  N   UNL     1       0.930  12.301  21.488  0.00  0.00    +0.000 NA
ATOM     32  H   UNL     1       0.623  13.031  22.133  0.00  0.00    +0.000 HD
ATOM     33  H   UNL     1       0.980  12.606  20.517  0.00  0.00    +0.000 HD
ENDBRANCH  28  31
ENDBRANCH  22  28
ENDBRANCH  18  25
ENDBRANCH   1  19
TORSDOF 6
ENDMDL
MODEL 7
REMARK VINA RESULT:      -8.0      0.823      1.182
REMARK  Name = 
REMARK  6 active torsions:
REMARK  status: ('A' for Active; 'I' for Inactive)
REMARK    1  A    between atoms: N_1  and  S_2
REMARK    2  A    between atoms: S_2  and  C_5
REMARK    3  A    between atoms: C_8  and  N_9
REMARK    4  A    between atoms: C_10  and  C_12
REMARK    5  A    between atoms: N_14  and  C_15
REMARK    6  A    between atoms: C_22  and  C_23
REMARK                            x       y       z     vdW  Elec       q    Type
REMARK                         _______ _______ _______ _____ _____    ______ ____
ROOT
ATOM      1  C   UNL     1       4.437   5.799  16.913  0.00  0.00    +0.000 A 
ATOM      2  C   UNL     1       5.155   5.926  15.744  0.00  0.00    +0.000 A 
ATOM      3  N   UNL     1       5.207   4.684  15.158  0.00  0.00    +0.000 N 
ATOM      4  N   UNL     1       4.530   3.766  15.891  0.00  0.00    +0.000 NA
ATOM      5  C   UNL     1       4.097   4.416  16.985  0.00  0.00    +0.000 A 
ENDROOT
BRANCH   3   6
ATOM      6  C   UNL     1       5.887   4.327  13.959  0.00  0.00    +0.000 A 
ATOM      7  C   UNL     1       5.366   3.349  13.097  0.00  0.00    +0.000 A 
ATOM      8  C   UNL     1       6.032   3.028  11.912  0.00  0.00    +0.000 A 
ATOM      9  C   UNL     1       7.222   3.670  11.584  0.00  0.00    +0.000 A 
ATOM     10  C   UNL     1       7.751   4.638  12.437  0.00  0.00    +0.000 A 
ATOM     11  C   UNL     1       7.086   4.970  13.622  0.00  0.00    +0.000 A 
ENDBRANCH   3   6
BRANCH   5  12
ATOM     12  C   UNL     1       3.427   3.698  18.071  0.00  0.00    +0.000 A 
ATOM     13  C   UNL     1       4.066   3.444  19.291  0.00  0.00    +0.000 A 
ATOM     14  C   UNL     1       3.399   2.767  20.309  0.00  0.00    +0.000 A 
ATOM     15  C   UNL     1       2.107   2.337  20.071  0.00  0.00    +0.000 A 
ATOM     16  N   UNL     1       1.457   2.534  18.905  0.00  0.00    +0.000 NA
ATOM     17  C   UNL     1       2.132   3.208  17.934  0.00  0.00    +0.000 A 
ENDBRANCH   5  12
BRANCH   1  19
ATOM     18  N   UNL     1       2.759   6.872  18.211  0.00  0.00    +0.000 N 
ATOM     19  C   UNL     1       4.092   6.867  17.837  0.00  0.00    +0.000 C 
ATOM     20  O   UNL     1       4.936   7.677  18.187  0.00  0.00    +0.000 OA
ATOM     21  H   UNL     1       2.178   6.131  17.841  0.00  0.00    +0.000 HD
BRANCH  18  25
ATOM     22  C   UNL     1       0.849   9.884  20.452  0.00  0.00    +0.000 A 
ATOM     23  C   UNL     1       1.191   8.693  21.087  0.00  0.00    +0.000 A 
ATOM     24  C   UNL     1       1.822   7.681  20.358  0.00  0.00    +0.000 A 
ATOM     25  C   UNL     1       2.109   7.846  18.998  0.00  0.00    +0.000 A 
ATOM     26  C   UNL     1       1.752   9.047  18.371  0.00  0.00    +0.000 A 
ATOM     27  C   UNL     1       1.115  10.062  19.092  0.00  0.00    +0.000 A 
BRANCH  22  28
ATOM     28  S   UNL     1       0.027  11.163  21.352  0.00  0.00    +0.000 S 
ATOM     29  O   UNL     1      -1.334  11.280  20.880  0.00  0.00    +0.000 OA
ATOM     30  O   UNL     1       0.907  12.300  21.467  0.00  0.00    +0.000 OA
BRANCH  28  31
ATOM     31  N   UNL     1      -0.066  10.494  22.888  0.00  0.00    +0.000 NA
ATOM     32  H   UNL     1      -0.075  11.241  23.584  0.00  0.00    +0.000 HD
ATOM     33  H   UNL     1       0.685   9.817  23.022  0.00  0.00    +0.000 HD
ENDBRANCH  28  31
ENDBRANCH  22  28
ENDBRANCH  18  25
ENDBRANCH   1  19
TORSDOF 6
ENDMDL
MODEL 8
REMARK VINA RESULT:      -7.9      0.508      1.242
REMARK  Name = 
REMARK  6 active torsions:
REMARK  status: ('A' for Active; 'I' for Inactive)
REMARK    1  A    between atoms: N_1  and  S_2
REMARK    2  A    between atoms: S_2  and  C_5
REMARK    3  A    between atoms: C_8  and  N_9
REMARK    4  A    between atoms: C_10  and  C_12
REMARK    5  A    between atoms: N_14  and  C_15
REMARK    6  A    between atoms: C_22  and  C_23
REMARK                            x       y       z     vdW  Elec       q    Type
REMARK                         _______ _______ _______ _____ _____    ______ ____
ROOT
ATOM      1  C   UNL     1       4.408   5.794  16.940  0.00  0.00    +0.000 A 
ATOM      2  C   UNL     1       5.132   5.941  15.778  0.00  0.00    +0.000 A 
ATOM      3  N   UNL     1       5.186   4.708  15.172  0.00  0.00    +0.000 N 
ATOM      4  N   UNL     1       4.505   3.779  15.885  0.00  0.00    +0.000 NA
ATOM      5  C   UNL     1       4.067   4.410  16.988  0.00  0.00    +0.000 A 
ENDROOT
BRANCH   3   6
ATOM      6  C   UNL     1       5.873   4.371  13.971  0.00  0.00    +0.000 A 
ATOM      7  C   UNL     1       7.103   4.966  13.651  0.00  0.00    +0.000 A 
ATOM      8  C   UNL     1       7.777   4.607  12.482  0.00  0.00    +0.000 A 
ATOM      9  C   UNL     1       7.227   3.660  11.622  0.00  0.00    +0.000 A 
ATOM     10  C   UNL     1       6.003   3.068  11.928  0.00  0.00    +0.000 A 
ATOM     11  C   UNL     1       5.325   3.418  13.100  0.00  0.00    +0.000 A 
ENDBRANCH   3   6
BRANCH   5  12
ATOM     12  C   UNL     1       3.390   3.675  18.058  0.00  0.00    +0.000 A 
ATOM     13  C   UNL     1       4.014   3.421  19.286  0.00  0.00    +0.000 A 
ATOM     14  C   UNL     1       3.341   2.728  20.289  0.00  0.00    +0.000 A 
ATOM     15  C   UNL     1       2.059   2.279  20.026  0.00  0.00    +0.000 A 
ATOM     16  N   UNL     1       1.425   2.475  18.852  0.00  0.00    +0.000 NA
ATOM     17  C   UNL     1       2.105   3.166  17.896  0.00  0.00    +0.000 A 
ENDBRANCH   5  12
BRANCH   1  19
ATOM     18  N   UNL     1       2.727   6.836  18.260  0.00  0.00    +0.000 N 
ATOM     19  C   UNL     1       4.058   6.847  17.881  0.00  0.00    +0.000 C 
ATOM     20  O   UNL     1       4.898   7.659  18.239  0.00  0.00    +0.000 OA
ATOM     21  H   UNL     1       2.150   6.096  17.882  0.00  0.00    +0.000 HD
BRANCH  18  25
ATOM     22  C   UNL     1       0.798   9.801  20.547  0.00  0.00    +0.000 A 
ATOM     23  C   UNL     1       1.198   8.625  21.177  0.00  0.00    +0.000 A 
ATOM     24  C   UNL     1       1.836   7.629  20.432  0.00  0.00    +0.000 A 
ATOM     25  C   UNL     1       2.072   7.794  19.063  0.00  0.00    +0.000 A 
ATOM     26  C   UNL     1       1.657   8.980  18.442  0.00  0.00    +0.000 A 
ATOM     27  C   UNL     1       1.013   9.979  19.178  0.00  0.00    +0.000 A 
BRANCH  22  28
ATOM     28  S   UNL     1      -0.035  11.059  21.467  0.00  0.00    +0.000 S 
ATOM     29  O   UNL     1      -0.009  10.721  22.872  0.00  0.00    +0.000 OA
ATOM     30  O   UNL     1      -1.251  11.419  20.779  0.00  0.00    +0.000 OA
BRANCH  28  31
ATOM     31  N   UNL     1       1.004  12.363  21.280  0.00  0.00    +0.000 NA
ATOM     32  H   UNL     1       0.670  13.147  21.841  0.00  0.00    +0.000 HD
ATOM     33  H   UNL     1       1.116  12.584  20.291  0.00  0.00    +0.000 HD
ENDBRANCH  28  31
ENDBRANCH  22  28
ENDBRANCH  18  25
ENDBRANCH   1  19
TORSDOF 6
ENDMDL
MODEL 9
REMARK VINA RESULT:      -7.9      4.121      9.910
REMARK  Name = 
REMARK  6 active torsions:
REMARK  status: ('A' for Active; 'I' for Inactive)
REMARK    1  A    between atoms: N_1  and  S_2
REMARK    2  A    between atoms: S_2  and  C_5
REMARK    3  A    between atoms: C_8  and  N_9
REMARK    4  A    between atoms: C_10  and  C_12
REMARK    5  A    between atoms: N_14  and  C_15
REMARK    6  A    between atoms: C_22  and  C_23
REMARK                            x       y       z     vdW  Elec       q    Type
REMARK                         _______ _______ _______ _____ _____    ______ ____
ROOT
ATOM      1  C   UNL     1       0.041  10.475  19.274  0.00  0.00    +0.000 A 
ATOM      2  C   UNL     1      -1.291  10.229  19.028  0.00  0.00    +0.000 A 
ATOM      3  N   UNL     1      -1.866  11.421  18.657  0.00  0.00    +0.000 N 
ATOM      4  N   UNL     1      -0.951  12.420  18.630  0.00  0.00    +0.000 NA
ATOM      5  C   UNL     1       0.204  11.873  19.049  0.00  0.00    +0.000 A 
ENDROOT
BRANCH   3   6
ATOM      6  C   UNL     1      -3.238  11.657  18.356  0.00  0.00    +0.000 A 
ATOM      7  C   UNL     1      -4.100  12.218  19.312  0.00  0.00    +0.000 A 
ATOM      8  C   UNL     1      -5.437  12.466  18.993  0.00  0.00    +0.000 A 
ATOM      9  C   UNL     1      -5.924  12.152  17.728  0.00  0.00    +0.000 A 
ATOM     10  C   UNL     1      -5.076  11.589  16.775  0.00  0.00    +0.000 A 
ATOM     11  C   UNL     1      -3.735  11.344  17.083  0.00  0.00    +0.000 A 
ENDBRANCH   3   6
BRANCH   5  12
ATOM     12  C   UNL     1       1.393  12.699  19.266  0.00  0.00    +0.000 A 
ATOM     13  C   UNL     1       1.747  13.160  20.539  0.00  0.00    +0.000 A 
ATOM     14  C   UNL     1       2.891  13.935  20.716  0.00  0.00    +0.000 A 
ATOM     15  C   UNL     1       3.643  14.254  19.601  0.00  0.00    +0.000 A 
ATOM     16  N   UNL     1       3.330  13.857  18.350  0.00  0.00    +0.000 NA
ATOM     17  C   UNL     1       2.214  13.091  18.212  0.00  0.00    +0.000 A 
ENDBRANCH   5  12
BRANCH   1  19
ATOM     18  N   UNL     1       1.542   8.765  18.583  0.00  0.00    +0.000 N 
ATOM     19  C   UNL     1       1.047   9.494  19.650  0.00  0.00    +0.000 C 
ATOM     20  O   UNL     1       1.360   9.349  20.822  0.00  0.00    +0.000 OA
ATOM     21  H   UNL     1       1.189   9.001  17.665  0.00  0.00    +0.000 HD
BRANCH  18  25
ATOM     22  C   UNL     1       4.242   5.532  18.638  0.00  0.00    +0.000 A 
ATOM     23  C   UNL     1       3.278   5.616  19.640  0.00  0.00    +0.000 A 
ATOM     24  C   UNL     1       2.377   6.684  19.639  0.00  0.00    +0.000 A 
ATOM     25  C   UNL     1       2.434   7.673  18.650  0.00  0.00    +0.000 A 
ATOM     26  C   UNL     1       3.414   7.579  17.654  0.00  0.00    +0.000 A 
ATOM     27  C   UNL     1       4.323   6.517  17.650  0.00  0.00    +0.000 A 
BRANCH  22  28
ATOM     28  S   UNL     1       5.407   4.204  18.640  0.00  0.00    +0.000 S 
ATOM     29  O   UNL     1       4.968   3.183  19.564  0.00  0.00    +0.000 OA
ATOM     30  O   UNL     1       6.743   4.748  18.665  0.00  0.00    +0.000 OA
BRANCH  28  31
ATOM     31  N   UNL     1       5.198   3.565  17.103  0.00  0.00    +0.000 NA
ATOM     32  H   UNL     1       6.110   3.351  16.697  0.00  0.00    +0.000 HD
ATOM     33  H   UNL     1       4.634   4.196  16.534  0.00  0.00    +0.000 HD
ENDBRANCH  28  31
ENDBRANCH  22  28
ENDBRANCH  18  25
ENDBRANCH   1  19
TORSDOF 6
ENDMDL
