MODEL 1
REMARK VINA RESULT:      -8.7      0.000      0.000
REMARK  Name = 
REMARK  4 active torsions:
REMARK  status: ('A' for Active; 'I' for Inactive)
REMARK    1  A    between atoms: C_1  and  N_2
REMARK    2  A    between atoms: C_4  and  C_5
REMARK    3  A    between atoms: N_7  and  C_8
REMARK    4  A    between atoms: C_12  and  N_13
REMARK                            x       y       z     vdW  Elec       q    Type
REMARK                         _______ _______ _______ _____ _____    ______ ____
ROOT
ATOM      1  C   UNL     1       2.022   7.928  18.973  0.00  0.00    +0.000 C 
ATOM      2  O   UNL     1       1.869   8.128  20.168  0.00  0.00    +0.000 OA
ATOM      3  N   UNL     1       1.485   8.688  17.942  0.00  0.00    +0.000 N 
ATOM      4  H   UNL     1       1.399   8.220  17.044  0.00  0.00    +0.000 HD
ENDROOT
BRANCH   1   8
ATOM      5  C   UNL     1       5.269   5.926  16.036  0.00  0.00    +0.000 C 
ATOM      6  N   UNL     1       4.379   5.739  17.166  0.00  0.00    +0.000 N 
ATOM      7  N   UNL     1       3.697   6.845  17.621  0.00  0.00    +0.000 NA
ATOM      8  C   UNL     1       2.801   6.683  18.552  0.00  0.00    +0.000 A 
ATOM      9  C   UNL     1       2.485   5.369  19.167  0.00  0.00    +0.000 A 
ATOM     10  C   UNL     1       1.503   5.170  20.150  0.00  0.00    +0.000 A 
ATOM     11  C   UNL     1       1.219   3.885  20.630  0.00  0.00    +0.000 A 
ATOM     12  C   UNL     1       1.935   2.790  20.160  0.00  0.00    +0.000 A 
ATOM     13  C   UNL     1       2.924   2.981  19.201  0.00  0.00    +0.000 A 
ATOM     14  C   UNL     1       3.194   4.267  18.701  0.00  0.00    +0.000 A 
ATOM     15  C   UNL     1       4.208   4.444  17.650  0.00  0.00    +0.000 A 
ATOM     16  O   UNL     1       4.832   3.469  17.239  0.00  0.00    +0.000 OA
ENDBRANCH   1   8
BRANCH   3  17
ATOM     17  C   UNL     1       0.806   9.914  18.161  0.00  0.00    +0.000 A 
ATOM     18  C   UNL     1       1.476  11.020  18.696  0.00  0.00    +0.000 A 
ATOM     19  C   UNL     1       0.792  12.192  18.983  0.00  0.00    +0.000 A 
ATOM     20  C   UNL     1      -0.570  12.284  18.719  0.00  0.00    +0.000 A 
ATOM     21  C   UNL     1      -1.276  11.220  18.143  0.00  0.00    +0.000 A 
ATOM     22  C   UNL     1      -0.560  10.034  17.852  0.00  0.00    +0.000 A 
BRANCH  21  23
ATOM     23  N   UNL     1      -2.678  11.336  17.897  0.00  0.00    +0.000 N 
ATOM     24  C   UNL     1      -3.614  11.796  18.893  0.00  0.00    +0.000 C 
ATOM     25  C   UNL     1      -4.975  11.477  18.308  0.00  0.00    +0.000 C 
ATOM     26  C   UNL     1      -4.759  11.598  16.815  0.00  0.00    +0.000 C 
ATOM     27  C   UNL     1      -3.310  11.218  16.644  0.00  0.00    +0.000 C 
ATOM     28  O   UNL     1      -2.844  10.898  15.561  0.00  0.00    +0.000 OA
ENDBRANCH  21  23
ENDBRANCH   3  17
TORSDOF 3
ENDMDL
MODEL 2
REMARK VINA RESULT:      -8.7      2.689      3.856
REMARK  Name = 
REMARK  4 active torsions:
REMARK  status: ('A' for Active; 'I' for Inactive)
REMARK    1  A    between atoms: C_1  and  N_2
REMARK    2  A    between atoms: C_4  and  C_5
REMARK    3  A    between atoms: N_7  and  C_8
REMARK    4  A    between atoms: C_12  and  N_13
REMARK                            x       y       z     vdW  Elec       q    Type
REMARK                         _______ _______ _______ _____ _____    ______ ____
ROOT
ATOM      1  C   UNL     1       2.195   7.258  19.307  0.00  0.00    +0.000 C 
ATOM      2  O   UNL     1       2.317   7.459  20.506  0.00  0.00    +0.000 OA
ATOM      3  N   UNL     1       1.713   8.165  18.373  0.00  0.00    +0.000 N 
ATOM      4  H   UNL     1       1.344   7.764  17.515  0.00  0.00    +0.000 HD
ENDROOT
BRANCH   1   8
ATOM      5  C   UNL     1       1.544   2.502  19.666  0.00  0.00    +0.000 C 
ATOM      6  N   UNL     1       2.173   3.587  18.938  0.00  0.00    +0.000 N 
ATOM      7  N   UNL     1       1.871   4.870  19.336  0.00  0.00    +0.000 NA
ATOM      8  C   UNL     1       2.513   5.860  18.783  0.00  0.00    +0.000 A 
ATOM      9  C   UNL     1       3.545   5.681  17.729  0.00  0.00    +0.000 A 
ATOM     10  C   UNL     1       4.268   6.732  17.142  0.00  0.00    +0.000 A 
ATOM     11  C   UNL     1       5.273   6.472  16.203  0.00  0.00    +0.000 A 
ATOM     12  C   UNL     1       5.544   5.166  15.812  0.00  0.00    +0.000 A 
ATOM     13  C   UNL     1       4.818   4.121  16.372  0.00  0.00    +0.000 A 
ATOM     14  C   UNL     1       3.825   4.377  17.334  0.00  0.00    +0.000 A 
ATOM     15  C   UNL     1       3.102   3.257  17.954  0.00  0.00    +0.000 A 
ATOM     16  O   UNL     1       3.351   2.106  17.605  0.00  0.00    +0.000 OA
ENDBRANCH   1   8
BRANCH   3  17
ATOM     17  C   UNL     1       1.448   9.524  18.682  0.00  0.00    +0.000 A 
ATOM     18  C   UNL     1       2.149  10.555  18.046  0.00  0.00    +0.000 A 
ATOM     19  C   UNL     1       1.945  11.878  18.406  0.00  0.00    +0.000 A 
ATOM     20  C   UNL     1       1.019  12.194  19.395  0.00  0.00    +0.000 A 
ATOM     21  C   UNL     1       0.261  11.202  20.029  0.00  0.00    +0.000 A 
ATOM     22  C   UNL     1       0.479   9.857  19.645  0.00  0.00    +0.000 A 
BRANCH  21  23
ATOM     23  N   UNL     1      -0.672  11.552  21.052  0.00  0.00    +0.000 N 
ATOM     24  C   UNL     1      -1.910  12.240  20.781  0.00  0.00    +0.000 C 
ATOM     25  C   UNL     1      -2.416  12.659  22.147  0.00  0.00    +0.000 C 
ATOM     26  C   UNL     1      -1.902  11.572  23.067  0.00  0.00    +0.000 C 
ATOM     27  C   UNL     1      -0.629  11.125  22.393  0.00  0.00    +0.000 C 
ATOM     28  O   UNL     1       0.229  10.483  22.981  0.00  0.00    +0.000 OA
ENDBRANCH  21  23
ENDBRANCH   3  17
TORSDOF 3
ENDMDL
MODEL 3
REMARK VINA RESULT:      -8.7      2.976      8.498
REMARK  Name = 
REMARK  4 active torsions:
REMARK  status: ('A' for Active; 'I' for Inactive)
REMARK    1  A    between atoms: C_1  and  N_2
REMARK    2  A    between atoms: C_4  and  C_5
REMARK    3  A    between atoms: N_7  and  C_8
REMARK    4  A    between atoms: C_12  and  N_13
REMARK                            x       y       z     vdW  Elec       q    Type
REMARK                         _______ _______ _______ _____ _____    ______ ____
ROOT
ATOM      1  C   UNL     1       1.667   8.477  19.016  0.00  0.00    +0.000 C 
ATOM      2  O   UNL     1       1.609   8.201  17.828  0.00  0.00    +0.000 OA
ATOM      3  N   UNL     1       2.023   7.608  20.039  0.00  0.00    +0.000 N 
ATOM      4  H   UNL     1       1.695   7.858  20.968  0.00  0.00    +0.000 HD
ENDROOT
BRANCH   1   8
ATOM      5  C   UNL     1       1.826  13.229  18.271  0.00  0.00    +0.000 C 
ATOM      6  N   UNL     1       1.281  12.145  19.065  0.00  0.00    +0.000 N 
ATOM      7  N   UNL     1       1.601  10.862  18.682  0.00  0.00    +0.000 NA
ATOM      8  C   UNL     1       1.228   9.874  19.446  0.00  0.00    +0.000 A 
ATOM      9  C   UNL     1       0.458  10.055  20.703  0.00  0.00    +0.000 A 
ATOM     10  C   UNL     1       0.072   9.007  21.554  0.00  0.00    +0.000 A 
ATOM     11  C   UNL     1      -0.594   9.270  22.757  0.00  0.00    +0.000 A 
ATOM     12  C   UNL     1      -0.914  10.576  23.108  0.00  0.00    +0.000 A 
ATOM     13  C   UNL     1      -0.555  11.619  22.261  0.00  0.00    +0.000 A 
ATOM     14  C   UNL     1       0.136  11.359  21.064  0.00  0.00    +0.000 A 
ATOM     15  C   UNL     1       0.553  12.477  20.205  0.00  0.00    +0.000 A 
ATOM     16  O   UNL     1       0.269  13.629  20.526  0.00  0.00    +0.000 OA
ENDBRANCH   1   8
BRANCH   3  17
ATOM     17  C   UNL     1       2.530   6.304  19.803  0.00  0.00    +0.000 A 
ATOM     18  C   UNL     1       2.065   5.209  20.539  0.00  0.00    +0.000 A 
ATOM     19  C   UNL     1       2.618   3.949  20.361  0.00  0.00    +0.000 A 
ATOM     20  C   UNL     1       3.633   3.761  19.429  0.00  0.00    +0.000 A 
ATOM     21  C   UNL     1       4.102   4.817  18.637  0.00  0.00    +0.000 A 
ATOM     22  C   UNL     1       3.521   6.094  18.828  0.00  0.00    +0.000 A 
BRANCH  21  23
ATOM     23  N   UNL     1       5.155   4.600  17.698  0.00  0.00    +0.000 N 
ATOM     24  C   UNL     1       4.927   4.473  16.279  0.00  0.00    +0.000 C 
ATOM     25  C   UNL     1       6.244   3.966  15.729  0.00  0.00    +0.000 C 
ATOM     26  C   UNL     1       7.275   4.565  16.661  0.00  0.00    +0.000 C 
ATOM     27  C   UNL     1       6.535   4.672  17.970  0.00  0.00    +0.000 C 
ATOM     28  O   UNL     1       7.114   4.820  19.036  0.00  0.00    +0.000 OA
ENDBRANCH  21  23
ENDBRANCH   3  17
TORSDOF 3
ENDMDL
MODEL 4
REMARK VINA RESULT:      -8.5      2.396      3.818
REMARK  Name = 
REMARK  4 active torsions:
REMARK  status: ('A' for Active; 'I' for Inactive)
REMARK    1  A    between atoms: C_1  and  N_2
REMARK    2  A    between atoms: C_4  and  C_5
REMARK    3  A    between atoms: N_7  and  C_8
REMARK    4  A    between atoms: C_12  and  N_13
REMARK                            x       y       z     vdW  Elec       q    Type
REMARK                         _______ _______ _______ _____ _____    ______ ____
ROOT
ATOM      1  C   UNL     1       2.398   7.532  18.618  0.00  0.00    +0.000 C 
ATOM      2  O   UNL     1       2.245   7.555  19.829  0.00  0.00    +0.000 OA
ATOM      3  N   UNL     1       1.870   8.441  17.711  0.00  0.00    +0.000 N 
ATOM      4  H   UNL     1       1.781   8.112  16.754  0.00  0.00    +0.000 HD
ENDROOT
BRANCH   1   8
ATOM      5  C   UNL     1       5.990   5.987  15.810  0.00  0.00    +0.000 C 
ATOM      6  N   UNL     1       4.904   5.621  16.700  0.00  0.00    +0.000 N 
ATOM      7  N   UNL     1       4.219   6.647  17.312  0.00  0.00    +0.000 NA
ATOM      8  C   UNL     1       3.164   6.355  18.018  0.00  0.00    +0.000 A 
ATOM      9  C   UNL     1       2.667   4.969  18.215  0.00  0.00    +0.000 A 
ATOM     10  C   UNL     1       1.517   4.637  18.948  0.00  0.00    +0.000 A 
ATOM     11  C   UNL     1       1.077   3.310  19.029  0.00  0.00    +0.000 A 
ATOM     12  C   UNL     1       1.799   2.296  18.411  0.00  0.00    +0.000 A 
ATOM     13  C   UNL     1       2.952   2.613  17.701  0.00  0.00    +0.000 A 
ATOM     14  C   UNL     1       3.381   3.948  17.598  0.00  0.00    +0.000 A 
ATOM     15  C   UNL     1       4.574   4.272  16.801  0.00  0.00    +0.000 A 
ATOM     16  O   UNL     1       5.203   3.369  16.255  0.00  0.00    +0.000 OA
ENDBRANCH   1   8
BRANCH   3  17
ATOM     17  C   UNL     1       1.204   9.629  18.109  0.00  0.00    +0.000 A 
ATOM     18  C   UNL     1      -0.193   9.702  18.111  0.00  0.00    +0.000 A 
ATOM     19  C   UNL     1      -0.841  10.888  18.424  0.00  0.00    +0.000 A 
ATOM     20  C   UNL     1      -0.100  12.016  18.761  0.00  0.00    +0.000 A 
ATOM     21  C   UNL     1       1.299  11.981  18.816  0.00  0.00    +0.000 A 
ATOM     22  C   UNL     1       1.943  10.760  18.499  0.00  0.00    +0.000 A 
BRANCH  21  23
ATOM     23  N   UNL     1       2.036  13.157  19.150  0.00  0.00    +0.000 N 
ATOM     24  C   UNL     1       2.623  14.023  18.157  0.00  0.00    +0.000 C 
ATOM     25  C   UNL     1       3.534  14.941  18.947  0.00  0.00    +0.000 C 
ATOM     26  C   UNL     1       2.843  15.062  20.288  0.00  0.00    +0.000 C 
ATOM     27  C   UNL     1       2.131  13.740  20.429  0.00  0.00    +0.000 C 
ATOM     28  O   UNL     1       1.718  13.332  21.505  0.00  0.00    +0.000 OA
ENDBRANCH  21  23
ENDBRANCH   3  17
TORSDOF 3
ENDMDL
MODEL 5
REMARK VINA RESULT:      -8.5      2.179      8.654
REMARK  Name = 
REMARK  4 active torsions:
REMARK  status: ('A' for Active; 'I' for Inactive)
REMARK    1  A    between atoms: C_1  and  N_2
REMARK    2  A    between atoms: C_4  and  C_5
REMARK    3  A    between atoms: N_7  and  C_8
REMARK    4  A    between atoms: C_12  and  N_13
REMARK                            x       y       z     vdW  Elec       q    Type
REMARK                         _______ _______ _______ _____ _____    ______ ____
ROOT
ATOM      1  C   UNL     1       1.644   9.052  18.440  0.00  0.00    +0.000 C 
ATOM      2  O   UNL     1       2.025   8.699  17.334  0.00  0.00    +0.000 OA
ATOM      3  N   UNL     1       1.636   8.271  19.588  0.00  0.00    +0.000 N 
ATOM      4  H   UNL     1       0.989   8.561  20.316  0.00  0.00    +0.000 HD
ENDROOT
BRANCH   1   8
ATOM      5  C   UNL     1       2.199  13.648  19.759  0.00  0.00    +0.000 C 
ATOM      6  N   UNL     1       1.321  12.653  19.175  0.00  0.00    +0.000 N 
ATOM      7  N   UNL     1       1.839  11.392  18.980  0.00  0.00    +0.000 NA
ATOM      8  C   UNL     1       1.039  10.448  18.573  0.00  0.00    +0.000 A 
ATOM      9  C   UNL     1      -0.403  10.660  18.289  0.00  0.00    +0.000 A 
ATOM     10  C   UNL     1      -1.286   9.649  17.878  0.00  0.00    +0.000 A 
ATOM     11  C   UNL     1      -2.649   9.919  17.696  0.00  0.00    +0.000 A 
ATOM     12  C   UNL     1      -3.138  11.206  17.888  0.00  0.00    +0.000 A 
ATOM     13  C   UNL     1      -2.266  12.217  18.275  0.00  0.00    +0.000 A 
ATOM     14  C   UNL     1      -0.903  11.944  18.482  0.00  0.00    +0.000 A 
ATOM     15  C   UNL     1      -0.004  13.014  18.940  0.00  0.00    +0.000 A 
ATOM     16  O   UNL     1      -0.447  14.147  19.110  0.00  0.00    +0.000 OA
ENDBRANCH   1   8
BRANCH   3  17
ATOM     17  C   UNL     1       2.233   6.985  19.651  0.00  0.00    +0.000 A 
ATOM     18  C   UNL     1       1.715   5.995  20.493  0.00  0.00    +0.000 A 
ATOM     19  C   UNL     1       2.347   4.766  20.613  0.00  0.00    +0.000 A 
ATOM     20  C   UNL     1       3.495   4.500  19.875  0.00  0.00    +0.000 A 
ATOM     21  C   UNL     1       4.026   5.443  18.986  0.00  0.00    +0.000 A 
ATOM     22  C   UNL     1       3.365   6.690  18.872  0.00  0.00    +0.000 A 
BRANCH  21  23
ATOM     23  N   UNL     1       5.215   5.150  18.252  0.00  0.00    +0.000 N 
ATOM     24  C   UNL     1       5.224   4.941  16.824  0.00  0.00    +0.000 C 
ATOM     25  C   UNL     1       6.601   4.378  16.534  0.00  0.00    +0.000 C 
ATOM     26  C   UNL     1       7.478   5.015  17.590  0.00  0.00    +0.000 C 
ATOM     27  C   UNL     1       6.532   5.215  18.748  0.00  0.00    +0.000 C 
ATOM     28  O   UNL     1       6.928   5.418  19.886  0.00  0.00    +0.000 OA
ENDBRANCH  21  23
ENDBRANCH   3  17
TORSDOF 3
ENDMDL
MODEL 6
REMARK VINA RESULT:      -8.5      1.406      2.753
REMARK  Name = 
REMARK  4 active torsions:
REMARK  status: ('A' for Active; 'I' for Inactive)
REMARK    1  A    between atoms: C_1  and  N_2
REMARK    2  A    between atoms: C_4  and  C_5
REMARK    3  A    between atoms: N_7  and  C_8
REMARK    4  A    between atoms: C_12  and  N_13
REMARK                            x       y       z     vdW  Elec       q    Type
REMARK                         _______ _______ _______ _____ _____    ______ ____
ROOT
ATOM      1  C   UNL     1       2.215   8.233  18.177  0.00  0.00    +0.000 C 
ATOM      2  O   UNL     1       2.575   8.712  17.112  0.00  0.00    +0.000 OA
ATOM      3  N   UNL     1       1.407   8.856  19.120  0.00  0.00    +0.000 N 
ATOM      4  H   UNL     1       1.481   8.502  20.070  0.00  0.00    +0.000 HD
ENDROOT
BRANCH   1   8
ATOM      5  C   UNL     1       2.158   4.513  21.231  0.00  0.00    +0.000 C 
ATOM      6  N   UNL     1       2.707   5.070  20.010  0.00  0.00    +0.000 N 
ATOM      7  N   UNL     1       2.204   6.279  19.587  0.00  0.00    +0.000 NA
ATOM      8  C   UNL     1       2.762   6.861  18.564  0.00  0.00    +0.000 A 
ATOM      9  C   UNL     1       3.905   6.281  17.813  0.00  0.00    +0.000 A 
ATOM     10  C   UNL     1       4.537   6.906  16.727  0.00  0.00    +0.000 A 
ATOM     11  C   UNL     1       5.654   6.321  16.115  0.00  0.00    +0.000 A 
ATOM     12  C   UNL     1       6.129   5.092  16.557  0.00  0.00    +0.000 A 
ATOM     13  C   UNL     1       5.495   4.456  17.619  0.00  0.00    +0.000 A 
ATOM     14  C   UNL     1       4.389   5.053  18.250  0.00  0.00    +0.000 A 
ATOM     15  C   UNL     1       3.762   4.391  19.404  0.00  0.00    +0.000 A 
ATOM     16  O   UNL     1       4.191   3.307  19.789  0.00  0.00    +0.000 OA
ENDBRANCH   1   8
BRANCH   3  17
ATOM     17  C   UNL     1       0.756  10.094  18.882  0.00  0.00    +0.000 A 
ATOM     18  C   UNL     1       1.425  11.306  19.082  0.00  0.00    +0.000 A 
ATOM     19  C   UNL     1       0.762  12.515  18.925  0.00  0.00    +0.000 A 
ATOM     20  C   UNL     1      -0.576  12.530  18.545  0.00  0.00    +0.000 A 
ATOM     21  C   UNL     1      -1.275  11.344  18.290  0.00  0.00    +0.000 A 
ATOM     22  C   UNL     1      -0.581  10.120  18.450  0.00  0.00    +0.000 A 
BRANCH  21  23
ATOM     23  N   UNL     1      -2.652  11.387  17.915  0.00  0.00    +0.000 N 
ATOM     24  C   UNL     1      -3.696  11.818  18.813  0.00  0.00    +0.000 C 
ATOM     25  C   UNL     1      -4.982  11.423  18.115  0.00  0.00    +0.000 C 
ATOM     26  C   UNL     1      -4.637  11.528  16.645  0.00  0.00    +0.000 C 
ATOM     27  C   UNL     1      -3.162  11.216  16.614  0.00  0.00    +0.000 C 
ATOM     28  O   UNL     1      -2.584  10.899  15.584  0.00  0.00    +0.000 OA
ENDBRANCH  21  23
ENDBRANCH   3  17
TORSDOF 3
ENDMDL
MODEL 7
REMARK VINA RESULT:      -8.4      1.018      1.264
REMARK  Name = 
REMARK  4 active torsions:
REMARK  status: ('A' for Active; 'I' for Inactive)
REMARK    1  A    between atoms: C_1  and  N_2
REMARK    2  A    between atoms: C_4  and  C_5
REMARK    3  A    between atoms: N_7  and  C_8
REMARK    4  A    between atoms: C_12  and  N_13
REMARK                            x       y       z     vdW  Elec       q    Type
REMARK                         _______ _______ _______ _____ _____    ______ ____
ROOT
ATOM      1  C   UNL     1       2.092   7.833  18.939  0.00  0.00    +0.000 C 
ATOM      2  O   UNL     1       1.936   8.010  20.137  0.00  0.00    +0.000 OA
ATOM      3  N   UNL     1       1.619   8.654  17.924  0.00  0.00    +0.000 N 
ATOM      4  H   UNL     1       1.515   8.217  17.012  0.00  0.00    +0.000 HD
ENDROOT
BRANCH   1   8
ATOM      5  C   UNL     1       5.230   5.699  15.977  0.00  0.00    +0.000 C 
ATOM      6  N   UNL     1       4.320   5.542  17.095  0.00  0.00    +0.000 N 
ATOM      7  N   UNL     1       3.706   6.678  17.572  0.00  0.00    +0.000 NA
ATOM      8  C   UNL     1       2.793   6.552  18.493  0.00  0.00    +0.000 A 
ATOM      9  C   UNL     1       2.388   5.245  19.072  0.00  0.00    +0.000 A 
ATOM     10  C   UNL     1       1.387   5.086  20.043  0.00  0.00    +0.000 A 
ATOM     11  C   UNL     1       1.017   3.811  20.488  0.00  0.00    +0.000 A 
ATOM     12  C   UNL     1       1.666   2.684  19.997  0.00  0.00    +0.000 A 
ATOM     13  C   UNL     1       2.674   2.834  19.050  0.00  0.00    +0.000 A 
ATOM     14  C   UNL     1       3.029   4.112  18.584  0.00  0.00    +0.000 A 
ATOM     15  C   UNL     1       4.062   4.249  17.546  0.00  0.00    +0.000 A 
ATOM     16  O   UNL     1       4.626   3.247  17.115  0.00  0.00    +0.000 OA
ENDBRANCH   1   8
BRANCH   3  17
ATOM     17  C   UNL     1       1.019   9.916  18.168  0.00  0.00    +0.000 A 
ATOM     18  C   UNL     1       1.788  11.007  18.590  0.00  0.00    +0.000 A 
ATOM     19  C   UNL     1       1.188  12.217  18.905  0.00  0.00    +0.000 A 
ATOM     20  C   UNL     1      -0.190  12.363  18.782  0.00  0.00    +0.000 A 
ATOM     21  C   UNL     1      -0.996  11.314  18.323  0.00  0.00    +0.000 A 
ATOM     22  C   UNL     1      -0.366  10.087  18.000  0.00  0.00    +0.000 A 
BRANCH  21  23
ATOM     23  N   UNL     1      -2.410  11.485  18.221  0.00  0.00    +0.000 N 
ATOM     24  C   UNL     1      -3.187  10.958  17.125  0.00  0.00    +0.000 C 
ATOM     25  C   UNL     1      -4.543  11.619  17.271  0.00  0.00    +0.000 C 
ATOM     26  C   UNL     1      -4.683  11.820  18.765  0.00  0.00    +0.000 C 
ATOM     27  C   UNL     1      -3.257  11.994  19.224  0.00  0.00    +0.000 C 
ATOM     28  O   UNL     1      -2.976  12.483  20.309  0.00  0.00    +0.000 OA
ENDBRANCH  21  23
ENDBRANCH   3  17
TORSDOF 3
ENDMDL
MODEL 8
REMARK VINA RESULT:      -8.4      1.743      3.113
REMARK  Name = 
REMARK  4 active torsions:
REMARK  status: ('A' for Active; 'I' for Inactive)
REMARK    1  A    between atoms: C_1  and  N_2
REMARK    2  A    between atoms: C_4  and  C_5
REMARK    3  A    between atoms: N_7  and  C_8
REMARK    4  A    between atoms: C_12  and  N_13
REMARK                            x       y       z     vdW  Elec       q    Type
REMARK                         _______ _______ _______ _____ _____    ______ ____
ROOT
ATOM      1  C   UNL     1       2.167   7.413  19.029  0.00  0.00    +0.000 C 
ATOM      2  O   UNL     1       2.230   7.678  20.220  0.00  0.00    +0.000 OA
ATOM      3  N   UNL     1       1.751   8.275  18.023  0.00  0.00    +0.000 N 
ATOM      4  H   UNL     1       1.421   7.832  17.170  0.00  0.00    +0.000 HD
ENDROOT
BRANCH   1   8
ATOM      5  C   UNL     1       1.409   2.695  19.603  0.00  0.00    +0.000 C 
ATOM      6  N   UNL     1       2.098   3.729  18.855  0.00  0.00    +0.000 N 
ATOM      7  N   UNL     1       1.798   5.036  19.166  0.00  0.00    +0.000 NA
ATOM      8  C   UNL     1       2.489   5.984  18.599  0.00  0.00    +0.000 A 
ATOM      9  C   UNL     1       3.575   5.733  17.617  0.00  0.00    +0.000 A 
ATOM     10  C   UNL     1       4.348   6.739  17.017  0.00  0.00    +0.000 A 
ATOM     11  C   UNL     1       5.400   6.413  16.152  0.00  0.00    +0.000 A 
ATOM     12  C   UNL     1       5.668   5.084  15.847  0.00  0.00    +0.000 A 
ATOM     13  C   UNL     1       4.892   4.082  16.420  0.00  0.00    +0.000 A 
ATOM     14  C   UNL     1       3.852   4.405  17.308  0.00  0.00    +0.000 A 
ATOM     15  C   UNL     1       3.075   3.332  17.945  0.00  0.00    +0.000 A 
ATOM     16  O   UNL     1       3.322   2.160  17.672  0.00  0.00    +0.000 OA
ENDBRANCH   1   8
BRANCH   3  17
ATOM     17  C   UNL     1       1.493   9.653  18.243  0.00  0.00    +0.000 A 
ATOM     18  C   UNL     1       2.446  10.622  17.914  0.00  0.00    +0.000 A 
ATOM     19  C   UNL     1       2.225  11.961  18.203  0.00  0.00    +0.000 A 
ATOM     20  C   UNL     1       1.035  12.353  18.808  0.00  0.00    +0.000 A 
ATOM     21  C   UNL     1       0.033  11.425  19.116  0.00  0.00    +0.000 A 
ATOM     22  C   UNL     1       0.274  10.064  18.809  0.00  0.00    +0.000 A 
BRANCH  21  23
ATOM     23  N   UNL     1      -1.173  11.853  19.751  0.00  0.00    +0.000 N 
ATOM     24  C   UNL     1      -1.205  12.404  21.084  0.00  0.00    +0.000 C 
ATOM     25  C   UNL     1      -2.676  12.431  21.446  0.00  0.00    +0.000 C 
ATOM     26  C   UNL     1      -3.368  12.642  20.116  0.00  0.00    +0.000 C 
ATOM     27  C   UNL     1      -2.432  11.985  19.133  0.00  0.00    +0.000 C 
ATOM     28  O   UNL     1      -2.784  11.676  18.004  0.00  0.00    +0.000 OA
ENDBRANCH  21  23
ENDBRANCH   3  17
TORSDOF 3
ENDMDL
MODEL 9
REMARK VINA RESULT:      -8.4      2.473      3.362
REMARK  Name = 
REMARK  4 active torsions:
REMARK  status: ('A' for Active; 'I' for Inactive)
REMARK    1  A    between atoms: C_1  and  N_2
REMARK    2  A    between atoms: C_4  and  C_5
REMARK    3  A    between atoms: N_7  and  C_8
REMARK    4  A    between atoms: C_12  and  N_13
REMARK                            x       y       z     vdW  Elec       q    Type
REMARK                         _______ _______ _______ _____ _____    ______ ____
ROOT
ATOM      1  C   UNL     1       2.310   7.398  18.528  0.00  0.00    +0.000 C 
ATOM      2  O   UNL     1       1.828   8.159  17.704  0.00  0.00    +0.000 OA
ATOM      3  N   UNL     1       2.204   7.515  19.908  0.00  0.00    +0.000 N 
ATOM      4  H   UNL     1       2.921   7.040  20.449  0.00  0.00    +0.000 HD
ENDROOT
BRANCH   1   8
ATOM      5  C   UNL     1       6.247   6.007  16.133  0.00  0.00    +0.000 C 
ATOM      6  N   UNL     1       5.086   5.595  16.899  0.00  0.00    +0.000 N 
ATOM      7  N   UNL     1       4.297   6.591  17.431  0.00  0.00    +0.000 NA
ATOM      8  C   UNL     1       3.184   6.254  18.017  0.00  0.00    +0.000 A 
ATOM      9  C   UNL     1       2.724   4.849  18.161  0.00  0.00    +0.000 A 
ATOM     10  C   UNL     1       1.515   4.469  18.764  0.00  0.00    +0.000 A 
ATOM     11  C   UNL     1       1.123   3.125  18.798  0.00  0.00    +0.000 A 
ATOM     12  C   UNL     1       1.949   2.143  18.264  0.00  0.00    +0.000 A 
ATOM     13  C   UNL     1       3.159   2.508  17.685  0.00  0.00    +0.000 A 
ATOM     14  C   UNL     1       3.542   3.860  17.627  0.00  0.00    +0.000 A 
ATOM     15  C   UNL     1       4.801   4.233  16.965  0.00  0.00    +0.000 A 
ATOM     16  O   UNL     1       5.522   3.358  16.493  0.00  0.00    +0.000 OA
ENDBRANCH   1   8
BRANCH   3  17
ATOM     17  C   UNL     1       1.367   8.471  20.539  0.00  0.00    +0.000 A 
ATOM     18  C   UNL     1       0.576   8.118  21.638  0.00  0.00    +0.000 A 
ATOM     19  C   UNL     1      -0.300   9.033  22.204  0.00  0.00    +0.000 A 
ATOM     20  C   UNL     1      -0.383  10.324  21.691  0.00  0.00    +0.000 A 
ATOM     21  C   UNL     1       0.420  10.737  20.621  0.00  0.00    +0.000 A 
ATOM     22  C   UNL     1       1.312   9.792  20.060  0.00  0.00    +0.000 A 
BRANCH  21  23
ATOM     23  N   UNL     1       0.304  12.064  20.105  0.00  0.00    +0.000 N 
ATOM     24  C   UNL     1      -0.746  12.463  19.200  0.00  0.00    +0.000 C 
ATOM     25  C   UNL     1      -0.312  13.825  18.695  0.00  0.00    +0.000 C 
ATOM     26  C   UNL     1       0.464  14.406  19.858  0.00  0.00    +0.000 C 
ATOM     27  C   UNL     1       1.039  13.186  20.532  0.00  0.00    +0.000 C 
ATOM     28  O   UNL     1       1.970  13.255  21.321  0.00  0.00    +0.000 OA
ENDBRANCH  21  23
ENDBRANCH   3  17
TORSDOF 3
ENDMDL
