MODEL 1
REMARK VINA RESULT:      -8.7      0.000      0.000
REMARK  Name = 
REMARK  6 active torsions:
REMARK  status: ('A' for Active; 'I' for Inactive)
REMARK    1  A    between atoms: C_1  and  O_2
REMARK    2  A    between atoms: O_2  and  C_3
REMARK    3  A    between atoms: C_7  and  C_8
REMARK    4  A    between atoms: N_12  and  C_13
REMARK    5  A    between atoms: C_13  and  C_14
REMARK    6  A    between atoms: C_18  and  C_19
REMARK                            x       y       z     vdW  Elec       q    Type
REMARK                         _______ _______ _______ _____ _____    ______ ____
ROOT
ATOM      1  C   UNL     1       6.484   4.806  16.345  0.00  0.00    +0.000 A 
ATOM      2  N   UNL     1       7.445   5.088  17.240  0.00  0.00    +0.000 NA
ATOM      3  O   UNL     1       6.762   5.102  18.454  0.00  0.00    +0.000 OA
ATOM      4  C   UNL     1       5.449   4.871  18.167  0.00  0.00    +0.000 A 
ATOM      5  N   UNL     1       4.597   4.900  19.200  0.00  0.00    +0.000 N 
ATOM      6  N   UNL     1       5.224   4.697  16.892  0.00  0.00    +0.000 NA
ATOM      7  H   UNL     1       4.906   4.480  20.071  0.00  0.00    +0.000 HD
ENDROOT
BRANCH   1  12
ATOM      8  C   UNL     1       6.122   3.622  12.784  0.00  0.00    +0.000 A 
ATOM      9  C   UNL     1       7.147   4.330  12.158  0.00  0.00    +0.000 A 
ATOM     10  C   UNL     1       7.968   5.180  12.901  0.00  0.00    +0.000 A 
ATOM     11  C   UNL     1       7.762   5.332  14.273  0.00  0.00    +0.000 A 
ATOM     12  C   UNL     1       6.731   4.635  14.917  0.00  0.00    +0.000 A 
ATOM     13  C   UNL     1       5.927   3.769  14.162  0.00  0.00    +0.000 A 
BRANCH   8  15
ATOM     14  C   UNL     1       4.281   3.344  11.308  0.00  0.00    +0.000 C 
ATOM     15  O   UNL     1       5.250   2.764  12.172  0.00  0.00    +0.000 OA
ENDBRANCH   8  15
ENDBRANCH   1  12
BRANCH   5  16
ATOM     16  C   UNL     1       3.172   4.873  18.958  0.00  0.00    +0.000 C 
BRANCH  16  17
ATOM     17  C   UNL     1       2.671   6.302  18.961  0.00  0.00    +0.000 A 
ATOM     18  C   UNL     1       2.697   7.089  17.806  0.00  0.00    +0.000 A 
ATOM     19  C   UNL     1       2.222   8.402  17.843  0.00  0.00    +0.000 A 
ATOM     20  C   UNL     1       1.701   8.934  19.030  0.00  0.00    +0.000 A 
ATOM     21  C   UNL     1       1.652   8.157  20.194  0.00  0.00    +0.000 A 
ATOM     22  C   UNL     1       2.167   6.856  20.152  0.00  0.00    +0.000 A 
BRANCH  21  23
ATOM     23  C   UNL     1       1.051   8.699  21.415  0.00  0.00    +0.000 A 
ATOM     24  N   UNL     1       1.668   9.273  22.431  0.00  0.00    +0.000 NA
ATOM     25  N   UNL     1       0.716   9.659  23.350  0.00  0.00    +0.000 NA
ATOM     26  C   UNL     1      -0.455   9.340  22.868  0.00  0.00    +0.000 A 
ATOM     27  N   UNL     1      -0.297   8.740  21.662  0.00  0.00    +0.000 N 
ATOM     28  H   UNL     1      -1.030   8.421  21.047  0.00  0.00    +0.000 HD
ENDBRANCH  21  23
ENDBRANCH  16  17
ENDBRANCH   5  16
TORSDOF 5
ENDMDL
MODEL 2
REMARK VINA RESULT:      -8.6      1.581      2.465
REMARK  Name = 
REMARK  6 active torsions:
REMARK  status: ('A' for Active; 'I' for Inactive)
REMARK    1  A    between atoms: C_1  and  O_2
REMARK    2  A    between atoms: O_2  and  C_3
REMARK    3  A    between atoms: C_7  and  C_8
REMARK    4  A    between atoms: N_12  and  C_13
REMARK    5  A    between atoms: C_13  and  C_14
REMARK    6  A    between atoms: C_18  and  C_19
REMARK                            x       y       z     vdW  Elec       q    Type
REMARK                         _______ _______ _______ _____ _____    ______ ____
ROOT
ATOM      1  C   UNL     1       6.742   5.079  15.853  0.00  0.00    +0.000 A 
ATOM      2  N   UNL     1       7.179   6.206  16.440  0.00  0.00    +0.000 NA
ATOM      3  O   UNL     1       6.874   6.010  17.784  0.00  0.00    +0.000 OA
ATOM      4  C   UNL     1       6.244   4.804  17.871  0.00  0.00    +0.000 A 
ATOM      5  N   UNL     1       5.809   4.442  19.085  0.00  0.00    +0.000 N 
ATOM      6  N   UNL     1       6.126   4.200  16.718  0.00  0.00    +0.000 NA
ATOM      7  H   UNL     1       6.410   4.648  19.876  0.00  0.00    +0.000 HD
ENDROOT
BRANCH   1  12
ATOM      8  C   UNL     1       6.221   3.529  12.456  0.00  0.00    +0.000 A 
ATOM      9  C   UNL     1       7.115   4.268  11.681  0.00  0.00    +0.000 A 
ATOM     10  C   UNL     1       7.901   5.260  12.272  0.00  0.00    +0.000 A 
ATOM     11  C   UNL     1       7.789   5.523  13.638  0.00  0.00    +0.000 A 
ATOM     12  C   UNL     1       6.891   4.796  14.430  0.00  0.00    +0.000 A 
ATOM     13  C   UNL     1       6.123   3.789  13.827  0.00  0.00    +0.000 A 
BRANCH   8  15
ATOM     14  C   UNL     1       6.016   1.454  11.319  0.00  0.00    +0.000 C 
ATOM     15  O   UNL     1       5.397   2.536  12.002  0.00  0.00    +0.000 OA
ENDBRANCH   8  15
ENDBRANCH   1  12
BRANCH   5  16
ATOM     16  C   UNL     1       4.954   3.285  19.228  0.00  0.00    +0.000 C 
BRANCH  16  17
ATOM     17  C   UNL     1       3.593   3.765  19.685  0.00  0.00    +0.000 A 
ATOM     18  C   UNL     1       2.604   2.870  20.105  0.00  0.00    +0.000 A 
ATOM     19  C   UNL     1       1.361   3.348  20.527  0.00  0.00    +0.000 A 
ATOM     20  C   UNL     1       1.101   4.725  20.548  0.00  0.00    +0.000 A 
ATOM     21  C   UNL     1       2.083   5.639  20.145  0.00  0.00    +0.000 A 
ATOM     22  C   UNL     1       3.310   5.143  19.690  0.00  0.00    +0.000 A 
BRANCH  21  23
ATOM     23  C   UNL     1       1.826   7.078  20.228  0.00  0.00    +0.000 A 
ATOM     24  N   UNL     1       1.829   7.955  19.241  0.00  0.00    +0.000 NA
ATOM     25  N   UNL     1       1.509   9.191  19.762  0.00  0.00    +0.000 NA
ATOM     26  C   UNL     1       1.291   9.039  21.040  0.00  0.00    +0.000 A 
ATOM     27  N   UNL     1       1.476   7.737  21.378  0.00  0.00    +0.000 N 
ATOM     28  H   UNL     1       1.343   7.326  22.289  0.00  0.00    +0.000 HD
ENDBRANCH  21  23
ENDBRANCH  16  17
ENDBRANCH   5  16
TORSDOF 5
ENDMDL
MODEL 3
REMARK VINA RESULT:      -8.2      3.159      4.343
REMARK  Name = 
REMARK  6 active torsions:
REMARK  status: ('A' for Active; 'I' for Inactive)
REMARK    1  A    between atoms: C_1  and  O_2
REMARK    2  A    between atoms: O_2  and  C_3
REMARK    3  A    between atoms: C_7  and  C_8
REMARK    4  A    between atoms: N_12  and  C_13
REMARK    5  A    between atoms: C_13  and  C_14
REMARK    6  A    between atoms: C_18  and  C_19
REMARK                            x       y       z     vdW  Elec       q    Type
REMARK                         _______ _______ _______ _____ _____    ______ ____
ROOT
ATOM      1  C   UNL     1       6.668   4.315  13.611  0.00  0.00    +0.000 A 
ATOM      2  N   UNL     1       7.456   5.356  13.295  0.00  0.00    +0.000 NA
ATOM      3  O   UNL     1       7.970   5.760  14.525  0.00  0.00    +0.000 OA
ATOM      4  C   UNL     1       7.408   4.951  15.468  0.00  0.00    +0.000 A 
ATOM      5  N   UNL     1       7.726   5.208  16.743  0.00  0.00    +0.000 N 
ATOM      6  N   UNL     1       6.595   4.060  14.964  0.00  0.00    +0.000 NA
ATOM      7  H   UNL     1       8.688   5.460  16.941  0.00  0.00    +0.000 HD
ENDROOT
BRANCH   1  12
ATOM      8  C   UNL     1       5.806   1.537  11.214  0.00  0.00    +0.000 A 
ATOM      9  C   UNL     1       4.542   1.937  10.779  0.00  0.00    +0.000 A 
ATOM     10  C   UNL     1       3.979   3.122  11.256  0.00  0.00    +0.000 A 
ATOM     11  C   UNL     1       4.675   3.909  12.176  0.00  0.00    +0.000 A 
ATOM     12  C   UNL     1       5.942   3.519  12.628  0.00  0.00    +0.000 A 
ATOM     13  C   UNL     1       6.503   2.336  12.126  0.00  0.00    +0.000 A 
BRANCH   8  15
ATOM     14  C   UNL     1       5.958  -0.832  11.322  0.00  0.00    +0.000 C 
ATOM     15  O   UNL     1       6.465   0.402  10.828  0.00  0.00    +0.000 OA
ENDBRANCH   8  15
ENDBRANCH   1  12
BRANCH   5  16
ATOM     16  C   UNL     1       7.017   4.539  17.811  0.00  0.00    +0.000 C 
BRANCH  16  17
ATOM     17  C   UNL     1       5.625   5.127  17.888  0.00  0.00    +0.000 A 
ATOM     18  C   UNL     1       5.358   6.433  17.468  0.00  0.00    +0.000 A 
ATOM     19  C   UNL     1       4.060   6.943  17.548  0.00  0.00    +0.000 A 
ATOM     20  C   UNL     1       3.014   6.146  18.034  0.00  0.00    +0.000 A 
ATOM     21  C   UNL     1       3.258   4.830  18.446  0.00  0.00    +0.000 A 
ATOM     22  C   UNL     1       4.570   4.346  18.395  0.00  0.00    +0.000 A 
BRANCH  21  23
ATOM     23  C   UNL     1       2.151   3.983  18.895  0.00  0.00    +0.000 A 
ATOM     24  N   UNL     1       1.444   4.101  20.003  0.00  0.00    +0.000 NA
ATOM     25  N   UNL     1       0.484   3.111  20.011  0.00  0.00    +0.000 NA
ATOM     26  C   UNL     1       0.607   2.431  18.903  0.00  0.00    +0.000 A 
ATOM     27  N   UNL     1       1.633   2.938  18.173  0.00  0.00    +0.000 N 
ATOM     28  H   UNL     1       1.932   2.633  17.260  0.00  0.00    +0.000 HD
ENDBRANCH  21  23
ENDBRANCH  16  17
ENDBRANCH   5  16
TORSDOF 5
ENDMDL
MODEL 4
REMARK VINA RESULT:      -8.2      3.202      4.302
REMARK  Name = 
REMARK  6 active torsions:
REMARK  status: ('A' for Active; 'I' for Inactive)
REMARK    1  A    between atoms: C_1  and  O_2
REMARK    2  A    between atoms: O_2  and  C_3
REMARK    3  A    between atoms: C_7  and  C_8
REMARK    4  A    between atoms: N_12  and  C_13
REMARK    5  A    between atoms: C_13  and  C_14
REMARK    6  A    between atoms: C_18  and  C_19
REMARK                            x       y       z     vdW  Elec       q    Type
REMARK                         _______ _______ _______ _____ _____    ______ ____
ROOT
ATOM      1  C   UNL     1       6.782   4.242  13.557  0.00  0.00    +0.000 A 
ATOM      2  N   UNL     1       7.509   5.331  13.259  0.00  0.00    +0.000 NA
ATOM      3  O   UNL     1       7.923   5.796  14.504  0.00  0.00    +0.000 OA
ATOM      4  C   UNL     1       7.369   4.968  15.435  0.00  0.00    +0.000 A 
ATOM      5  N   UNL     1       7.597   5.273  16.719  0.00  0.00    +0.000 N 
ATOM      6  N   UNL     1       6.652   4.010  14.910  0.00  0.00    +0.000 NA
ATOM      7  H   UNL     1       8.526   5.600  16.963  0.00  0.00    +0.000 HD
ENDROOT
BRANCH   1  12
ATOM      8  C   UNL     1       4.288   2.843  11.101  0.00  0.00    +0.000 A 
ATOM      9  C   UNL     1       4.994   1.755  10.588  0.00  0.00    +0.000 A 
ATOM     10  C   UNL     1       6.278   1.469  11.057  0.00  0.00    +0.000 A 
ATOM     11  C   UNL     1       6.863   2.274  12.035  0.00  0.00    +0.000 A 
ATOM     12  C   UNL     1       6.171   3.375  12.556  0.00  0.00    +0.000 A 
ATOM     13  C   UNL     1       4.875   3.638  12.090  0.00  0.00    +0.000 A 
BRANCH   8  15
ATOM     14  C   UNL     1       2.941   4.175   9.667  0.00  0.00    +0.000 C 
ATOM     15  O   UNL     1       3.030   3.231  10.727  0.00  0.00    +0.000 OA
ENDBRANCH   8  15
ENDBRANCH   1  12
BRANCH   5  16
ATOM     16  C   UNL     1       6.880   4.575  17.763  0.00  0.00    +0.000 C 
BRANCH  16  17
ATOM     17  C   UNL     1       5.485   5.159  17.842  0.00  0.00    +0.000 A 
ATOM     18  C   UNL     1       5.230   6.492  17.512  0.00  0.00    +0.000 A 
ATOM     19  C   UNL     1       3.929   6.996  17.591  0.00  0.00    +0.000 A 
ATOM     20  C   UNL     1       2.871   6.167  17.984  0.00  0.00    +0.000 A 
ATOM     21  C   UNL     1       3.103   4.823  18.305  0.00  0.00    +0.000 A 
ATOM     22  C   UNL     1       4.417   4.343  18.258  0.00  0.00    +0.000 A 
BRANCH  21  23
ATOM     23  C   UNL     1       1.984   3.947  18.657  0.00  0.00    +0.000 A 
ATOM     24  N   UNL     1       1.316   3.134  17.861  0.00  0.00    +0.000 NA
ATOM     25  N   UNL     1       0.364   2.479  18.613  0.00  0.00    +0.000 NA
ATOM     26  C   UNL     1       0.488   2.883  19.848  0.00  0.00    +0.000 A 
ATOM     27  N   UNL     1       1.486   3.799  19.926  0.00  0.00    +0.000 N 
ATOM     28  H   UNL     1       1.824   4.253  20.760  0.00  0.00    +0.000 HD
ENDBRANCH  21  23
ENDBRANCH  16  17
ENDBRANCH   5  16
TORSDOF 5
ENDMDL
MODEL 5
REMARK VINA RESULT:      -8.2      3.389      9.816
REMARK  Name = 
REMARK  6 active torsions:
REMARK  status: ('A' for Active; 'I' for Inactive)
REMARK    1  A    between atoms: C_1  and  O_2
REMARK    2  A    between atoms: O_2  and  C_3
REMARK    3  A    between atoms: C_7  and  C_8
REMARK    4  A    between atoms: N_12  and  C_13
REMARK    5  A    between atoms: C_13  and  C_14
REMARK    6  A    between atoms: C_18  and  C_19
REMARK                            x       y       z     vdW  Elec       q    Type
REMARK                         _______ _______ _______ _____ _____    ______ ____
ROOT
ATOM      1  C   UNL     1       1.300   9.276  19.486  0.00  0.00    +0.000 A 
ATOM      2  N   UNL     1       1.473   9.967  18.347  0.00  0.00    +0.000 NA
ATOM      3  O   UNL     1       2.173   9.081  17.532  0.00  0.00    +0.000 OA
ATOM      4  C   UNL     1       2.392   7.957  18.274  0.00  0.00    +0.000 A 
ATOM      5  N   UNL     1       3.107   6.986  17.692  0.00  0.00    +0.000 N 
ATOM      6  N   UNL     1       1.891   8.030  19.479  0.00  0.00    +0.000 NA
ATOM      7  H   UNL     1       2.929   6.801  16.711  0.00  0.00    +0.000 HD
ENDROOT
BRANCH   1  12
ATOM      8  C   UNL     1      -0.630  11.602  21.738  0.00  0.00    +0.000 A 
ATOM      9  C   UNL     1      -0.905  10.765  22.820  0.00  0.00    +0.000 A 
ATOM     10  C   UNL     1      -0.446   9.447  22.820  0.00  0.00    +0.000 A 
ATOM     11  C   UNL     1       0.285   8.958  21.736  0.00  0.00    +0.000 A 
ATOM     12  C   UNL     1       0.564   9.782  20.639  0.00  0.00    +0.000 A 
ATOM     13  C   UNL     1       0.114  11.110  20.660  0.00  0.00    +0.000 A 
BRANCH   8  15
ATOM     14  C   UNL     1      -0.899  13.492  20.323  0.00  0.00    +0.000 C 
ATOM     15  O   UNL     1      -1.023  12.907  21.613  0.00  0.00    +0.000 OA
ENDBRANCH   8  15
ENDBRANCH   1  12
BRANCH   5  16
ATOM     16  C   UNL     1       3.560   5.858  18.475  0.00  0.00    +0.000 C 
BRANCH  16  17
ATOM     17  C   UNL     1       4.960   5.506  18.019  0.00  0.00    +0.000 A 
ATOM     18  C   UNL     1       6.009   5.350  18.929  0.00  0.00    +0.000 A 
ATOM     19  C   UNL     1       7.287   5.019  18.475  0.00  0.00    +0.000 A 
ATOM     20  C   UNL     1       7.525   4.825  17.107  0.00  0.00    +0.000 A 
ATOM     21  C   UNL     1       6.484   4.962  16.180  0.00  0.00    +0.000 A 
ATOM     22  C   UNL     1       5.217   5.330  16.647  0.00  0.00    +0.000 A 
BRANCH  21  23
ATOM     23  C   UNL     1       6.726   4.698  14.760  0.00  0.00    +0.000 A 
ATOM     24  N   UNL     1       6.115   3.818  13.988  0.00  0.00    +0.000 NA
ATOM     25  N   UNL     1       6.635   3.926  12.716  0.00  0.00    +0.000 NA
ATOM     26  C   UNL     1       7.525   4.880  12.731  0.00  0.00    +0.000 A 
ATOM     27  N   UNL     1       7.617   5.393  13.983  0.00  0.00    +0.000 N 
ATOM     28  H   UNL     1       8.198   6.163  14.279  0.00  0.00    +0.000 HD
ENDBRANCH  21  23
ENDBRANCH  16  17
ENDBRANCH   5  16
TORSDOF 5
ENDMDL
MODEL 6
REMARK VINA RESULT:      -8.1      1.891      2.562
REMARK  Name = 
REMARK  6 active torsions:
REMARK  status: ('A' for Active; 'I' for Inactive)
REMARK    1  A    between atoms: C_1  and  O_2
REMARK    2  A    between atoms: O_2  and  C_3
REMARK    3  A    between atoms: C_7  and  C_8
REMARK    4  A    between atoms: N_12  and  C_13
REMARK    5  A    between atoms: C_13  and  C_14
REMARK    6  A    between atoms: C_18  and  C_19
REMARK                            x       y       z     vdW  Elec       q    Type
REMARK                         _______ _______ _______ _____ _____    ______ ____
ROOT
ATOM      1  C   UNL     1       6.995   5.133  15.829  0.00  0.00    +0.000 A 
ATOM      2  N   UNL     1       7.634   6.177  16.382  0.00  0.00    +0.000 NA
ATOM      3  O   UNL     1       7.374   6.032  17.742  0.00  0.00    +0.000 OA
ATOM      4  C   UNL     1       6.568   4.940  17.873  0.00  0.00    +0.000 A 
ATOM      5  N   UNL     1       6.147   4.652  19.111  0.00  0.00    +0.000 N 
ATOM      6  N   UNL     1       6.296   4.362  16.733  0.00  0.00    +0.000 NA
ATOM      7  H   UNL     1       6.814   4.761  19.867  0.00  0.00    +0.000 HD
ENDROOT
BRANCH   1  12
ATOM      8  C   UNL     1       6.141   3.582  12.501  0.00  0.00    +0.000 A 
ATOM      9  C   UNL     1       7.012   4.264  11.652  0.00  0.00    +0.000 A 
ATOM     10  C   UNL     1       7.890   5.219  12.170  0.00  0.00    +0.000 A 
ATOM     11  C   UNL     1       7.895   5.500  13.537  0.00  0.00    +0.000 A 
ATOM     12  C   UNL     1       7.022   4.829  14.403  0.00  0.00    +0.000 A 
ATOM     13  C   UNL     1       6.159   3.858  13.872  0.00  0.00    +0.000 A 
BRANCH   8  15
ATOM     14  C   UNL     1       4.159   3.063  11.297  0.00  0.00    +0.000 C 
ATOM     15  O   UNL     1       5.234   2.630  12.123  0.00  0.00    +0.000 OA
ENDBRANCH   8  15
ENDBRANCH   1  12
BRANCH   5  16
ATOM     16  C   UNL     1       5.129   3.644  19.309  0.00  0.00    +0.000 C 
BRANCH  16  17
ATOM     17  C   UNL     1       3.824   4.185  18.765  0.00  0.00    +0.000 A 
ATOM     18  C   UNL     1       2.877   3.349  18.167  0.00  0.00    +0.000 A 
ATOM     19  C   UNL     1       1.681   3.881  17.681  0.00  0.00    +0.000 A 
ATOM     20  C   UNL     1       1.414   5.252  17.804  0.00  0.00    +0.000 A 
ATOM     21  C   UNL     1       2.342   6.104  18.413  0.00  0.00    +0.000 A 
ATOM     22  C   UNL     1       3.553   5.562  18.861  0.00  0.00    +0.000 A 
BRANCH  21  23
ATOM     23  C   UNL     1       2.031   7.524  18.593  0.00  0.00    +0.000 A 
ATOM     24  N   UNL     1       1.703   8.142  19.712  0.00  0.00    +0.000 NA
ATOM     25  N   UNL     1       1.523   9.479  19.429  0.00  0.00    +0.000 NA
ATOM     26  C   UNL     1       1.769   9.653  18.159  0.00  0.00    +0.000 A 
ATOM     27  N   UNL     1       2.091   8.462  17.595  0.00  0.00    +0.000 N 
ATOM     28  H   UNL     1       2.361   8.302  16.636  0.00  0.00    +0.000 HD
ENDBRANCH  21  23
ENDBRANCH  16  17
ENDBRANCH   5  16
TORSDOF 5
ENDMDL
MODEL 7
REMARK VINA RESULT:      -8.0      6.262      7.941
REMARK  Name = 
REMARK  6 active torsions:
REMARK  status: ('A' for Active; 'I' for Inactive)
REMARK    1  A    between atoms: C_1  and  O_2
REMARK    2  A    between atoms: O_2  and  C_3
REMARK    3  A    between atoms: C_7  and  C_8
REMARK    4  A    between atoms: N_12  and  C_13
REMARK    5  A    between atoms: C_13  and  C_14
REMARK    6  A    between atoms: C_18  and  C_19
REMARK                            x       y       z     vdW  Elec       q    Type
REMARK                         _______ _______ _______ _____ _____    ______ ____
ROOT
ATOM      1  C   UNL     1       5.694   5.886  17.483  0.00  0.00    +0.000 A 
ATOM      2  N   UNL     1       6.770   5.128  17.213  0.00  0.00    +0.000 NA
ATOM      3  O   UNL     1       7.824   6.037  17.244  0.00  0.00    +0.000 OA
ATOM      4  C   UNL     1       7.276   7.263  17.487  0.00  0.00    +0.000 A 
ATOM      5  N   UNL     1       8.119   8.303  17.501  0.00  0.00    +0.000 N 
ATOM      6  N   UNL     1       5.977   7.227  17.627  0.00  0.00    +0.000 NA
ATOM      7  H   UNL     1       9.023   8.164  17.941  0.00  0.00    +0.000 HD
ENDROOT
BRANCH   1  12
ATOM      8  C   UNL     1       2.825   3.448  17.669  0.00  0.00    +0.000 A 
ATOM      9  C   UNL     1       1.753   4.309  17.905  0.00  0.00    +0.000 A 
ATOM     10  C   UNL     1       1.966   5.687  17.987  0.00  0.00    +0.000 A 
ATOM     11  C   UNL     1       3.252   6.208  17.839  0.00  0.00    +0.000 A 
ATOM     12  C   UNL     1       4.341   5.358  17.609  0.00  0.00    +0.000 A 
ATOM     13  C   UNL     1       4.110   3.978  17.510  0.00  0.00    +0.000 A 
BRANCH   8  15
ATOM     14  C   UNL     1       3.564   1.335  18.464  0.00  0.00    +0.000 C 
ATOM     15  O   UNL     1       2.752   2.086  17.570  0.00  0.00    +0.000 OA
ENDBRANCH   8  15
ENDBRANCH   1  12
BRANCH   5  16
ATOM     16  C   UNL     1       7.599   9.651  17.542  0.00  0.00    +0.000 C 
BRANCH  16  17
ATOM     17  C   UNL     1       8.617  10.522  18.247  0.00  0.00    +0.000 A 
ATOM     18  C   UNL     1       9.344  10.056  19.345  0.00  0.00    +0.000 A 
ATOM     19  C   UNL     1      10.280  10.885  19.969  0.00  0.00    +0.000 A 
ATOM     20  C   UNL     1      10.507  12.182  19.490  0.00  0.00    +0.000 A 
ATOM     21  C   UNL     1       9.800  12.664  18.381  0.00  0.00    +0.000 A 
ATOM     22  C   UNL     1       8.839  11.835  17.790  0.00  0.00    +0.000 A 
BRANCH  21  23
ATOM     23  C   UNL     1      10.086  13.997  17.849  0.00  0.00    +0.000 A 
ATOM     24  N   UNL     1       9.327  15.075  17.923  0.00  0.00    +0.000 NA
ATOM     25  N   UNL     1       9.996  16.116  17.315  0.00  0.00    +0.000 NA
ATOM     26  C   UNL     1      11.151  15.662  16.909  0.00  0.00    +0.000 A 
ATOM     27  N   UNL     1      11.254  14.346  17.220  0.00  0.00    +0.000 N 
ATOM     28  H   UNL     1      12.050  13.748  17.058  0.00  0.00    +0.000 HD
ENDBRANCH  21  23
ENDBRANCH  16  17
ENDBRANCH   5  16
TORSDOF 5
ENDMDL
MODEL 8
REMARK VINA RESULT:      -8.0      5.141      7.402
REMARK  Name = 
REMARK  6 active torsions:
REMARK  status: ('A' for Active; 'I' for Inactive)
REMARK    1  A    between atoms: C_1  and  O_2
REMARK    2  A    between atoms: O_2  and  C_3
REMARK    3  A    between atoms: C_7  and  C_8
REMARK    4  A    between atoms: N_12  and  C_13
REMARK    5  A    between atoms: C_13  and  C_14
REMARK    6  A    between atoms: C_18  and  C_19
REMARK                            x       y       z     vdW  Elec       q    Type
REMARK                         _______ _______ _______ _____ _____    ______ ____
ROOT
ATOM      1  C   UNL     1       2.377   7.799  18.253  0.00  0.00    +0.000 A 
ATOM      2  N   UNL     1       3.036   8.574  17.376  0.00  0.00    +0.000 NA
ATOM      3  O   UNL     1       2.286   9.747  17.354  0.00  0.00    +0.000 OA
ATOM      4  C   UNL     1       1.224   9.549  18.186  0.00  0.00    +0.000 A 
ATOM      5  N   UNL     1       0.334  10.546  18.269  0.00  0.00    +0.000 N 
ATOM      6  N   UNL     1       1.225   8.370  18.750  0.00  0.00    +0.000 NA
ATOM      7  H   UNL     1       0.696  11.494  18.286  0.00  0.00    +0.000 HD
ENDROOT
BRANCH   1  12
ATOM      8  C   UNL     1       2.735   4.605  20.223  0.00  0.00    +0.000 A 
ATOM      9  C   UNL     1       3.612   3.884  19.413  0.00  0.00    +0.000 A 
ATOM     10  C   UNL     1       4.099   4.448  18.232  0.00  0.00    +0.000 A 
ATOM     11  C   UNL     1       3.706   5.732  17.853  0.00  0.00    +0.000 A 
ATOM     12  C   UNL     1       2.820   6.467  18.651  0.00  0.00    +0.000 A 
ATOM     13  C   UNL     1       2.355   5.896  19.844  0.00  0.00    +0.000 A 
BRANCH   8  15
ATOM     14  C   UNL     1       1.341   3.027  21.323  0.00  0.00    +0.000 C 
ATOM     15  O   UNL     1       2.186   4.168  21.397  0.00  0.00    +0.000 OA
ENDBRANCH   8  15
ENDBRANCH   1  12
BRANCH   5  16
ATOM     16  C   UNL     1      -0.919  10.338  18.960  0.00  0.00    +0.000 C 
BRANCH  16  17
ATOM     17  C   UNL     1      -2.040  10.523  17.960  0.00  0.00    +0.000 A 
ATOM     18  C   UNL     1      -1.975   9.973  16.677  0.00  0.00    +0.000 A 
ATOM     19  C   UNL     1      -3.030  10.158  15.781  0.00  0.00    +0.000 A 
ATOM     20  C   UNL     1      -4.168  10.881  16.166  0.00  0.00    +0.000 A 
ATOM     21  C   UNL     1      -4.260  11.427  17.452  0.00  0.00    +0.000 A 
ATOM     22  C   UNL     1      -3.178  11.265  18.326  0.00  0.00    +0.000 A 
BRANCH  21  23
ATOM     23  C   UNL     1      -5.476  12.129  17.868  0.00  0.00    +0.000 A 
ATOM     24  N   UNL     1      -5.674  12.807  18.982  0.00  0.00    +0.000 NA
ATOM     25  N   UNL     1      -6.951  13.326  18.950  0.00  0.00    +0.000 NA
ATOM     26  C   UNL     1      -7.492  12.980  17.814  0.00  0.00    +0.000 A 
ATOM     27  N   UNL     1      -6.610  12.232  17.103  0.00  0.00    +0.000 N 
ATOM     28  H   UNL     1      -6.745  11.858  16.177  0.00  0.00    +0.000 HD
ENDBRANCH  21  23
ENDBRANCH  16  17
ENDBRANCH   5  16
TORSDOF 5
ENDMDL
MODEL 9
REMARK VINA RESULT:      -8.0      2.138      3.369
REMARK  Name = 
REMARK  6 active torsions:
REMARK  status: ('A' for Active; 'I' for Inactive)
REMARK    1  A    between atoms: C_1  and  O_2
REMARK    2  A    between atoms: O_2  and  C_3
REMARK    3  A    between atoms: C_7  and  C_8
REMARK    4  A    between atoms: N_12  and  C_13
REMARK    5  A    between atoms: C_13  and  C_14
REMARK    6  A    between atoms: C_18  and  C_19
REMARK                            x       y       z     vdW  Elec       q    Type
REMARK                         _______ _______ _______ _____ _____    ______ ____
ROOT
ATOM      1  C   UNL     1       6.502   4.260  14.013  0.00  0.00    +0.000 A 
ATOM      2  N   UNL     1       7.139   5.437  13.904  0.00  0.00    +0.000 NA
ATOM      3  O   UNL     1       7.351   5.816  15.227  0.00  0.00    +0.000 OA
ATOM      4  C   UNL     1       6.783   4.851  16.006  0.00  0.00    +0.000 A 
ATOM      5  N   UNL     1       6.824   5.049  17.329  0.00  0.00    +0.000 N 
ATOM      6  N   UNL     1       6.239   3.885  15.313  0.00  0.00    +0.000 NA
ATOM      7  H   UNL     1       7.677   5.437  17.716  0.00  0.00    +0.000 HD
ENDROOT
BRANCH   1  12
ATOM      8  C   UNL     1       4.446   2.822  11.200  0.00  0.00    +0.000 A 
ATOM      9  C   UNL     1       5.349   1.917  10.640  0.00  0.00    +0.000 A 
ATOM     10  C   UNL     1       6.622   1.764  11.192  0.00  0.00    +0.000 A 
ATOM     11  C   UNL     1       7.001   2.521  12.302  0.00  0.00    +0.000 A 
ATOM     12  C   UNL     1       6.110   3.440  12.872  0.00  0.00    +0.000 A 
ATOM     13  C   UNL     1       4.827   3.568  12.319  0.00  0.00    +0.000 A 
BRANCH   8  15
ATOM     14  C   UNL     1       3.023   4.109   9.800  0.00  0.00    +0.000 C 
ATOM     15  O   UNL     1       3.176   3.066  10.754  0.00  0.00    +0.000 OA
ENDBRANCH   8  15
ENDBRANCH   1  12
BRANCH   5  16
ATOM     16  C   UNL     1       6.068   4.187  18.210  0.00  0.00    +0.000 C 
BRANCH  16  17
ATOM     17  C   UNL     1       4.602   4.532  18.055  0.00  0.00    +0.000 A 
ATOM     18  C   UNL     1       3.642   3.549  17.796  0.00  0.00    +0.000 A 
ATOM     19  C   UNL     1       2.297   3.901  17.664  0.00  0.00    +0.000 A 
ATOM     20  C   UNL     1       1.897   5.237  17.807  0.00  0.00    +0.000 A 
ATOM     21  C   UNL     1       2.841   6.235  18.082  0.00  0.00    +0.000 A 
ATOM     22  C   UNL     1       4.190   5.872  18.174  0.00  0.00    +0.000 A 
BRANCH  21  23
ATOM     23  C   UNL     1       2.408   7.618  18.290  0.00  0.00    +0.000 A 
ATOM     24  N   UNL     1       2.468   8.619  17.432  0.00  0.00    +0.000 NA
ATOM     25  N   UNL     1       1.927   9.736  18.033  0.00  0.00    +0.000 NA
ATOM     26  C   UNL     1       1.527   9.389  19.226  0.00  0.00    +0.000 A 
ATOM     27  N   UNL     1       1.804   8.077  19.432  0.00  0.00    +0.000 N 
ATOM     28  H   UNL     1       1.575   7.533  20.250  0.00  0.00    +0.000 HD
ENDBRANCH  21  23
ENDBRANCH  16  17
ENDBRANCH   5  16
TORSDOF 5
ENDMDL
