MODEL 1
REMARK VINA RESULT:      -7.9      0.000      0.000
REMARK  Name = 
REMARK  6 active torsions:
REMARK  status: ('A' for Active; 'I' for Inactive)
REMARK    1  A    between atoms: C_1  and  N_2
REMARK    2  A    between atoms: C_6  and  C_7
REMARK    3  A    between atoms: C_7  and  C_8
REMARK    4  A    between atoms: C_8  and  C_9
REMARK    5  A    between atoms: C_13  and  N_14
REMARK    6  A    between atoms: C_20  and  C_21
REMARK                            x       y       z     vdW  Elec       q    Type
REMARK                         _______ _______ _______ _____ _____    ______ ____
ROOT
ATOM      1  C   UNL     1      -3.885  11.379  17.983  0.00  0.00    +0.000 A 
ATOM      2  C   UNL     1      -3.799  10.725  16.735  0.00  0.00    +0.000 A 
ATOM      3  C   UNL     1      -2.707   9.927  16.394  0.00  0.00    +0.000 A 
ATOM      4  C   UNL     1      -1.604   9.869  17.235  0.00  0.00    +0.000 A 
ATOM      5  C   UNL     1      -1.535  10.750  18.319  0.00  0.00    +0.000 A 
ATOM      6  C   UNL     1      -2.717  11.360  18.769  0.00  0.00    +0.000 A 
ENDROOT
BRANCH   5   7
ATOM      7  N   UNL     1      -0.270  11.418  18.634  0.00  0.00    +0.000 N 
ATOM      8  C   UNL     1       0.706  10.400  19.103  0.00  0.00    +0.000 C 
ATOM      9  C   UNL     1       0.375  10.328  20.560  0.00  0.00    +0.000 A 
ATOM     10  C   UNL     1       0.148   9.214  21.347  0.00  0.00    +0.000 A 
ATOM     11  C   UNL     1      -0.532   9.401  22.554  0.00  0.00    +0.000 A 
ATOM     12  C   UNL     1      -0.928  10.688  22.974  0.00  0.00    +0.000 A 
ATOM     13  C   UNL     1      -0.688  11.820  22.179  0.00  0.00    +0.000 A 
ATOM     14  C   UNL     1      -0.079  11.588  20.956  0.00  0.00    +0.000 A 
ATOM     15  C   UNL     1      -0.323  12.356  19.706  0.00  0.00    +0.000 C 
ATOM     16  O   UNL     1      -0.652  13.523  19.670  0.00  0.00    +0.000 OA
BRANCH  13  17
ATOM     17  C   UNL     1      -1.224  13.171  22.542  0.00  0.00    +0.000 C 
ATOM     18  F   UNL     1      -2.542  13.309  22.231  0.00  0.00    +0.000 F 
ATOM     19  F   UNL     1      -1.145  13.408  23.883  0.00  0.00    +0.000 F 
ENDBRANCH  13  17
ENDBRANCH   5   7
BRANCH   1  20
ATOM     20  C   UNL     1      -5.237  12.073  18.488  0.00  0.00    +0.000 C 
ATOM     21  C   UNL     1      -6.046  12.804  17.372  0.00  0.00    +0.000 C 
ATOM     22  O   UNL     1      -7.231  12.028  17.647  0.00  0.00    +0.000 OA
ATOM     23  C   UNL     1      -6.487  11.160  18.531  0.00  0.00    +0.000 C 
BRANCH  20  24
ATOM     24  C   UNL     1      -5.075  13.012  19.701  0.00  0.00    +0.000 C 
BRANCH  24  30
ATOM     25  C   UNL     1      -7.903  14.375  20.274  0.00  0.00    +0.000 C 
ATOM     26  N   UNL     1      -7.193  13.435  21.099  0.00  0.00    +0.000 N 
ATOM     27  C   UNL     1      -7.599  13.037  22.339  0.00  0.00    +0.000 A 
ATOM     28  N   UNL     1      -6.707  12.228  22.854  0.00  0.00    +0.000 NA
ATOM     29  N   UNL     1      -5.683  12.115  21.946  0.00  0.00    +0.000 NA
ATOM     30  C   UNL     1      -5.986  12.815  20.870  0.00  0.00    +0.000 A 
ENDBRANCH  24  30
ENDBRANCH  20  24
ENDBRANCH   1  20
TORSDOF 5
ENDMDL
MODEL 2
REMARK VINA RESULT:      -7.3      5.588      7.879
REMARK  Name = 
REMARK  6 active torsions:
REMARK  status: ('A' for Active; 'I' for Inactive)
REMARK    1  A    between atoms: C_1  and  N_2
REMARK    2  A    between atoms: C_6  and  C_7
REMARK    3  A    between atoms: C_7  and  C_8
REMARK    4  A    between atoms: C_8  and  C_9
REMARK    5  A    between atoms: C_13  and  N_14
REMARK    6  A    between atoms: C_20  and  C_21
REMARK                            x       y       z     vdW  Elec       q    Type
REMARK                         _______ _______ _______ _____ _____    ______ ____
ROOT
ATOM      1  C   UNL     1       1.550   8.997  19.317  0.00  0.00    +0.000 A 
ATOM      2  C   UNL     1       2.166   9.337  18.094  0.00  0.00    +0.000 A 
ATOM      3  C   UNL     1       2.819   8.388  17.309  0.00  0.00    +0.000 A 
ATOM      4  C   UNL     1       2.997   7.097  17.788  0.00  0.00    +0.000 A 
ATOM      5  C   UNL     1       2.674   6.822  19.121  0.00  0.00    +0.000 A 
ATOM      6  C   UNL     1       1.821   7.703  19.804  0.00  0.00    +0.000 A 
ENDROOT
BRANCH   5   7
ATOM      7  N   UNL     1       3.568   5.989  19.929  0.00  0.00    +0.000 N 
ATOM      8  C   UNL     1       4.653   5.466  19.058  0.00  0.00    +0.000 C 
ATOM      9  C   UNL     1       4.008   4.239  18.496  0.00  0.00    +0.000 A 
ATOM     10  C   UNL     1       3.931   3.821  17.180  0.00  0.00    +0.000 A 
ATOM     11  C   UNL     1       2.950   2.879  16.855  0.00  0.00    +0.000 A 
ATOM     12  C   UNL     1       2.102   2.340  17.846  0.00  0.00    +0.000 A 
ATOM     13  C   UNL     1       2.189   2.758  19.183  0.00  0.00    +0.000 A 
ATOM     14  C   UNL     1       3.121   3.746  19.455  0.00  0.00    +0.000 A 
ATOM     15  C   UNL     1       2.980   4.815  20.480  0.00  0.00    +0.000 C 
ATOM     16  O   UNL     1       2.342   4.702  21.506  0.00  0.00    +0.000 OA
BRANCH  13  17
ATOM     17  C   UNL     1       1.207   2.303  20.220  0.00  0.00    +0.000 C 
ATOM     18  F   UNL     1       1.791   2.087  21.430  0.00  0.00    +0.000 F 
ATOM     19  F   UNL     1       0.238   3.236  20.451  0.00  0.00    +0.000 F 
ENDBRANCH  13  17
ENDBRANCH   5   7
BRANCH   1  20
ATOM     20  C   UNL     1       0.578  10.009  20.090  0.00  0.00    +0.000 C 
ATOM     21  C   UNL     1       0.842  10.116  21.624  0.00  0.00    +0.000 C 
ATOM     22  O   UNL     1       1.030  11.545  21.546  0.00  0.00    +0.000 OA
ATOM     23  C   UNL     1       1.022  11.492  20.102  0.00  0.00    +0.000 C 
BRANCH  20  24
ATOM     24  C   UNL     1      -0.928   9.782  19.845  0.00  0.00    +0.000 C 
BRANCH  24  30
ATOM     25  C   UNL     1      -2.888  12.286  19.568  0.00  0.00    +0.000 C 
ATOM     26  N   UNL     1      -2.394  11.430  18.522  0.00  0.00    +0.000 N 
ATOM     27  C   UNL     1      -2.775  11.514  17.214  0.00  0.00    +0.000 A 
ATOM     28  N   UNL     1      -2.198  10.559  16.528  0.00  0.00    +0.000 NA
ATOM     29  N   UNL     1      -1.446   9.818  17.407  0.00  0.00    +0.000 NA
ATOM     30  C   UNL     1      -1.534  10.360  18.607  0.00  0.00    +0.000 A 
ENDBRANCH  24  30
ENDBRANCH  20  24
ENDBRANCH   1  20
TORSDOF 5
ENDMDL
MODEL 3
REMARK VINA RESULT:      -7.1      5.618      7.855
REMARK  Name = 
REMARK  6 active torsions:
REMARK  status: ('A' for Active; 'I' for Inactive)
REMARK    1  A    between atoms: C_1  and  N_2
REMARK    2  A    between atoms: C_6  and  C_7
REMARK    3  A    between atoms: C_7  and  C_8
REMARK    4  A    between atoms: C_8  and  C_9
REMARK    5  A    between atoms: C_13  and  N_14
REMARK    6  A    between atoms: C_20  and  C_21
REMARK                            x       y       z     vdW  Elec       q    Type
REMARK                         _______ _______ _______ _____ _____    ______ ____
ROOT
ATOM      1  C   UNL     1       1.344   8.839  19.552  0.00  0.00    +0.000 A 
ATOM      2  C   UNL     1       1.931   9.353  18.376  0.00  0.00    +0.000 A 
ATOM      3  C   UNL     1       2.669   8.549  17.508  0.00  0.00    +0.000 A 
ATOM      4  C   UNL     1       2.960   7.237  17.860  0.00  0.00    +0.000 A 
ATOM      5  C   UNL     1       2.659   6.804  19.155  0.00  0.00    +0.000 A 
ATOM      6  C   UNL     1       1.728   7.533  19.911  0.00  0.00    +0.000 A 
ENDROOT
BRANCH   5   7
ATOM      7  N   UNL     1       3.622   5.977  19.888  0.00  0.00    +0.000 N 
ATOM      8  C   UNL     1       4.641   5.468  18.933  0.00  0.00    +0.000 C 
ATOM      9  C   UNL     1       3.967   4.236  18.417  0.00  0.00    +0.000 A 
ATOM     10  C   UNL     1       3.791   3.822  17.109  0.00  0.00    +0.000 A 
ATOM     11  C   UNL     1       2.798   2.871  16.858  0.00  0.00    +0.000 A 
ATOM     12  C   UNL     1       2.035   2.320  17.910  0.00  0.00    +0.000 A 
ATOM     13  C   UNL     1       2.221   2.735  19.238  0.00  0.00    +0.000 A 
ATOM     14  C   UNL     1       3.162   3.732  19.441  0.00  0.00    +0.000 A 
ATOM     15  C   UNL     1       3.090   4.795  20.478  0.00  0.00    +0.000 C 
ATOM     16  O   UNL     1       2.535   4.672  21.550  0.00  0.00    +0.000 OA
BRANCH  13  17
ATOM     17  C   UNL     1       1.328   2.266  20.347  0.00  0.00    +0.000 C 
ATOM     18  F   UNL     1       2.001   2.087  21.516  0.00  0.00    +0.000 F 
ATOM     19  F   UNL     1       0.348   3.172  20.631  0.00  0.00    +0.000 F 
ENDBRANCH  13  17
ENDBRANCH   5   7
BRANCH   1  20
ATOM     20  C   UNL     1       0.283   9.678  20.409  0.00  0.00    +0.000 C 
ATOM     21  C   UNL     1      -0.407   8.873  21.555  0.00  0.00    +0.000 C 
ATOM     22  O   UNL     1       0.019   9.825  22.553  0.00  0.00    +0.000 OA
ATOM     23  C   UNL     1       0.865  10.493  21.590  0.00  0.00    +0.000 C 
BRANCH  20  24
ATOM     24  C   UNL     1      -0.792  10.412  19.581  0.00  0.00    +0.000 C 
BRANCH  24  30
ATOM     25  C   UNL     1      -2.326  12.511  21.431  0.00  0.00    +0.000 C 
ATOM     26  N   UNL     1      -1.437  12.785  20.334  0.00  0.00    +0.000 N 
ATOM     27  C   UNL     1      -1.176  14.032  19.847  0.00  0.00    +0.000 A 
ATOM     28  N   UNL     1      -0.381  13.941  18.809  0.00  0.00    +0.000 NA
ATOM     29  N   UNL     1      -0.139  12.606  18.595  0.00  0.00    +0.000 NA
ATOM     30  C   UNL     1      -0.746  11.905  19.533  0.00  0.00    +0.000 A 
ENDBRANCH  24  30
ENDBRANCH  20  24
ENDBRANCH   1  20
TORSDOF 5
ENDMDL
MODEL 4
REMARK VINA RESULT:      -7.0      5.627      7.824
REMARK  Name = 
REMARK  6 active torsions:
REMARK  status: ('A' for Active; 'I' for Inactive)
REMARK    1  A    between atoms: C_1  and  N_2
REMARK    2  A    between atoms: C_6  and  C_7
REMARK    3  A    between atoms: C_7  and  C_8
REMARK    4  A    between atoms: C_8  and  C_9
REMARK    5  A    between atoms: C_13  and  N_14
REMARK    6  A    between atoms: C_20  and  C_21
REMARK                            x       y       z     vdW  Elec       q    Type
REMARK                         _______ _______ _______ _____ _____    ______ ____
ROOT
ATOM      1  C   UNL     1       1.319   8.851  19.537  0.00  0.00    +0.000 A 
ATOM      2  C   UNL     1       1.919   9.377  18.373  0.00  0.00    +0.000 A 
ATOM      3  C   UNL     1       2.675   8.584  17.510  0.00  0.00    +0.000 A 
ATOM      4  C   UNL     1       2.970   7.272  17.856  0.00  0.00    +0.000 A 
ATOM      5  C   UNL     1       2.654   6.827  19.144  0.00  0.00    +0.000 A 
ATOM      6  C   UNL     1       1.708   7.544  19.892  0.00  0.00    +0.000 A 
ENDROOT
BRANCH   5   7
ATOM      7  N   UNL     1       3.612   6.001  19.884  0.00  0.00    +0.000 N 
ATOM      8  C   UNL     1       4.635   5.488  18.935  0.00  0.00    +0.000 C 
ATOM      9  C   UNL     1       3.961   4.255  18.420  0.00  0.00    +0.000 A 
ATOM     10  C   UNL     1       3.792   3.837  17.112  0.00  0.00    +0.000 A 
ATOM     11  C   UNL     1       2.798   2.887  16.860  0.00  0.00    +0.000 A 
ATOM     12  C   UNL     1       2.029   2.341  17.909  0.00  0.00    +0.000 A 
ATOM     13  C   UNL     1       2.210   2.759  19.237  0.00  0.00    +0.000 A 
ATOM     14  C   UNL     1       3.151   3.755  19.441  0.00  0.00    +0.000 A 
ATOM     15  C   UNL     1       3.076   4.822  20.475  0.00  0.00    +0.000 C 
ATOM     16  O   UNL     1       2.515   4.703  21.545  0.00  0.00    +0.000 OA
BRANCH  13  17
ATOM     17  C   UNL     1       1.311   2.294  20.343  0.00  0.00    +0.000 C 
ATOM     18  F   UNL     1       1.984   2.082  21.506  0.00  0.00    +0.000 F 
ATOM     19  F   UNL     1       0.354   3.220  20.646  0.00  0.00    +0.000 F 
ENDBRANCH  13  17
ENDBRANCH   5   7
BRANCH   1  20
ATOM     20  C   UNL     1       0.241   9.677  20.386  0.00  0.00    +0.000 C 
ATOM     21  C   UNL     1      -0.409   8.879  21.560  0.00  0.00    +0.000 C 
ATOM     22  O   UNL     1      -0.003   9.869  22.528  0.00  0.00    +0.000 OA
ATOM     23  C   UNL     1       0.810  10.539  21.539  0.00  0.00    +0.000 C 
BRANCH  20  24
ATOM     24  C   UNL     1      -0.866  10.353  19.552  0.00  0.00    +0.000 C 
BRANCH  24  30
ATOM     25  C   UNL     1       0.716  12.945  18.570  0.00  0.00    +0.000 C 
ATOM     26  N   UNL     1      -0.457  12.888  19.401  0.00  0.00    +0.000 N 
ATOM     27  C   UNL     1      -1.039  13.974  19.988  0.00  0.00    +0.000 A 
ATOM     28  N   UNL     1      -2.045  13.584  20.730  0.00  0.00    +0.000 NA
ATOM     29  N   UNL     1      -2.108  12.215  20.651  0.00  0.00    +0.000 NA
ATOM     30  C   UNL     1      -1.172  11.791  19.823  0.00  0.00    +0.000 A 
ENDBRANCH  24  30
ENDBRANCH  20  24
ENDBRANCH   1  20
TORSDOF 5
ENDMDL
MODEL 5
REMARK VINA RESULT:      -7.0      1.872      2.575
REMARK  Name = 
REMARK  6 active torsions:
REMARK  status: ('A' for Active; 'I' for Inactive)
REMARK    1  A    between atoms: C_1  and  N_2
REMARK    2  A    between atoms: C_6  and  C_7
REMARK    3  A    between atoms: C_7  and  C_8
REMARK    4  A    between atoms: C_8  and  C_9
REMARK    5  A    between atoms: C_13  and  N_14
REMARK    6  A    between atoms: C_20  and  C_21
REMARK                            x       y       z     vdW  Elec       q    Type
REMARK                         _______ _______ _______ _____ _____    ______ ____
ROOT
ATOM      1  C   UNL     1      -4.679  11.198  18.184  0.00  0.00    +0.000 A 
ATOM      2  C   UNL     1      -4.474  10.717  16.873  0.00  0.00    +0.000 A 
ATOM      3  C   UNL     1      -3.213  10.334  16.417  0.00  0.00    +0.000 A 
ATOM      4  C   UNL     1      -2.095  10.551  17.211  0.00  0.00    +0.000 A 
ATOM      5  C   UNL     1      -2.234  11.311  18.378  0.00  0.00    +0.000 A 
ATOM      6  C   UNL     1      -3.515  11.478  18.926  0.00  0.00    +0.000 A 
ENDROOT
BRANCH   5   7
ATOM      7  N   UNL     1      -1.220  12.312  18.719  0.00  0.00    +0.000 N 
ATOM      8  C   UNL     1       0.107  11.646  18.790  0.00  0.00    +0.000 C 
ATOM      9  C   UNL     1       0.110  11.154  20.203  0.00  0.00    +0.000 A 
ATOM     10  C   UNL     1       0.417   9.894  20.686  0.00  0.00    +0.000 A 
ATOM     11  C   UNL     1      -0.036   9.563  21.966  0.00  0.00    +0.000 A 
ATOM     12  C   UNL     1      -0.740  10.498  22.754  0.00  0.00    +0.000 A 
ATOM     13  C   UNL     1      -1.043  11.779  22.266  0.00  0.00    +0.000 A 
ATOM     14  C   UNL     1      -0.643  12.048  20.966  0.00  0.00    +0.000 A 
ATOM     15  C   UNL     1      -1.364  12.918  20.000  0.00  0.00    +0.000 C 
ATOM     16  O   UNL     1      -2.056  13.865  20.312  0.00  0.00    +0.000 OA
BRANCH  13  17
ATOM     17  C   UNL     1      -1.908  12.734  23.031  0.00  0.00    +0.000 C 
ATOM     18  F   UNL     1      -2.864  12.098  23.762  0.00  0.00    +0.000 F 
ATOM     19  F   UNL     1      -1.190  13.461  23.936  0.00  0.00    +0.000 F 
ENDBRANCH  13  17
ENDBRANCH   5   7
BRANCH   1  20
ATOM     20  C   UNL     1      -6.145  11.386  18.801  0.00  0.00    +0.000 C 
ATOM     21  C   UNL     1      -6.756  10.094  19.427  0.00  0.00    +0.000 C 
ATOM     22  O   UNL     1      -6.957  10.742  20.701  0.00  0.00    +0.000 OA
ATOM     23  C   UNL     1      -6.200  11.893  20.263  0.00  0.00    +0.000 C 
BRANCH  20  24
ATOM     24  C   UNL     1      -7.175  12.030  17.850  0.00  0.00    +0.000 C 
BRANCH  24  30
ATOM     25  C   UNL     1      -7.892  14.628  19.560  0.00  0.00    +0.000 C 
ATOM     26  N   UNL     1      -7.331  14.568  18.236  0.00  0.00    +0.000 N 
ATOM     27  C   UNL     1      -7.094  15.658  17.450  0.00  0.00    +0.000 A 
ATOM     28  N   UNL     1      -6.643  15.267  16.283  0.00  0.00    +0.000 NA
ATOM     29  N   UNL     1      -6.610  13.894  16.295  0.00  0.00    +0.000 NA
ATOM     30  C   UNL     1      -6.993  13.467  17.483  0.00  0.00    +0.000 A 
ENDBRANCH  24  30
ENDBRANCH  20  24
ENDBRANCH   1  20
TORSDOF 5
ENDMDL
MODEL 6
REMARK VINA RESULT:      -6.9      5.613      7.741
REMARK  Name = 
REMARK  6 active torsions:
REMARK  status: ('A' for Active; 'I' for Inactive)
REMARK    1  A    between atoms: C_1  and  N_2
REMARK    2  A    between atoms: C_6  and  C_7
REMARK    3  A    between atoms: C_7  and  C_8
REMARK    4  A    between atoms: C_8  and  C_9
REMARK    5  A    between atoms: C_13  and  N_14
REMARK    6  A    between atoms: C_20  and  C_21
REMARK                            x       y       z     vdW  Elec       q    Type
REMARK                         _______ _______ _______ _____ _____    ______ ____
ROOT
ATOM      1  C   UNL     1       1.474   8.981  19.473  0.00  0.00    +0.000 A 
ATOM      2  C   UNL     1       2.043   9.353  18.237  0.00  0.00    +0.000 A 
ATOM      3  C   UNL     1       2.680   8.428  17.410  0.00  0.00    +0.000 A 
ATOM      4  C   UNL     1       2.890   7.131  17.856  0.00  0.00    +0.000 A 
ATOM      5  C   UNL     1       2.617   6.826  19.194  0.00  0.00    +0.000 A 
ATOM      6  C   UNL     1       1.778   7.682  19.924  0.00  0.00    +0.000 A 
ENDROOT
BRANCH   5   7
ATOM      7  N   UNL     1       3.549   5.988  19.953  0.00  0.00    +0.000 N 
ATOM      8  C   UNL     1       4.617   5.507  19.038  0.00  0.00    +0.000 C 
ATOM      9  C   UNL     1       3.977   4.283  18.463  0.00  0.00    +0.000 A 
ATOM     10  C   UNL     1       3.868   3.898  17.138  0.00  0.00    +0.000 A 
ATOM     11  C   UNL     1       2.894   2.948  16.818  0.00  0.00    +0.000 A 
ATOM     12  C   UNL     1       2.085   2.369  17.818  0.00  0.00    +0.000 A 
ATOM     13  C   UNL     1       2.204   2.753  19.163  0.00  0.00    +0.000 A 
ATOM     14  C   UNL     1       3.127   3.751  19.434  0.00  0.00    +0.000 A 
ATOM     15  C   UNL     1       2.997   4.789  20.490  0.00  0.00    +0.000 C 
ATOM     16  O   UNL     1       2.392   4.638  21.531  0.00  0.00    +0.000 OA
BRANCH  13  17
ATOM     17  C   UNL     1       1.261   2.254  20.216  0.00  0.00    +0.000 C 
ATOM     18  F   UNL     1       1.878   2.052  21.413  0.00  0.00    +0.000 F 
ATOM     19  F   UNL     1       0.262   3.147  20.473  0.00  0.00    +0.000 F 
ENDBRANCH  13  17
ENDBRANCH   5   7
BRANCH   1  20
ATOM     20  C   UNL     1       0.518   9.965  20.300  0.00  0.00    +0.000 C 
ATOM     21  C   UNL     1      -0.719   9.271  20.950  0.00  0.00    +0.000 C 
ATOM     22  O   UNL     1      -0.357   9.739  22.266  0.00  0.00    +0.000 OA
ATOM     23  C   UNL     1       0.918  10.210  21.775  0.00  0.00    +0.000 C 
BRANCH  20  24
ATOM     24  C   UNL     1       0.056  11.222  19.534  0.00  0.00    +0.000 C 
BRANCH  24  30
ATOM     25  C   UNL     1      -1.708   9.947  17.200  0.00  0.00    +0.000 C 
ATOM     26  N   UNL     1      -2.136  10.841  18.243  0.00  0.00    +0.000 N 
ATOM     27  C   UNL     1      -3.391  11.365  18.341  0.00  0.00    +0.000 A 
ATOM     28  N   UNL     1      -3.444  12.189  19.359  0.00  0.00    +0.000 NA
ATOM     29  N   UNL     1      -2.192  12.227  19.921  0.00  0.00    +0.000 NA
ATOM     30  C   UNL     1      -1.406  11.389  19.273  0.00  0.00    +0.000 A 
ENDBRANCH  24  30
ENDBRANCH  20  24
ENDBRANCH   1  20
TORSDOF 5
ENDMDL
MODEL 7
REMARK VINA RESULT:      -6.8      4.928      8.964
REMARK  Name = 
REMARK  6 active torsions:
REMARK  status: ('A' for Active; 'I' for Inactive)
REMARK    1  A    between atoms: C_1  and  N_2
REMARK    2  A    between atoms: C_6  and  C_7
REMARK    3  A    between atoms: C_7  and  C_8
REMARK    4  A    between atoms: C_8  and  C_9
REMARK    5  A    between atoms: C_13  and  N_14
REMARK    6  A    between atoms: C_20  and  C_21
REMARK                            x       y       z     vdW  Elec       q    Type
REMARK                         _______ _______ _______ _____ _____    ______ ____
ROOT
ATOM      1  C   UNL     1       2.064   6.875  19.060  0.00  0.00    +0.000 A 
ATOM      2  C   UNL     1       1.877   7.450  17.785  0.00  0.00    +0.000 A 
ATOM      3  C   UNL     1       1.858   8.831  17.594  0.00  0.00    +0.000 A 
ATOM      4  C   UNL     1       1.888   9.681  18.691  0.00  0.00    +0.000 A 
ATOM      5  C   UNL     1       1.755   9.135  19.972  0.00  0.00    +0.000 A 
ATOM      6  C   UNL     1       2.009   7.765  20.150  0.00  0.00    +0.000 A 
ENDROOT
BRANCH   5   7
ATOM      7  N   UNL     1       0.899   9.795  20.960  0.00  0.00    +0.000 N 
ATOM      8  C   UNL     1      -0.486   9.276  20.817  0.00  0.00    +0.000 C 
ATOM      9  C   UNL     1      -1.023  10.172  19.746  0.00  0.00    +0.000 A 
ATOM     10  C   UNL     1      -1.702   9.835  18.589  0.00  0.00    +0.000 A 
ATOM     11  C   UNL     1      -1.742  10.783  17.562  0.00  0.00    +0.000 A 
ATOM     12  C   UNL     1      -1.152  12.054  17.721  0.00  0.00    +0.000 A 
ATOM     13  C   UNL     1      -0.471  12.398  18.900  0.00  0.00    +0.000 A 
ATOM     14  C   UNL     1      -0.387  11.409  19.867  0.00  0.00    +0.000 A 
ATOM     15  C   UNL     1       0.752  11.203  20.801  0.00  0.00    +0.000 C 
ATOM     16  O   UNL     1       1.482  12.087  21.199  0.00  0.00    +0.000 OA
BRANCH  13  17
ATOM     17  C   UNL     1       0.281  13.688  19.034  0.00  0.00    +0.000 C 
ATOM     18  F   UNL     1       1.456  13.678  18.347  0.00  0.00    +0.000 F 
ATOM     19  F   UNL     1      -0.422  14.743  18.528  0.00  0.00    +0.000 F 
ENDBRANCH  13  17
ENDBRANCH   5   7
BRANCH   1  20
ATOM     20  C   UNL     1       2.352   5.312  19.254  0.00  0.00    +0.000 C 
ATOM     21  C   UNL     1       2.668   4.888  20.722  0.00  0.00    +0.000 C 
ATOM     22  O   UNL     1       1.596   3.923  20.732  0.00  0.00    +0.000 OA
ATOM     23  C   UNL     1       1.105   4.419  19.466  0.00  0.00    +0.000 C 
BRANCH  20  24
ATOM     24  C   UNL     1       3.421   4.723  18.310  0.00  0.00    +0.000 C 
BRANCH  24  30
ATOM     25  C   UNL     1       5.247   6.811  16.733  0.00  0.00    +0.000 C 
ATOM     26  N   UNL     1       5.619   5.974  17.842  0.00  0.00    +0.000 N 
ATOM     27  C   UNL     1       6.882   5.883  18.349  0.00  0.00    +0.000 A 
ATOM     28  N   UNL     1       6.906   4.992  19.309  0.00  0.00    +0.000 NA
ATOM     29  N   UNL     1       5.641   4.469  19.415  0.00  0.00    +0.000 NA
ATOM     30  C   UNL     1       4.851   5.083  18.555  0.00  0.00    +0.000 A 
ENDBRANCH  24  30
ENDBRANCH  20  24
ENDBRANCH   1  20
TORSDOF 5
ENDMDL
MODEL 8
REMARK VINA RESULT:      -6.8      5.721      7.859
REMARK  Name = 
REMARK  6 active torsions:
REMARK  status: ('A' for Active; 'I' for Inactive)
REMARK    1  A    between atoms: C_1  and  N_2
REMARK    2  A    between atoms: C_6  and  C_7
REMARK    3  A    between atoms: C_7  and  C_8
REMARK    4  A    between atoms: C_8  and  C_9
REMARK    5  A    between atoms: C_13  and  N_14
REMARK    6  A    between atoms: C_20  and  C_21
REMARK                            x       y       z     vdW  Elec       q    Type
REMARK                         _______ _______ _______ _____ _____    ______ ____
ROOT
ATOM      1  C   UNL     1       1.458   9.062  19.383  0.00  0.00    +0.000 A 
ATOM      2  C   UNL     1       2.092   9.411  18.171  0.00  0.00    +0.000 A 
ATOM      3  C   UNL     1       2.759   8.468  17.390  0.00  0.00    +0.000 A 
ATOM      4  C   UNL     1       2.933   7.175  17.864  0.00  0.00    +0.000 A 
ATOM      5  C   UNL     1       2.590   6.891  19.190  0.00  0.00    +0.000 A 
ATOM      6  C   UNL     1       1.724   7.766  19.865  0.00  0.00    +0.000 A 
ENDROOT
BRANCH   5   7
ATOM      7  N   UNL     1       3.474   6.055  20.007  0.00  0.00    +0.000 N 
ATOM      8  C   UNL     1       4.672   5.698  19.203  0.00  0.00    +0.000 C 
ATOM      9  C   UNL     1       4.185   4.483  18.479  0.00  0.00    +0.000 A 
ATOM     10  C   UNL     1       4.261   4.185  17.130  0.00  0.00    +0.000 A 
ATOM     11  C   UNL     1       3.394   3.208  16.632  0.00  0.00    +0.000 A 
ATOM     12  C   UNL     1       2.508   2.517  17.486  0.00  0.00    +0.000 A 
ATOM     13  C   UNL     1       2.439   2.814  18.857  0.00  0.00    +0.000 A 
ATOM     14  C   UNL     1       3.259   3.840  19.301  0.00  0.00    +0.000 A 
ATOM     15  C   UNL     1       2.938   4.794  20.396  0.00  0.00    +0.000 C 
ATOM     16  O   UNL     1       2.222   4.539  21.342  0.00  0.00    +0.000 OA
BRANCH  13  17
ATOM     17  C   UNL     1       1.410   2.193  19.751  0.00  0.00    +0.000 C 
ATOM     18  F   UNL     1       0.252   2.908  19.787  0.00  0.00    +0.000 F 
ATOM     19  F   UNL     1       1.048   0.947  19.325  0.00  0.00    +0.000 F 
ENDBRANCH  13  17
ENDBRANCH   5   7
BRANCH   1  20
ATOM     20  C   UNL     1       0.471  10.066  20.147  0.00  0.00    +0.000 C 
ATOM     21  C   UNL     1      -0.682   9.369  20.933  0.00  0.00    +0.000 C 
ATOM     22  O   UNL     1      -0.296  10.005  22.170  0.00  0.00    +0.000 OA
ATOM     23  C   UNL     1       0.919  10.501  21.564  0.00  0.00    +0.000 C 
BRANCH  20  24
ATOM     24  C   UNL     1      -0.114  11.196  19.274  0.00  0.00    +0.000 C 
BRANCH  24  30
ATOM     25  C   UNL     1      -3.045  12.370  19.737  0.00  0.00    +0.000 C 
ATOM     26  N   UNL     1      -2.620  11.422  18.742  0.00  0.00    +0.000 N 
ATOM     27  C   UNL     1      -3.459  10.794  17.869  0.00  0.00    +0.000 A 
ATOM     28  N   UNL     1      -2.777   9.947  17.137  0.00  0.00    +0.000 NA
ATOM     29  N   UNL     1      -1.471  10.001  17.558  0.00  0.00    +0.000 NA
ATOM     30  C   UNL     1      -1.364  10.914  18.504  0.00  0.00    +0.000 A 
ENDBRANCH  24  30
ENDBRANCH  20  24
ENDBRANCH   1  20
TORSDOF 5
ENDMDL
MODEL 9
REMARK VINA RESULT:      -6.8      1.462      1.856
REMARK  Name = 
REMARK  6 active torsions:
REMARK  status: ('A' for Active; 'I' for Inactive)
REMARK    1  A    between atoms: C_1  and  N_2
REMARK    2  A    between atoms: C_6  and  C_7
REMARK    3  A    between atoms: C_7  and  C_8
REMARK    4  A    between atoms: C_8  and  C_9
REMARK    5  A    between atoms: C_13  and  N_14
REMARK    6  A    between atoms: C_20  and  C_21
REMARK                            x       y       z     vdW  Elec       q    Type
REMARK                         _______ _______ _______ _____ _____    ______ ____
ROOT
ATOM      1  C   UNL     1      -4.031  11.872  18.407  0.00  0.00    +0.000 A 
ATOM      2  C   UNL     1      -3.784  11.530  17.061  0.00  0.00    +0.000 A 
ATOM      3  C   UNL     1      -2.583  10.948  16.656  0.00  0.00    +0.000 A 
ATOM      4  C   UNL     1      -1.538  10.816  17.561  0.00  0.00    +0.000 A 
ATOM      5  C   UNL     1      -1.648  11.433  18.812  0.00  0.00    +0.000 A 
ATOM      6  C   UNL     1      -2.923  11.799  19.273  0.00  0.00    +0.000 A 
ENDROOT
BRANCH   5   7
ATOM      7  N   UNL     1      -0.498  12.141  19.378  0.00  0.00    +0.000 N 
ATOM      8  C   UNL     1       0.743  11.620  18.747  0.00  0.00    +0.000 C 
ATOM      9  C   UNL     1       1.037  10.438  19.616  0.00  0.00    +0.000 A 
ATOM     10  C   UNL     1       1.336   9.139  19.248  0.00  0.00    +0.000 A 
ATOM     11  C   UNL     1       1.171   8.138  20.209  0.00  0.00    +0.000 A 
ATOM     12  C   UNL     1       0.760   8.450  21.522  0.00  0.00    +0.000 A 
ATOM     13  C   UNL     1       0.466   9.771  21.898  0.00  0.00    +0.000 A 
ATOM     14  C   UNL     1       0.569  10.727  20.900  0.00  0.00    +0.000 A 
ATOM     15  C   UNL     1      -0.280  11.941  20.771  0.00  0.00    +0.000 C 
ATOM     16  O   UNL     1      -0.791  12.524  21.705  0.00  0.00    +0.000 OA
BRANCH  13  17
ATOM     17  C   UNL     1      -0.105  10.103  23.243  0.00  0.00    +0.000 C 
ATOM     18  F   UNL     1      -1.465  10.056  23.257  0.00  0.00    +0.000 F 
ATOM     19  F   UNL     1       0.295   9.217  24.201  0.00  0.00    +0.000 F 
ENDBRANCH  13  17
ENDBRANCH   5   7
BRANCH   1  20
ATOM     20  C   UNL     1      -5.487  12.290  18.925  0.00  0.00    +0.000 C 
ATOM     21  C   UNL     1      -6.516  12.594  17.792  0.00  0.00    +0.000 C 
ATOM     22  O   UNL     1      -7.444  11.611  18.296  0.00  0.00    +0.000 OA
ATOM     23  C   UNL     1      -6.455  11.120  19.228  0.00  0.00    +0.000 C 
BRANCH  20  24
ATOM     24  C   UNL     1      -5.509  13.436  19.957  0.00  0.00    +0.000 C 
BRANCH  24  30
ATOM     25  C   UNL     1      -7.908  14.326  21.864  0.00  0.00    +0.000 C 
ATOM     26  N   UNL     1      -6.775  13.504  22.195  0.00  0.00    +0.000 N 
ATOM     27  C   UNL     1      -6.503  13.035  23.447  0.00  0.00    +0.000 A 
ATOM     28  N   UNL     1      -5.372  12.375  23.432  0.00  0.00    +0.000 NA
ATOM     29  N   UNL     1      -4.880  12.434  22.152  0.00  0.00    +0.000 NA
ATOM     30  C   UNL     1      -5.739  13.086  21.392  0.00  0.00    +0.000 A 
ENDBRANCH  24  30
ENDBRANCH  20  24
ENDBRANCH   1  20
TORSDOF 5
ENDMDL
