MODEL 1
REMARK VINA RESULT:      -8.3      0.000      0.000
REMARK  Name = 
REMARK  7 active torsions:
REMARK  status: ('A' for Active; 'I' for Inactive)
REMARK    1  A    between atoms: C_1  and  O_2
REMARK    2  A    between atoms: O_2  and  C_3
REMARK    3  A    between atoms: C_3  and  C_4
REMARK    4  A    between atoms: C_4  and  N_5
REMARK    5  A    between atoms: C_4  and  C_18
REMARK    6  A    between atoms: C_6  and  C_8
REMARK    7  A    between atoms: C_22  and  C_23
REMARK                            x       y       z     vdW  Elec       q    Type
REMARK                         _______ _______ _______ _____ _____    ______ ____
ROOT
ATOM      1  N   UNL     1       5.547   4.696  16.628  0.00  0.00    +0.000 N 
ATOM      2  C   UNL     1       5.399   4.358  17.953  0.00  0.00    +0.000 C 
ATOM      3  O   UNL     1       6.312   4.370  18.772  0.00  0.00    +0.000 OA
ATOM      4  H   UNL     1       4.723   4.958  16.107  0.00  0.00    +0.000 HD
ENDROOT
BRANCH   2   5
ATOM      5  C   UNL     1       3.993   3.979  18.332  0.00  0.00    +0.000 A 
ATOM      6  C   UNL     1       2.955   3.746  17.327  0.00  0.00    +0.000 A 
ATOM      7  C   UNL     1       1.715   3.360  17.661  0.00  0.00    +0.000 A 
ATOM      8  C   UNL     1       1.422   3.148  19.088  0.00  0.00    +0.000 A 
ATOM      9  N   UNL     1       0.301   2.755  19.612  0.00  0.00    +0.000 NA
ATOM     10  N   UNL     1       0.578   2.714  20.957  0.00  0.00    +0.000 N 
ATOM     11  C   UNL     1       1.901   3.095  21.211  0.00  0.00    +0.000 A 
ATOM     12  O   UNL     1       2.434   3.150  22.305  0.00  0.00    +0.000 OA
ATOM     13  N   UNL     1       2.428   3.374  19.972  0.00  0.00    +0.000 N 
ATOM     14  C   UNL     1       3.696   3.772  19.634  0.00  0.00    +0.000 A 
ATOM     15  H   UNL     1      -0.101   2.420  21.645  0.00  0.00    +0.000 HD
ENDBRANCH   2   5
BRANCH   1  16
ATOM     16  C   UNL     1       6.819   5.115  16.043  0.00  0.00    +0.000 C 
BRANCH  16  17
ATOM     17  C   UNL     1       6.933   4.753  14.564  0.00  0.00    +0.000 A 
ATOM     18  C   UNL     1       7.960   5.332  13.804  0.00  0.00    +0.000 A 
ATOM     19  C   UNL     1       7.991   5.194  12.417  0.00  0.00    +0.000 A 
ATOM     20  C   UNL     1       6.992   4.476  11.763  0.00  0.00    +0.000 A 
ATOM     21  C   UNL     1       5.964   3.864  12.494  0.00  0.00    +0.000 A 
ATOM     22  C   UNL     1       5.952   3.994  13.896  0.00  0.00    +0.000 A 
BRANCH  21  23
ATOM     23  C   UNL     1       4.855   3.122  11.786  0.00  0.00    +0.000 C 
ATOM     24  F   UNL     1       4.406   3.749  10.662  0.00  0.00    +0.000 F 
ATOM     25  F   UNL     1       5.219   1.870  11.398  0.00  0.00    +0.000 F 
ATOM     26  F   UNL     1       3.757   2.961  12.580  0.00  0.00    +0.000 F 
ENDBRANCH  21  23
ENDBRANCH  16  17
BRANCH  16  27
ATOM     27  C   UNL     1       6.987   6.652  16.153  0.00  0.00    +0.000 C 
BRANCH  27  29
ATOM     28  C   UNL     1       7.750   8.280  17.675  0.00  0.00    +0.000 C 
ATOM     29  O   UNL     1       7.980   6.984  17.129  0.00  0.00    +0.000 OA
ENDBRANCH  27  29
ENDBRANCH  16  27
ENDBRANCH   1  16
TORSDOF 6
ENDMDL
MODEL 2
REMARK VINA RESULT:      -7.9      0.892      1.151
REMARK  Name = 
REMARK  7 active torsions:
REMARK  status: ('A' for Active; 'I' for Inactive)
REMARK    1  A    between atoms: C_1  and  O_2
REMARK    2  A    between atoms: O_2  and  C_3
REMARK    3  A    between atoms: C_3  and  C_4
REMARK    4  A    between atoms: C_4  and  N_5
REMARK    5  A    between atoms: C_4  and  C_18
REMARK    6  A    between atoms: C_6  and  C_8
REMARK    7  A    between atoms: C_22  and  C_23
REMARK                            x       y       z     vdW  Elec       q    Type
REMARK                         _______ _______ _______ _____ _____    ______ ____
ROOT
ATOM      1  N   UNL     1       5.699   4.477  16.520  0.00  0.00    +0.000 N 
ATOM      2  C   UNL     1       5.620   4.174  17.860  0.00  0.00    +0.000 C 
ATOM      3  O   UNL     1       6.542   4.326  18.655  0.00  0.00    +0.000 OA
ATOM      4  H   UNL     1       4.839   4.618  16.012  0.00  0.00    +0.000 HD
ENDROOT
BRANCH   2   5
ATOM      5  C   UNL     1       4.278   3.645  18.287  0.00  0.00    +0.000 A 
ATOM      6  C   UNL     1       3.810   2.315  17.899  0.00  0.00    +0.000 A 
ATOM      7  C   UNL     1       2.635   1.821  18.319  0.00  0.00    +0.000 A 
ATOM      8  C   UNL     1       1.823   2.657  19.219  0.00  0.00    +0.000 A 
ATOM      9  N   UNL     1       0.677   2.357  19.752  0.00  0.00    +0.000 NA
ATOM     10  N   UNL     1       0.376   3.469  20.501  0.00  0.00    +0.000 N 
ATOM     11  C   UNL     1       1.382   4.436  20.394  0.00  0.00    +0.000 A 
ATOM     12  O   UNL     1       1.396   5.521  20.948  0.00  0.00    +0.000 OA
ATOM     13  N   UNL     1       2.314   3.880  19.549  0.00  0.00    +0.000 N 
ATOM     14  C   UNL     1       3.513   4.387  19.118  0.00  0.00    +0.000 A 
ATOM     15  H   UNL     1      -0.461   3.538  21.063  0.00  0.00    +0.000 HD
ENDBRANCH   2   5
BRANCH   1  16
ATOM     16  C   UNL     1       6.898   5.023  15.889  0.00  0.00    +0.000 C 
BRANCH  16  17
ATOM     17  C   UNL     1       6.974   4.703  14.398  0.00  0.00    +0.000 A 
ATOM     18  C   UNL     1       7.965   5.325  13.624  0.00  0.00    +0.000 A 
ATOM     19  C   UNL     1       7.955   5.225  12.233  0.00  0.00    +0.000 A 
ATOM     20  C   UNL     1       6.952   4.503  11.590  0.00  0.00    +0.000 A 
ATOM     21  C   UNL     1       5.960   3.849  12.334  0.00  0.00    +0.000 A 
ATOM     22  C   UNL     1       5.990   3.941  13.739  0.00  0.00    +0.000 A 
BRANCH  21  23
ATOM     23  C   UNL     1       4.846   3.101  11.640  0.00  0.00    +0.000 C 
ATOM     24  F   UNL     1       5.197   1.848  11.236  0.00  0.00    +0.000 F 
ATOM     25  F   UNL     1       3.743   2.950  12.421  0.00  0.00    +0.000 F 
ATOM     26  F   UNL     1       4.421   3.745  10.515  0.00  0.00    +0.000 F 
ENDBRANCH  21  23
ENDBRANCH  16  17
BRANCH  16  27
ATOM     27  C   UNL     1       6.932   6.566  16.030  0.00  0.00    +0.000 C 
BRANCH  27  29
ATOM     28  C   UNL     1       7.665   8.166  17.596  0.00  0.00    +0.000 C 
ATOM     29  O   UNL     1       7.999   6.972  16.894  0.00  0.00    +0.000 OA
ENDBRANCH  27  29
ENDBRANCH  16  27
ENDBRANCH   1  16
TORSDOF 6
ENDMDL
MODEL 3
REMARK VINA RESULT:      -7.7      6.718      8.597
REMARK  Name = 
REMARK  7 active torsions:
REMARK  status: ('A' for Active; 'I' for Inactive)
REMARK    1  A    between atoms: C_1  and  O_2
REMARK    2  A    between atoms: O_2  and  C_3
REMARK    3  A    between atoms: C_3  and  C_4
REMARK    4  A    between atoms: C_4  and  N_5
REMARK    5  A    between atoms: C_4  and  C_18
REMARK    6  A    between atoms: C_6  and  C_8
REMARK    7  A    between atoms: C_22  and  C_23
REMARK                            x       y       z     vdW  Elec       q    Type
REMARK                         _______ _______ _______ _____ _____    ______ ____
ROOT
ATOM      1  N   UNL     1       1.596   8.590  19.499  0.00  0.00    +0.000 N 
ATOM      2  C   UNL     1       2.310   8.601  18.323  0.00  0.00    +0.000 C 
ATOM      3  O   UNL     1       2.515   9.607  17.652  0.00  0.00    +0.000 OA
ATOM      4  H   UNL     1       1.733   7.817  20.132  0.00  0.00    +0.000 HD
ENDROOT
BRANCH   2   5
ATOM      5  C   UNL     1       2.845   7.252  17.922  0.00  0.00    +0.000 A 
ATOM      6  C   UNL     1       4.150   7.095  17.280  0.00  0.00    +0.000 A 
ATOM      7  C   UNL     1       4.649   5.890  16.967  0.00  0.00    +0.000 A 
ATOM      8  C   UNL     1       3.849   4.704  17.315  0.00  0.00    +0.000 A 
ATOM      9  N   UNL     1       4.162   3.459  17.120  0.00  0.00    +0.000 NA
ATOM     10  N   UNL     1       3.084   2.779  17.634  0.00  0.00    +0.000 N 
ATOM     11  C   UNL     1       2.124   3.664  18.139  0.00  0.00    +0.000 A 
ATOM     12  O   UNL     1       1.067   3.354  18.660  0.00  0.00    +0.000 OA
ATOM     13  N   UNL     1       2.649   4.915  17.916  0.00  0.00    +0.000 N 
ATOM     14  C   UNL     1       2.135   6.145  18.234  0.00  0.00    +0.000 A 
ATOM     15  H   UNL     1       3.033   1.770  17.650  0.00  0.00    +0.000 HD
ENDBRANCH   2   5
BRANCH   1  16
ATOM     16  C   UNL     1       1.002   9.787  20.089  0.00  0.00    +0.000 C 
BRANCH  16  17
ATOM     17  C   UNL     1       0.050  10.502  19.132  0.00  0.00    +0.000 A 
ATOM     18  C   UNL     1       0.146  11.895  18.999  0.00  0.00    +0.000 A 
ATOM     19  C   UNL     1      -0.820  12.617  18.299  0.00  0.00    +0.000 A 
ATOM     20  C   UNL     1      -1.903  11.958  17.720  0.00  0.00    +0.000 A 
ATOM     21  C   UNL     1      -2.017  10.564  17.813  0.00  0.00    +0.000 A 
ATOM     22  C   UNL     1      -1.026   9.843  18.506  0.00  0.00    +0.000 A 
BRANCH  21  23
ATOM     23  C   UNL     1      -3.211   9.850  17.224  0.00  0.00    +0.000 C 
ATOM     24  F   UNL     1      -3.700   8.856  18.018  0.00  0.00    +0.000 F 
ATOM     25  F   UNL     1      -4.258  10.683  16.977  0.00  0.00    +0.000 F 
ATOM     26  F   UNL     1      -2.917   9.257  16.031  0.00  0.00    +0.000 F 
ENDBRANCH  21  23
ENDBRANCH  16  17
BRANCH  16  27
ATOM     27  C   UNL     1       0.189   9.423  21.357  0.00  0.00    +0.000 C 
BRANCH  27  29
ATOM     28  C   UNL     1      -0.934  10.598  23.063  0.00  0.00    +0.000 C 
ATOM     29  O   UNL     1       0.283  10.465  22.334  0.00  0.00    +0.000 OA
ENDBRANCH  27  29
ENDBRANCH  16  27
ENDBRANCH   1  16
TORSDOF 6
ENDMDL
MODEL 4
REMARK VINA RESULT:      -7.6      4.024      4.848
REMARK  Name = 
REMARK  7 active torsions:
REMARK  status: ('A' for Active; 'I' for Inactive)
REMARK    1  A    between atoms: C_1  and  O_2
REMARK    2  A    between atoms: O_2  and  C_3
REMARK    3  A    between atoms: C_3  and  C_4
REMARK    4  A    between atoms: C_4  and  N_5
REMARK    5  A    between atoms: C_4  and  C_18
REMARK    6  A    between atoms: C_6  and  C_8
REMARK    7  A    between atoms: C_22  and  C_23
REMARK                            x       y       z     vdW  Elec       q    Type
REMARK                         _______ _______ _______ _____ _____    ______ ____
ROOT
ATOM      1  N   UNL     1       3.468   5.650  17.817  0.00  0.00    +0.000 N 
ATOM      2  C   UNL     1       2.451   5.866  18.719  0.00  0.00    +0.000 C 
ATOM      3  O   UNL     1       1.873   4.974  19.330  0.00  0.00    +0.000 OA
ATOM      4  H   UNL     1       4.084   6.419  17.600  0.00  0.00    +0.000 HD
ENDROOT
BRANCH   2   5
ATOM      5  C   UNL     1       2.106   7.318  18.912  0.00  0.00    +0.000 A 
ATOM      6  C   UNL     1       2.088   8.266  17.797  0.00  0.00    +0.000 A 
ATOM      7  C   UNL     1       1.733   9.549  17.959  0.00  0.00    +0.000 A 
ATOM      8  C   UNL     1       1.330   9.985  19.307  0.00  0.00    +0.000 A 
ATOM      9  N   UNL     1       0.933  11.169  19.666  0.00  0.00    +0.000 NA
ATOM     10  N   UNL     1       0.677  11.022  21.007  0.00  0.00    +0.000 N 
ATOM     11  C   UNL     1       0.935   9.713  21.430  0.00  0.00    +0.000 A 
ATOM     12  O   UNL     1       0.794   9.284  22.561  0.00  0.00    +0.000 OA
ATOM     13  N   UNL     1       1.362   9.058  20.298  0.00  0.00    +0.000 N 
ATOM     14  C   UNL     1       1.727   7.746  20.136  0.00  0.00    +0.000 A 
ATOM     15  H   UNL     1       0.326  11.776  21.581  0.00  0.00    +0.000 HD
ENDBRANCH   2   5
BRANCH   1  16
ATOM     16  C   UNL     1       3.981   4.322  17.489  0.00  0.00    +0.000 C 
BRANCH  16  17
ATOM     17  C   UNL     1       5.137   4.370  16.491  0.00  0.00    +0.000 A 
ATOM     18  C   UNL     1       6.289   5.096  16.828  0.00  0.00    +0.000 A 
ATOM     19  C   UNL     1       7.286   5.338  15.883  0.00  0.00    +0.000 A 
ATOM     20  C   UNL     1       7.146   4.860  14.582  0.00  0.00    +0.000 A 
ATOM     21  C   UNL     1       6.019   4.111  14.218  0.00  0.00    +0.000 A 
ATOM     22  C   UNL     1       5.028   3.856  15.185  0.00  0.00    +0.000 A 
BRANCH  21  23
ATOM     23  C   UNL     1       5.843   3.627  12.797  0.00  0.00    +0.000 C 
ATOM     24  F   UNL     1       6.660   4.250  11.902  0.00  0.00    +0.000 F 
ATOM     25  F   UNL     1       6.080   2.295  12.658  0.00  0.00    +0.000 F 
ATOM     26  F   UNL     1       4.574   3.830  12.340  0.00  0.00    +0.000 F 
ENDBRANCH  21  23
ENDBRANCH  16  17
BRANCH  16  27
ATOM     27  C   UNL     1       4.504   3.610  18.762  0.00  0.00    +0.000 C 
BRANCH  27  29
ATOM     28  C   UNL     1       2.900   1.895  18.571  0.00  0.00    +0.000 C 
ATOM     29  O   UNL     1       4.288   2.198  18.676  0.00  0.00    +0.000 OA
ENDBRANCH  27  29
ENDBRANCH  16  27
ENDBRANCH   1  16
TORSDOF 6
ENDMDL
MODEL 5
REMARK VINA RESULT:      -7.6      4.347      5.473
REMARK  Name = 
REMARK  7 active torsions:
REMARK  status: ('A' for Active; 'I' for Inactive)
REMARK    1  A    between atoms: C_1  and  O_2
REMARK    2  A    between atoms: O_2  and  C_3
REMARK    3  A    between atoms: C_3  and  C_4
REMARK    4  A    between atoms: C_4  and  N_5
REMARK    5  A    between atoms: C_4  and  C_18
REMARK    6  A    between atoms: C_6  and  C_8
REMARK    7  A    between atoms: C_22  and  C_23
REMARK                            x       y       z     vdW  Elec       q    Type
REMARK                         _______ _______ _______ _____ _____    ______ ____
ROOT
ATOM      1  N   UNL     1       3.237   5.743  18.519  0.00  0.00    +0.000 N 
ATOM      2  C   UNL     1       2.348   6.150  19.487  0.00  0.00    +0.000 C 
ATOM      3  O   UNL     1       1.891   5.413  20.353  0.00  0.00    +0.000 OA
ATOM      4  H   UNL     1       3.791   6.447  18.054  0.00  0.00    +0.000 HD
ENDROOT
BRANCH   2   5
ATOM      5  C   UNL     1       1.985   7.608  19.406  0.00  0.00    +0.000 A 
ATOM      6  C   UNL     1       2.027   8.349  18.146  0.00  0.00    +0.000 A 
ATOM      7  C   UNL     1       1.657   9.636  18.064  0.00  0.00    +0.000 A 
ATOM      8  C   UNL     1       1.172  10.291  19.290  0.00  0.00    +0.000 A 
ATOM      9  N   UNL     1       0.749  11.512  19.417  0.00  0.00    +0.000 NA
ATOM     10  N   UNL     1       0.414  11.594  20.746  0.00  0.00    +0.000 N 
ATOM     11  C   UNL     1       0.653  10.381  21.402  0.00  0.00    +0.000 A 
ATOM     12  O   UNL     1       0.449  10.151  22.581  0.00  0.00    +0.000 OA
ATOM     13  N   UNL     1       1.150   9.548  20.427  0.00  0.00    +0.000 N 
ATOM     14  C   UNL     1       1.531   8.234  20.515  0.00  0.00    +0.000 A 
ATOM     15  H   UNL     1       0.026  12.430  21.160  0.00  0.00    +0.000 HD
ENDBRANCH   2   5
BRANCH   1  16
ATOM     16  C   UNL     1       3.745   4.376  18.417  0.00  0.00    +0.000 C 
BRANCH  16  17
ATOM     17  C   UNL     1       5.024   4.285  17.588  0.00  0.00    +0.000 A 
ATOM     18  C   UNL     1       6.250   4.578  18.205  0.00  0.00    +0.000 A 
ATOM     19  C   UNL     1       7.418   4.705  17.453  0.00  0.00    +0.000 A 
ATOM     20  C   UNL     1       7.380   4.544  16.070  0.00  0.00    +0.000 A 
ATOM     21  C   UNL     1       6.177   4.227  15.425  0.00  0.00    +0.000 A 
ATOM     22  C   UNL     1       5.007   4.083  16.195  0.00  0.00    +0.000 A 
BRANCH  21  23
ATOM     23  C   UNL     1       6.123   4.094  13.921  0.00  0.00    +0.000 C 
ATOM     24  F   UNL     1       6.451   2.850  13.469  0.00  0.00    +0.000 F 
ATOM     25  F   UNL     1       4.894   4.368  13.408  0.00  0.00    +0.000 F 
ATOM     26  F   UNL     1       6.985   4.949  13.299  0.00  0.00    +0.000 F 
ENDBRANCH  21  23
ENDBRANCH  16  17
BRANCH  16  27
ATOM     27  C   UNL     1       4.068   3.810  19.824  0.00  0.00    +0.000 C 
BRANCH  27  29
ATOM     28  C   UNL     1       2.544   2.220  18.987  0.00  0.00    +0.000 C 
ATOM     29  O   UNL     1       3.542   2.487  19.969  0.00  0.00    +0.000 OA
ENDBRANCH  27  29
ENDBRANCH  16  27
ENDBRANCH   1  16
TORSDOF 6
ENDMDL
MODEL 6
REMARK VINA RESULT:      -7.6      4.840      6.380
REMARK  Name = 
REMARK  7 active torsions:
REMARK  status: ('A' for Active; 'I' for Inactive)
REMARK    1  A    between atoms: C_1  and  O_2
REMARK    2  A    between atoms: O_2  and  C_3
REMARK    3  A    between atoms: C_3  and  C_4
REMARK    4  A    between atoms: C_4  and  N_5
REMARK    5  A    between atoms: C_4  and  C_18
REMARK    6  A    between atoms: C_6  and  C_8
REMARK    7  A    between atoms: C_22  and  C_23
REMARK                            x       y       z     vdW  Elec       q    Type
REMARK                         _______ _______ _______ _____ _____    ______ ____
ROOT
ATOM      1  N   UNL     1       2.480   5.780  19.671  0.00  0.00    +0.000 N 
ATOM      2  C   UNL     1       2.193   6.922  18.959  0.00  0.00    +0.000 C 
ATOM      3  O   UNL     1       2.320   7.024  17.743  0.00  0.00    +0.000 OA
ATOM      4  H   UNL     1       2.068   5.673  20.585  0.00  0.00    +0.000 HD
ENDROOT
BRANCH   2   5
ATOM      5  C   UNL     1       1.685   8.057  19.806  0.00  0.00    +0.000 A 
ATOM      6  C   UNL     1       1.538   7.937  21.256  0.00  0.00    +0.000 A 
ATOM      7  C   UNL     1       1.132   8.963  22.019  0.00  0.00    +0.000 A 
ATOM      8  C   UNL     1       0.857  10.247  21.352  0.00  0.00    +0.000 A 
ATOM      9  N   UNL     1       0.479  11.358  21.908  0.00  0.00    +0.000 NA
ATOM     10  N   UNL     1       0.382  12.225  20.847  0.00  0.00    +0.000 N 
ATOM     11  C   UNL     1       0.714  11.590  19.645  0.00  0.00    +0.000 A 
ATOM     12  O   UNL     1       0.724  12.105  18.541  0.00  0.00    +0.000 OA
ATOM     13  N   UNL     1       1.018  10.298  20.004  0.00  0.00    +0.000 N 
ATOM     14  C   UNL     1       1.430   9.249  19.222  0.00  0.00    +0.000 A 
ATOM     15  H   UNL     1       0.123  13.196  20.958  0.00  0.00    +0.000 HD
ENDBRANCH   2   5
BRANCH   1  16
ATOM     16  C   UNL     1       2.967   4.549  19.053  0.00  0.00    +0.000 C 
BRANCH  16  17
ATOM     17  C   UNL     1       4.394   4.683  18.523  0.00  0.00    +0.000 A 
ATOM     18  C   UNL     1       5.384   5.197  19.374  0.00  0.00    +0.000 A 
ATOM     19  C   UNL     1       6.648   5.525  18.885  0.00  0.00    +0.000 A 
ATOM     20  C   UNL     1       6.944   5.347  17.536  0.00  0.00    +0.000 A 
ATOM     21  C   UNL     1       5.987   4.813  16.663  0.00  0.00    +0.000 A 
ATOM     22  C   UNL     1       4.719   4.467  17.170  0.00  0.00    +0.000 A 
BRANCH  21  23
ATOM     23  C   UNL     1       6.289   4.658  15.191  0.00  0.00    +0.000 C 
ATOM     24  F   UNL     1       7.502   5.160  14.826  0.00  0.00    +0.000 F 
ATOM     25  F   UNL     1       6.280   3.361  14.782  0.00  0.00    +0.000 F 
ATOM     26  F   UNL     1       5.375   5.302  14.410  0.00  0.00    +0.000 F 
ENDBRANCH  21  23
ENDBRANCH  16  17
BRANCH  16  27
ATOM     27  C   UNL     1       2.965   3.388  20.078  0.00  0.00    +0.000 C 
BRANCH  27  29
ATOM     28  C   UNL     1       1.280   2.303  18.841  0.00  0.00    +0.000 C 
ATOM     29  O   UNL     1       2.557   2.165  19.457  0.00  0.00    +0.000 OA
ENDBRANCH  27  29
ENDBRANCH  16  27
ENDBRANCH   1  16
TORSDOF 6
ENDMDL
MODEL 7
REMARK VINA RESULT:      -7.5      3.876      4.794
REMARK  Name = 
REMARK  7 active torsions:
REMARK  status: ('A' for Active; 'I' for Inactive)
REMARK    1  A    between atoms: C_1  and  O_2
REMARK    2  A    between atoms: O_2  and  C_3
REMARK    3  A    between atoms: C_3  and  C_4
REMARK    4  A    between atoms: C_4  and  N_5
REMARK    5  A    between atoms: C_4  and  C_18
REMARK    6  A    between atoms: C_6  and  C_8
REMARK    7  A    between atoms: C_22  and  C_23
REMARK                            x       y       z     vdW  Elec       q    Type
REMARK                         _______ _______ _______ _____ _____    ______ ____
ROOT
ATOM      1  N   UNL     1       3.055   5.283  17.732  0.00  0.00    +0.000 N 
ATOM      2  C   UNL     1       3.335   6.023  18.857  0.00  0.00    +0.000 C 
ATOM      3  O   UNL     1       4.135   5.684  19.722  0.00  0.00    +0.000 OA
ATOM      4  H   UNL     1       2.640   5.754  16.942  0.00  0.00    +0.000 HD
ENDROOT
BRANCH   2   5
ATOM      5  C   UNL     1       2.576   7.320  18.938  0.00  0.00    +0.000 A 
ATOM      6  C   UNL     1       2.415   8.198  17.779  0.00  0.00    +0.000 A 
ATOM      7  C   UNL     1       1.697   9.329  17.837  0.00  0.00    +0.000 A 
ATOM      8  C   UNL     1       1.041   9.662  19.113  0.00  0.00    +0.000 A 
ATOM      9  N   UNL     1       0.289  10.690  19.368  0.00  0.00    +0.000 NA
ATOM     10  N   UNL     1      -0.062  10.506  20.683  0.00  0.00    +0.000 N 
ATOM     11  C   UNL     1       0.506   9.335  21.197  0.00  0.00    +0.000 A 
ATOM     12  O   UNL     1       0.368   8.909  22.330  0.00  0.00    +0.000 OA
ATOM     13  N   UNL     1       1.223   8.804  20.150  0.00  0.00    +0.000 N 
ATOM     14  C   UNL     1       1.958   7.649  20.095  0.00  0.00    +0.000 A 
ATOM     15  H   UNL     1      -0.672  11.141  21.178  0.00  0.00    +0.000 HD
ENDBRANCH   2   5
BRANCH   1  16
ATOM     16  C   UNL     1       3.689   4.001  17.436  0.00  0.00    +0.000 C 
BRANCH  16  17
ATOM     17  C   UNL     1       4.923   4.147  16.547  0.00  0.00    +0.000 A 
ATOM     18  C   UNL     1       6.017   4.882  17.027  0.00  0.00    +0.000 A 
ATOM     19  C   UNL     1       7.081   5.215  16.188  0.00  0.00    +0.000 A 
ATOM     20  C   UNL     1       7.068   4.820  14.853  0.00  0.00    +0.000 A 
ATOM     21  C   UNL     1       6.001   4.064  14.346  0.00  0.00    +0.000 A 
ATOM     22  C   UNL     1       4.941   3.718  15.206  0.00  0.00    +0.000 A 
BRANCH  21  23
ATOM     23  C   UNL     1       5.962   3.671  12.888  0.00  0.00    +0.000 C 
ATOM     24  F   UNL     1       6.296   2.369  12.663  0.00  0.00    +0.000 F 
ATOM     25  F   UNL     1       4.737   3.848  12.324  0.00  0.00    +0.000 F 
ATOM     26  F   UNL     1       6.829   4.408  12.135  0.00  0.00    +0.000 F 
ENDBRANCH  21  23
ENDBRANCH  16  17
BRANCH  16  27
ATOM     27  C   UNL     1       4.146   3.305  18.743  0.00  0.00    +0.000 C 
BRANCH  27  29
ATOM     28  C   UNL     1       3.091   2.592  20.726  0.00  0.00    +0.000 C 
ATOM     29  O   UNL     1       3.082   2.529  19.302  0.00  0.00    +0.000 OA
ENDBRANCH  27  29
ENDBRANCH  16  27
ENDBRANCH   1  16
TORSDOF 6
ENDMDL
MODEL 8
REMARK VINA RESULT:      -7.5      5.491      6.810
REMARK  Name = 
REMARK  7 active torsions:
REMARK  status: ('A' for Active; 'I' for Inactive)
REMARK    1  A    between atoms: C_1  and  O_2
REMARK    2  A    between atoms: O_2  and  C_3
REMARK    3  A    between atoms: C_3  and  C_4
REMARK    4  A    between atoms: C_4  and  N_5
REMARK    5  A    between atoms: C_4  and  C_18
REMARK    6  A    between atoms: C_6  and  C_8
REMARK    7  A    between atoms: C_22  and  C_23
REMARK                            x       y       z     vdW  Elec       q    Type
REMARK                         _______ _______ _______ _____ _____    ______ ____
ROOT
ATOM      1  N   UNL     1       2.501   5.899  18.468  0.00  0.00    +0.000 N 
ATOM      2  C   UNL     1       2.482   7.234  18.134  0.00  0.00    +0.000 C 
ATOM      3  O   UNL     1       2.891   7.681  17.068  0.00  0.00    +0.000 OA
ATOM      4  H   UNL     1       1.884   5.583  19.201  0.00  0.00    +0.000 HD
ENDROOT
BRANCH   2   5
ATOM      5  C   UNL     1       1.891   8.120  19.197  0.00  0.00    +0.000 A 
ATOM      6  C   UNL     1       1.765   7.685  20.587  0.00  0.00    +0.000 A 
ATOM      7  C   UNL     1       1.284   8.492  21.545  0.00  0.00    +0.000 A 
ATOM      8  C   UNL     1       0.902   9.861  21.162  0.00  0.00    +0.000 A 
ATOM      9  N   UNL     1       0.441  10.796  21.936  0.00  0.00    +0.000 NA
ATOM     10  N   UNL     1       0.266  11.857  21.081  0.00  0.00    +0.000 N 
ATOM     11  C   UNL     1       0.638  11.518  19.775  0.00  0.00    +0.000 A 
ATOM     12  O   UNL     1       0.598  12.253  18.804  0.00  0.00    +0.000 OA
ATOM     13  N   UNL     1       1.048  10.208  19.857  0.00  0.00    +0.000 N 
ATOM     14  C   UNL     1       1.536   9.384  18.875  0.00  0.00    +0.000 A 
ATOM     15  H   UNL     1      -0.069  12.758  21.391  0.00  0.00    +0.000 HD
ENDBRANCH   2   5
BRANCH   1  16
ATOM     16  C   UNL     1       3.011   4.856  17.582  0.00  0.00    +0.000 C 
BRANCH  16  17
ATOM     17  C   UNL     1       4.494   5.032  17.260  0.00  0.00    +0.000 A 
ATOM     18  C   UNL     1       4.966   4.624  16.004  0.00  0.00    +0.000 A 
ATOM     19  C   UNL     1       6.333   4.576  15.732  0.00  0.00    +0.000 A 
ATOM     20  C   UNL     1       7.254   4.933  16.714  0.00  0.00    +0.000 A 
ATOM     21  C   UNL     1       6.817   5.368  17.973  0.00  0.00    +0.000 A 
ATOM     22  C   UNL     1       5.434   5.431  18.231  0.00  0.00    +0.000 A 
BRANCH  21  23
ATOM     23  C   UNL     1       7.812   5.715  19.055  0.00  0.00    +0.000 C 
ATOM     24  F   UNL     1       7.268   5.766  20.304  0.00  0.00    +0.000 F 
ATOM     25  F   UNL     1       8.843   4.830  19.130  0.00  0.00    +0.000 F 
ATOM     26  F   UNL     1       8.384   6.937  18.853  0.00  0.00    +0.000 F 
ENDBRANCH  21  23
ENDBRANCH  16  17
BRANCH  16  27
ATOM     27  C   UNL     1       2.846   3.459  18.233  0.00  0.00    +0.000 C 
BRANCH  27  29
ATOM     28  C   UNL     1       0.818   2.420  18.832  0.00  0.00    +0.000 C 
ATOM     29  O   UNL     1       1.662   2.815  17.753  0.00  0.00    +0.000 OA
ENDBRANCH  27  29
ENDBRANCH  16  27
ENDBRANCH   1  16
TORSDOF 6
ENDMDL
MODEL 9
REMARK VINA RESULT:      -7.5      5.943      7.315
REMARK  Name = 
REMARK  7 active torsions:
REMARK  status: ('A' for Active; 'I' for Inactive)
REMARK    1  A    between atoms: C_1  and  O_2
REMARK    2  A    between atoms: O_2  and  C_3
REMARK    3  A    between atoms: C_3  and  C_4
REMARK    4  A    between atoms: C_4  and  N_5
REMARK    5  A    between atoms: C_4  and  C_18
REMARK    6  A    between atoms: C_6  and  C_8
REMARK    7  A    between atoms: C_22  and  C_23
REMARK                            x       y       z     vdW  Elec       q    Type
REMARK                         _______ _______ _______ _____ _____    ______ ____
ROOT
ATOM      1  N   UNL     1       2.256   6.908  18.768  0.00  0.00    +0.000 N 
ATOM      2  C   UNL     1       1.998   8.240  18.538  0.00  0.00    +0.000 C 
ATOM      3  O   UNL     1       2.248   8.816  17.485  0.00  0.00    +0.000 OA
ATOM      4  H   UNL     1       1.754   6.447  19.512  0.00  0.00    +0.000 HD
ENDROOT
BRANCH   2   5
ATOM      5  C   UNL     1       1.356   8.946  19.701  0.00  0.00    +0.000 A 
ATOM      6  C   UNL     1       1.290   8.345  21.033  0.00  0.00    +0.000 A 
ATOM      7  C   UNL     1       0.762   8.993  22.082  0.00  0.00    +0.000 A 
ATOM      8  C   UNL     1       0.264  10.362  21.863  0.00  0.00    +0.000 A 
ATOM      9  N   UNL     1      -0.257  11.160  22.745  0.00  0.00    +0.000 NA
ATOM     10  N   UNL     1      -0.533  12.294  22.020  0.00  0.00    +0.000 N 
ATOM     11  C   UNL     1      -0.157  12.140  20.681  0.00  0.00    +0.000 A 
ATOM     12  O   UNL     1      -0.273  12.976  19.802  0.00  0.00    +0.000 OA
ATOM     13  N   UNL     1       0.359  10.867  20.606  0.00  0.00    +0.000 N 
ATOM     14  C   UNL     1       0.895  10.205  19.532  0.00  0.00    +0.000 A 
ATOM     15  H   UNL     1      -0.934  13.123  22.436  0.00  0.00    +0.000 HD
ENDBRANCH   2   5
BRANCH   1  16
ATOM     16  C   UNL     1       2.857   6.022  17.773  0.00  0.00    +0.000 C 
BRANCH  16  17
ATOM     17  C   UNL     1       4.350   5.802  18.009  0.00  0.00    +0.000 A 
ATOM     18  C   UNL     1       4.756   4.698  18.773  0.00  0.00    +0.000 A 
ATOM     19  C   UNL     1       6.082   4.560  19.185  0.00  0.00    +0.000 A 
ATOM     20  C   UNL     1       7.024   5.526  18.842  0.00  0.00    +0.000 A 
ATOM     21  C   UNL     1       6.657   6.630  18.060  0.00  0.00    +0.000 A 
ATOM     22  C   UNL     1       5.321   6.750  17.633  0.00  0.00    +0.000 A 
BRANCH  21  23
ATOM     23  C   UNL     1       7.667   7.702  17.722  0.00  0.00    +0.000 C 
ATOM     24  F   UNL     1       7.136   8.957  17.669  0.00  0.00    +0.000 F 
ATOM     25  F   UNL     1       8.691   7.765  18.614  0.00  0.00    +0.000 F 
ATOM     26  F   UNL     1       8.245   7.496  16.504  0.00  0.00    +0.000 F 
ENDBRANCH  21  23
ENDBRANCH  16  17
BRANCH  16  27
ATOM     27  C   UNL     1       2.177   4.630  17.803  0.00  0.00    +0.000 C 
BRANCH  27  29
ATOM     28  C   UNL     1       1.301   3.107  19.373  0.00  0.00    +0.000 C 
ATOM     29  O   UNL     1       1.390   4.476  18.989  0.00  0.00    +0.000 OA
ENDBRANCH  27  29
ENDBRANCH  16  27
ENDBRANCH   1  16
TORSDOF 6
ENDMDL
