MODEL 1
REMARK VINA RESULT:      -9.8      0.000      0.000
REMARK  Name = 
REMARK  3 active torsions:
REMARK  status: ('A' for Active; 'I' for Inactive)
REMARK    1  A    between atoms: C_2  and  C_18
REMARK    2  A    between atoms: N_3  and  C_4
REMARK    3  A    between atoms: N_7  and  C_8
REMARK                            x       y       z     vdW  Elec       q    Type
REMARK                         _______ _______ _______ _____ _____    ______ ____
ROOT
ATOM      1  O   UNL     1       8.560   7.367  18.950  0.00  0.00    +0.000 OA
ATOM      2  C   UNL     1       8.121   8.231  18.200  0.00  0.00    +0.000 C 
ATOM      3  N   UNL     1       7.194   7.970  17.217  0.00  0.00    +0.000 N 
ATOM      4  H   UNL     1       6.791   8.714  16.662  0.00  0.00    +0.000 HD
ENDROOT
BRANCH   2   5
ATOM      5  C   UNL     1       8.547   9.637  18.353  0.00  0.00    +0.000 A 
ATOM      6  C   UNL     1       7.977  10.601  17.539  0.00  0.00    +0.000 A 
ATOM      7  N   UNL     1       8.329  11.909  17.561  0.00  0.00    +0.000 NA
ATOM      8  C   UNL     1       9.295  12.303  18.423  0.00  0.00    +0.000 A 
ATOM      9  C   UNL     1       9.741  13.624  18.460  0.00  0.00    +0.000 A 
ATOM     10  F   UNL     1       9.202  14.535  17.633  0.00  0.00    +0.000 F 
ATOM     11  C   UNL     1      10.756  14.049  19.318  0.00  0.00    +0.000 A 
ATOM     12  C   UNL     1      11.348  13.142  20.188  0.00  0.00    +0.000 A 
ATOM     13  C   UNL     1      10.919  11.817  20.192  0.00  0.00    +0.000 A 
ATOM     14  C   UNL     1       9.909  11.390  19.311  0.00  0.00    +0.000 A 
ATOM     15  C   UNL     1       9.505  10.047  19.277  0.00  0.00    +0.000 A 
ENDBRANCH   2   5
BRANCH   3  16
ATOM     16  C   UNL     1       6.755   6.615  16.940  0.00  0.00    +0.000 C 
ATOM     17  C   UNL     1       7.446   5.561  17.792  0.00  0.00    +0.000 C 
ATOM     18  C   UNL     1       6.385   4.504  18.014  0.00  0.00    +0.000 C 
ATOM     19  N   UNL     1       5.124   5.196  17.901  0.00  0.00    +0.000 N 
ATOM     20  C   UNL     1       5.274   6.438  17.271  0.00  0.00    +0.000 C 
ATOM     21  O   UNL     1       4.421   7.265  16.982  0.00  0.00    +0.000 OA
BRANCH  19  22
ATOM     22  C   UNL     1       3.900   4.618  18.331  0.00  0.00    +0.000 A 
ATOM     23  C   UNL     1       2.884   4.301  17.419  0.00  0.00    +0.000 A 
ATOM     24  C   UNL     1       1.677   3.750  17.854  0.00  0.00    +0.000 A 
ATOM     25  C   UNL     1       1.472   3.513  19.203  0.00  0.00    +0.000 A 
ATOM     26  F   UNL     1       0.310   2.989  19.605  0.00  0.00    +0.000 F 
ATOM     27  C   UNL     1       2.465   3.826  20.129  0.00  0.00    +0.000 A 
ATOM     28 CL   UNL     1       2.216   3.552  21.811  0.00  0.00    +0.000 Cl
ATOM     29  C   UNL     1       3.673   4.374  19.693  0.00  0.00    +0.000 A 
ENDBRANCH  19  22
ENDBRANCH   3  16
TORSDOF 3
ENDMDL
MODEL 2
REMARK VINA RESULT:      -9.7      7.350     10.154
REMARK  Name = 
REMARK  3 active torsions:
REMARK  status: ('A' for Active; 'I' for Inactive)
REMARK    1  A    between atoms: C_2  and  C_18
REMARK    2  A    between atoms: N_3  and  C_4
REMARK    3  A    between atoms: N_7  and  C_8
REMARK                            x       y       z     vdW  Elec       q    Type
REMARK                         _______ _______ _______ _____ _____    ______ ____
ROOT
ATOM      1  O   UNL     1       2.133   9.292  17.590  0.00  0.00    +0.000 OA
ATOM      2  C   UNL     1       1.851   8.679  18.613  0.00  0.00    +0.000 C 
ATOM      3  N   UNL     1       1.034   9.192  19.594  0.00  0.00    +0.000 N 
ATOM      4  H   UNL     1       0.756   8.634  20.393  0.00  0.00    +0.000 HD
ENDROOT
BRANCH   2   5
ATOM      5  C   UNL     1       2.354   7.306  18.820  0.00  0.00    +0.000 A 
ATOM      6  C   UNL     1       3.158   6.733  17.850  0.00  0.00    +0.000 A 
ATOM      7  N   UNL     1       3.631   5.465  17.915  0.00  0.00    +0.000 NA
ATOM      8  C   UNL     1       3.301   4.708  18.986  0.00  0.00    +0.000 A 
ATOM      9  C   UNL     1       3.711   3.379  19.090  0.00  0.00    +0.000 A 
ATOM     10  F   UNL     1       4.458   2.832  18.116  0.00  0.00    +0.000 F 
ATOM     11  C   UNL     1       3.359   2.568  20.169  0.00  0.00    +0.000 A 
ATOM     12  C   UNL     1       2.583   3.087  21.198  0.00  0.00    +0.000 A 
ATOM     13  C   UNL     1       2.167   4.415  21.138  0.00  0.00    +0.000 A 
ATOM     14  C   UNL     1       2.509   5.222  20.038  0.00  0.00    +0.000 A 
ATOM     15  C   UNL     1       2.053   6.546  19.949  0.00  0.00    +0.000 A 
ENDBRANCH   2   5
BRANCH   3  16
ATOM     16  C   UNL     1       0.537  10.553  19.522  0.00  0.00    +0.000 C 
ATOM     17  C   UNL     1      -0.839  10.669  18.884  0.00  0.00    +0.000 C 
ATOM     18  C   UNL     1      -1.499  11.815  19.620  0.00  0.00    +0.000 C 
ATOM     19  N   UNL     1      -0.863  11.857  20.915  0.00  0.00    +0.000 N 
ATOM     20  C   UNL     1       0.342  11.141  20.918  0.00  0.00    +0.000 C 
ATOM     21  O   UNL     1       1.149  10.996  21.825  0.00  0.00    +0.000 OA
BRANCH  19  22
ATOM     22  C   UNL     1      -1.397  12.600  21.999  0.00  0.00    +0.000 A 
ATOM     23  C   UNL     1      -0.795  13.789  22.435  0.00  0.00    +0.000 A 
ATOM     24  C   UNL     1      -1.318  14.504  23.515  0.00  0.00    +0.000 A 
ATOM     25  C   UNL     1      -2.446  14.037  24.170  0.00  0.00    +0.000 A 
ATOM     26  F   UNL     1      -2.933  14.729  25.205  0.00  0.00    +0.000 F 
ATOM     27  C   UNL     1      -3.059  12.855  23.759  0.00  0.00    +0.000 A 
ATOM     28 CL   UNL     1      -4.450  12.256  24.577  0.00  0.00    +0.000 Cl
ATOM     29  C   UNL     1      -2.537  12.143  22.678  0.00  0.00    +0.000 A 
ENDBRANCH  19  22
ENDBRANCH   3  16
TORSDOF 3
ENDMDL
MODEL 3
REMARK VINA RESULT:      -9.5      6.161      7.895
REMARK  Name = 
REMARK  3 active torsions:
REMARK  status: ('A' for Active; 'I' for Inactive)
REMARK    1  A    between atoms: C_2  and  C_18
REMARK    2  A    between atoms: N_3  and  C_4
REMARK    3  A    between atoms: N_7  and  C_8
REMARK                            x       y       z     vdW  Elec       q    Type
REMARK                         _______ _______ _______ _____ _____    ______ ____
ROOT
ATOM      1  O   UNL     1       2.187   5.833  20.798  0.00  0.00    +0.000 OA
ATOM      2  C   UNL     1       2.247   6.775  20.017  0.00  0.00    +0.000 C 
ATOM      3  N   UNL     1       2.967   6.734  18.846  0.00  0.00    +0.000 N 
ATOM      4  H   UNL     1       2.938   7.499  18.181  0.00  0.00    +0.000 HD
ENDROOT
BRANCH   2   5
ATOM      5  C   UNL     1       1.489   8.015  20.286  0.00  0.00    +0.000 A 
ATOM      6  C   UNL     1       1.474   9.012  19.327  0.00  0.00    +0.000 A 
ATOM      7  N   UNL     1       0.854  10.206  19.490  0.00  0.00    +0.000 NA
ATOM      8  C   UNL     1       0.214  10.445  20.658  0.00  0.00    +0.000 A 
ATOM      9  C   UNL     1      -0.400  11.672  20.912  0.00  0.00    +0.000 A 
ATOM     10  F   UNL     1      -0.368  12.640  19.981  0.00  0.00    +0.000 F 
ATOM     11  C   UNL     1      -1.040  11.955  22.118  0.00  0.00    +0.000 A 
ATOM     12  C   UNL     1      -1.094  10.987  23.114  0.00  0.00    +0.000 A 
ATOM     13  C   UNL     1      -0.508   9.743  22.891  0.00  0.00    +0.000 A 
ATOM     14  C   UNL     1       0.154   9.471  21.680  0.00  0.00    +0.000 A 
ATOM     15  C   UNL     1       0.788   8.238  21.470  0.00  0.00    +0.000 A 
ENDBRANCH   2   5
BRANCH   3  16
ATOM     16  C   UNL     1       3.796   5.592  18.514  0.00  0.00    +0.000 C 
ATOM     17  C   UNL     1       3.006   4.365  18.082  0.00  0.00    +0.000 C 
ATOM     18  C   UNL     1       3.883   3.698  17.046  0.00  0.00    +0.000 C 
ATOM     19  N   UNL     1       4.692   4.756  16.489  0.00  0.00    +0.000 N 
ATOM     20  C   UNL     1       4.688   5.891  17.310  0.00  0.00    +0.000 C 
ATOM     21  O   UNL     1       5.286   6.948  17.166  0.00  0.00    +0.000 OA
BRANCH  19  22
ATOM     22  C   UNL     1       5.433   4.592  15.289  0.00  0.00    +0.000 A 
ATOM     23  C   UNL     1       6.759   5.037  15.186  0.00  0.00    +0.000 A 
ATOM     24  C   UNL     1       7.474   4.889  13.995  0.00  0.00    +0.000 A 
ATOM     25  C   UNL     1       6.871   4.296  12.897  0.00  0.00    +0.000 A 
ATOM     26  F   UNL     1       7.566   4.165  11.763  0.00  0.00    +0.000 F 
ATOM     27  C   UNL     1       5.553   3.852  12.974  0.00  0.00    +0.000 A 
ATOM     28 CL   UNL     1       4.788   3.131  11.611  0.00  0.00    +0.000 Cl
ATOM     29  C   UNL     1       4.840   3.998  14.166  0.00  0.00    +0.000 A 
ENDBRANCH  19  22
ENDBRANCH   3  16
TORSDOF 3
ENDMDL
MODEL 4
REMARK VINA RESULT:      -9.4      7.233     10.302
REMARK  Name = 
REMARK  3 active torsions:
REMARK  status: ('A' for Active; 'I' for Inactive)
REMARK    1  A    between atoms: C_2  and  C_18
REMARK    2  A    between atoms: N_3  and  C_4
REMARK    3  A    between atoms: N_7  and  C_8
REMARK                            x       y       z     vdW  Elec       q    Type
REMARK                         _______ _______ _______ _____ _____    ______ ____
ROOT
ATOM      1  O   UNL     1       2.477   8.854  17.942  0.00  0.00    +0.000 OA
ATOM      2  C   UNL     1       1.962   8.265  18.885  0.00  0.00    +0.000 C 
ATOM      3  N   UNL     1       1.089   8.870  19.760  0.00  0.00    +0.000 N 
ATOM      4  H   UNL     1       0.618   8.342  20.485  0.00  0.00    +0.000 HD
ENDROOT
BRANCH   2   5
ATOM      5  C   UNL     1       2.228   6.828  19.102  0.00  0.00    +0.000 A 
ATOM      6  C   UNL     1       2.127   6.314  20.382  0.00  0.00    +0.000 A 
ATOM      7  N   UNL     1       2.398   5.025  20.701  0.00  0.00    +0.000 NA
ATOM      8  C   UNL     1       2.792   4.187  19.715  0.00  0.00    +0.000 A 
ATOM      9  C   UNL     1       3.137   2.862  19.983  0.00  0.00    +0.000 A 
ATOM     10  F   UNL     1       3.069   2.395  21.241  0.00  0.00    +0.000 F 
ATOM     11  C   UNL     1       3.575   1.986  18.989  0.00  0.00    +0.000 A 
ATOM     12  C   UNL     1       3.666   2.425  17.674  0.00  0.00    +0.000 A 
ATOM     13  C   UNL     1       3.316   3.736  17.365  0.00  0.00    +0.000 A 
ATOM     14  C   UNL     1       2.893   4.621  18.373  0.00  0.00    +0.000 A 
ATOM     15  C   UNL     1       2.585   5.957  18.075  0.00  0.00    +0.000 A 
ENDBRANCH   2   5
BRANCH   3  16
ATOM     16  C   UNL     1       0.806  10.290  19.677  0.00  0.00    +0.000 C 
ATOM     17  C   UNL     1      -0.449  10.620  18.882  0.00  0.00    +0.000 C 
ATOM     18  C   UNL     1      -1.022  11.838  19.574  0.00  0.00    +0.000 C 
ATOM     19  N   UNL     1      -0.553  11.762  20.937  0.00  0.00    +0.000 N 
ATOM     20  C   UNL     1       0.525  10.877  21.060  0.00  0.00    +0.000 C 
ATOM     21  O   UNL     1       1.184  10.598  22.051  0.00  0.00    +0.000 OA
BRANCH  19  22
ATOM     22  C   UNL     1      -1.106  12.558  21.975  0.00  0.00    +0.000 A 
ATOM     23  C   UNL     1      -0.511  13.767  22.362  0.00  0.00    +0.000 A 
ATOM     24  C   UNL     1      -1.052  14.533  23.397  0.00  0.00    +0.000 A 
ATOM     25  C   UNL     1      -2.191  14.098  24.055  0.00  0.00    +0.000 A 
ATOM     26  F   UNL     1      -2.694  14.839  25.047  0.00  0.00    +0.000 F 
ATOM     27  C   UNL     1      -2.796  12.896  23.692  0.00  0.00    +0.000 A 
ATOM     28 CL   UNL     1      -4.201  12.336  24.515  0.00  0.00    +0.000 Cl
ATOM     29  C   UNL     1      -2.256  12.133  22.656  0.00  0.00    +0.000 A 
ENDBRANCH  19  22
ENDBRANCH   3  16
TORSDOF 3
ENDMDL
MODEL 5
REMARK VINA RESULT:      -9.3      7.468     10.230
REMARK  Name = 
REMARK  3 active torsions:
REMARK  status: ('A' for Active; 'I' for Inactive)
REMARK    1  A    between atoms: C_2  and  C_18
REMARK    2  A    between atoms: N_3  and  C_4
REMARK    3  A    between atoms: N_7  and  C_8
REMARK                            x       y       z     vdW  Elec       q    Type
REMARK                         _______ _______ _______ _____ _____    ______ ____
ROOT
ATOM      1  O   UNL     1       2.192   9.336  17.635  0.00  0.00    +0.000 OA
ATOM      2  C   UNL     1       1.883   8.710  18.642  0.00  0.00    +0.000 C 
ATOM      3  N   UNL     1       1.055   9.216  19.616  0.00  0.00    +0.000 N 
ATOM      4  H   UNL     1       0.754   8.649  20.400  0.00  0.00    +0.000 HD
ENDROOT
BRANCH   2   5
ATOM      5  C   UNL     1       2.365   7.327  18.834  0.00  0.00    +0.000 A 
ATOM      6  C   UNL     1       3.160   6.752  17.858  0.00  0.00    +0.000 A 
ATOM      7  N   UNL     1       3.614   5.477  17.910  0.00  0.00    +0.000 NA
ATOM      8  C   UNL     1       3.271   4.713  18.973  0.00  0.00    +0.000 A 
ATOM      9  C   UNL     1       3.661   3.377  19.063  0.00  0.00    +0.000 A 
ATOM     10  F   UNL     1       4.400   2.829  18.084  0.00  0.00    +0.000 F 
ATOM     11  C   UNL     1       3.296   2.560  20.134  0.00  0.00    +0.000 A 
ATOM     12  C   UNL     1       2.528   3.080  21.168  0.00  0.00    +0.000 A 
ATOM     13  C   UNL     1       2.133   4.415  21.122  0.00  0.00    +0.000 A 
ATOM     14  C   UNL     1       2.487   5.228  20.030  0.00  0.00    +0.000 A 
ATOM     15  C   UNL     1       2.052   6.560  19.955  0.00  0.00    +0.000 A 
ENDBRANCH   2   5
BRANCH   3  16
ATOM     16  C   UNL     1       0.576  10.585  19.558  0.00  0.00    +0.000 C 
ATOM     17  C   UNL     1      -0.767  10.734  18.860  0.00  0.00    +0.000 C 
ATOM     18  C   UNL     1      -1.448  11.868  19.595  0.00  0.00    +0.000 C 
ATOM     19  N   UNL     1      -0.874  11.868  20.920  0.00  0.00    +0.000 N 
ATOM     20  C   UNL     1       0.322  11.138  20.960  0.00  0.00    +0.000 C 
ATOM     21  O   UNL     1       1.084  10.958  21.899  0.00  0.00    +0.000 OA
BRANCH  19  22
ATOM     22  C   UNL     1      -1.451  12.588  21.998  0.00  0.00    +0.000 A 
ATOM     23  C   UNL     1      -2.635  12.156  22.612  0.00  0.00    +0.000 A 
ATOM     24  C   UNL     1      -3.205  12.882  23.660  0.00  0.00    +0.000 A 
ATOM     25  C   UNL     1      -2.600  14.047  24.103  0.00  0.00    +0.000 A 
ATOM     26  F   UNL     1      -3.160  14.734  25.103  0.00  0.00    +0.000 F 
ATOM     27  C   UNL     1      -1.426  14.500  23.503  0.00  0.00    +0.000 A 
ATOM     28 CL   UNL     1      -0.674  15.955  24.032  0.00  0.00    +0.000 Cl
ATOM     29  C   UNL     1      -0.855  13.772  22.458  0.00  0.00    +0.000 A 
ENDBRANCH  19  22
ENDBRANCH   3  16
TORSDOF 3
ENDMDL
MODEL 6
REMARK VINA RESULT:      -9.3      7.506      9.874
REMARK  Name = 
REMARK  3 active torsions:
REMARK  status: ('A' for Active; 'I' for Inactive)
REMARK    1  A    between atoms: C_2  and  C_18
REMARK    2  A    between atoms: N_3  and  C_4
REMARK    3  A    between atoms: N_7  and  C_8
REMARK                            x       y       z     vdW  Elec       q    Type
REMARK                         _______ _______ _______ _____ _____    ______ ____
ROOT
ATOM      1  O   UNL     1       2.206  10.069  17.450  0.00  0.00    +0.000 OA
ATOM      2  C   UNL     1       1.859   9.307  18.345  0.00  0.00    +0.000 C 
ATOM      3  N   UNL     1       0.894   9.628  19.271  0.00  0.00    +0.000 N 
ATOM      4  H   UNL     1       0.572   8.951  19.953  0.00  0.00    +0.000 HD
ENDROOT
BRANCH   2   5
ATOM      5  C   UNL     1       2.446   7.955  18.440  0.00  0.00    +0.000 A 
ATOM      6  C   UNL     1       2.157   7.176  19.547  0.00  0.00    +0.000 A 
ATOM      7  N   UNL     1       2.680   5.944  19.760  0.00  0.00    +0.000 NA
ATOM      8  C   UNL     1       3.538   5.441  18.842  0.00  0.00    +0.000 A 
ATOM      9  C   UNL     1       4.153   4.203  19.026  0.00  0.00    +0.000 A 
ATOM     10  F   UNL     1       3.888   3.481  20.127  0.00  0.00    +0.000 F 
ATOM     11  C   UNL     1       5.064   3.675  18.110  0.00  0.00    +0.000 A 
ATOM     12  C   UNL     1       5.375   4.387  16.958  0.00  0.00    +0.000 A 
ATOM     13  C   UNL     1       4.769   5.621  16.732  0.00  0.00    +0.000 A 
ATOM     14  C   UNL     1       3.866   6.156  17.668  0.00  0.00    +0.000 A 
ATOM     15  C   UNL     1       3.290   7.420  17.469  0.00  0.00    +0.000 A 
ENDBRANCH   2   5
BRANCH   3  16
ATOM     16  C   UNL     1       0.298  10.950  19.308  0.00  0.00    +0.000 C 
ATOM     17  C   UNL     1      -1.131  10.991  18.788  0.00  0.00    +0.000 C 
ATOM     18  C   UNL     1      -1.807  12.051  19.630  0.00  0.00    +0.000 C 
ATOM     19  N   UNL     1      -1.071  12.083  20.871  0.00  0.00    +0.000 N 
ATOM     20  C   UNL     1       0.177  11.459  20.743  0.00  0.00    +0.000 C 
ATOM     21  O   UNL     1       1.065  11.334  21.574  0.00  0.00    +0.000 OA
BRANCH  19  22
ATOM     22  C   UNL     1      -1.565  12.735  22.030  0.00  0.00    +0.000 A 
ATOM     23  C   UNL     1      -0.912  13.851  22.574  0.00  0.00    +0.000 A 
ATOM     24  C   UNL     1      -1.396  14.475  23.725  0.00  0.00    +0.000 A 
ATOM     25  C   UNL     1      -2.536  13.990  24.346  0.00  0.00    +0.000 A 
ATOM     26  F   UNL     1      -2.985  14.594  25.451  0.00  0.00    +0.000 F 
ATOM     27  C   UNL     1      -3.199  12.879  23.829  0.00  0.00    +0.000 A 
ATOM     28 CL   UNL     1      -4.606  12.256  24.601  0.00  0.00    +0.000 Cl
ATOM     29  C   UNL     1      -2.716  12.257  22.675  0.00  0.00    +0.000 A 
ENDBRANCH  19  22
ENDBRANCH   3  16
TORSDOF 3
ENDMDL
MODEL 7
REMARK VINA RESULT:      -9.2      6.316      8.802
REMARK  Name = 
REMARK  3 active torsions:
REMARK  status: ('A' for Active; 'I' for Inactive)
REMARK    1  A    between atoms: C_2  and  C_18
REMARK    2  A    between atoms: N_3  and  C_4
REMARK    3  A    between atoms: N_7  and  C_8
REMARK                            x       y       z     vdW  Elec       q    Type
REMARK                         _______ _______ _______ _____ _____    ______ ____
ROOT
ATOM      1  O   UNL     1       1.805   5.511  20.255  0.00  0.00    +0.000 OA
ATOM      2  C   UNL     1       2.522   6.293  19.643  0.00  0.00    +0.000 C 
ATOM      3  N   UNL     1       2.321   7.654  19.645  0.00  0.00    +0.000 N 
ATOM      4  H   UNL     1       2.973   8.284  19.193  0.00  0.00    +0.000 HD
ENDROOT
BRANCH   2   5
ATOM      5  C   UNL     1       3.694   5.798  18.892  0.00  0.00    +0.000 A 
ATOM      6  C   UNL     1       4.766   5.275  19.593  0.00  0.00    +0.000 A 
ATOM      7  N   UNL     1       5.908   4.839  19.009  0.00  0.00    +0.000 NA
ATOM      8  C   UNL     1       6.015   4.920  17.663  0.00  0.00    +0.000 A 
ATOM      9  C   UNL     1       7.184   4.538  17.003  0.00  0.00    +0.000 A 
ATOM     10  F   UNL     1       8.227   4.070  17.708  0.00  0.00    +0.000 F 
ATOM     11  C   UNL     1       7.330   4.639  15.619  0.00  0.00    +0.000 A 
ATOM     12  C   UNL     1       6.280   5.122  14.848  0.00  0.00    +0.000 A 
ATOM     13  C   UNL     1       5.091   5.498  15.469  0.00  0.00    +0.000 A 
ATOM     14  C   UNL     1       4.957   5.412  16.866  0.00  0.00    +0.000 A 
ATOM     15  C   UNL     1       3.780   5.835  17.502  0.00  0.00    +0.000 A 
ENDBRANCH   2   5
BRANCH   3  16
ATOM     16  C   UNL     1       1.166   8.242  20.297  0.00  0.00    +0.000 C 
ATOM     17  C   UNL     1       1.418   8.643  21.743  0.00  0.00    +0.000 C 
ATOM     18  C   UNL     1       0.571   9.882  21.942  0.00  0.00    +0.000 C 
ATOM     19  N   UNL     1       0.434  10.468  20.630  0.00  0.00    +0.000 N 
ATOM     20  C   UNL     1       0.761   9.551  19.622  0.00  0.00    +0.000 C 
ATOM     21  O   UNL     1       0.724   9.695  18.408  0.00  0.00    +0.000 OA
BRANCH  19  22
ATOM     22  C   UNL     1      -0.041  11.791  20.436  0.00  0.00    +0.000 A 
ATOM     23  C   UNL     1      -1.389  12.119  20.637  0.00  0.00    +0.000 A 
ATOM     24  C   UNL     1      -1.850  13.420  20.426  0.00  0.00    +0.000 A 
ATOM     25  C   UNL     1      -0.970  14.405  20.010  0.00  0.00    +0.000 A 
ATOM     26  F   UNL     1      -1.426  15.645  19.807  0.00  0.00    +0.000 F 
ATOM     27  C   UNL     1       0.374  14.103  19.798  0.00  0.00    +0.000 A 
ATOM     28 CL   UNL     1       1.474  15.315  19.264  0.00  0.00    +0.000 Cl
ATOM     29  C   UNL     1       0.834  12.802  20.012  0.00  0.00    +0.000 A 
ENDBRANCH  19  22
ENDBRANCH   3  16
TORSDOF 3
ENDMDL
MODEL 8
REMARK VINA RESULT:      -9.2      6.295      8.790
REMARK  Name = 
REMARK  3 active torsions:
REMARK  status: ('A' for Active; 'I' for Inactive)
REMARK    1  A    between atoms: C_2  and  C_18
REMARK    2  A    between atoms: N_3  and  C_4
REMARK    3  A    between atoms: N_7  and  C_8
REMARK                            x       y       z     vdW  Elec       q    Type
REMARK                         _______ _______ _______ _____ _____    ______ ____
ROOT
ATOM      1  O   UNL     1       1.791   5.502  20.240  0.00  0.00    +0.000 OA
ATOM      2  C   UNL     1       2.517   6.288  19.643  0.00  0.00    +0.000 C 
ATOM      3  N   UNL     1       2.323   7.650  19.662  0.00  0.00    +0.000 N 
ATOM      4  H   UNL     1       2.982   8.282  19.223  0.00  0.00    +0.000 HD
ENDROOT
BRANCH   2   5
ATOM      5  C   UNL     1       3.690   5.796  18.893  0.00  0.00    +0.000 A 
ATOM      6  C   UNL     1       4.762   5.273  19.595  0.00  0.00    +0.000 A 
ATOM      7  N   UNL     1       5.906   4.840  19.012  0.00  0.00    +0.000 NA
ATOM      8  C   UNL     1       6.015   4.924  17.666  0.00  0.00    +0.000 A 
ATOM      9  C   UNL     1       7.185   4.545  17.007  0.00  0.00    +0.000 A 
ATOM     10  F   UNL     1       8.228   4.077  17.713  0.00  0.00    +0.000 F 
ATOM     11  C   UNL     1       7.334   4.650  15.624  0.00  0.00    +0.000 A 
ATOM     12  C   UNL     1       6.285   5.134  14.852  0.00  0.00    +0.000 A 
ATOM     13  C   UNL     1       5.095   5.507  15.472  0.00  0.00    +0.000 A 
ATOM     14  C   UNL     1       4.958   5.417  16.869  0.00  0.00    +0.000 A 
ATOM     15  C   UNL     1       3.779   5.837  17.503  0.00  0.00    +0.000 A 
ENDBRANCH   2   5
BRANCH   3  16
ATOM     16  C   UNL     1       1.167   8.235  20.314  0.00  0.00    +0.000 C 
ATOM     17  C   UNL     1       1.422   8.650  21.756  0.00  0.00    +0.000 C 
ATOM     18  C   UNL     1       0.569   9.885  21.948  0.00  0.00    +0.000 C 
ATOM     19  N   UNL     1       0.422  10.459  20.632  0.00  0.00    +0.000 N 
ATOM     20  C   UNL     1       0.750   9.536  19.631  0.00  0.00    +0.000 C 
ATOM     21  O   UNL     1       0.707   9.670  18.416  0.00  0.00    +0.000 OA
BRANCH  19  22
ATOM     22  C   UNL     1      -0.062  11.778  20.430  0.00  0.00    +0.000 A 
ATOM     23  C   UNL     1       0.798  12.822  20.062  0.00  0.00    +0.000 A 
ATOM     24  C   UNL     1       0.315  14.120  19.883  0.00  0.00    +0.000 A 
ATOM     25  C   UNL     1      -1.031  14.387  20.072  0.00  0.00    +0.000 A 
ATOM     26  F   UNL     1      -1.479  15.635  19.902  0.00  0.00    +0.000 F 
ATOM     27  C   UNL     1      -1.905  13.367  20.443  0.00  0.00    +0.000 A 
ATOM     28 CL   UNL     1      -3.576  13.691  20.698  0.00  0.00    +0.000 Cl
ATOM     29  C   UNL     1      -1.421  12.069  20.619  0.00  0.00    +0.000 A 
ENDBRANCH  19  22
ENDBRANCH   3  16
TORSDOF 3
ENDMDL
MODEL 9
REMARK VINA RESULT:      -9.1      0.966      1.206
REMARK  Name = 
REMARK  3 active torsions:
REMARK  status: ('A' for Active; 'I' for Inactive)
REMARK    1  A    between atoms: C_2  and  C_18
REMARK    2  A    between atoms: N_3  and  C_4
REMARK    3  A    between atoms: N_7  and  C_8
REMARK                            x       y       z     vdW  Elec       q    Type
REMARK                         _______ _______ _______ _____ _____    ______ ____
ROOT
ATOM      1  O   UNL     1       8.564   7.523  18.911  0.00  0.00    +0.000 OA
ATOM      2  C   UNL     1       8.130   8.409  18.185  0.00  0.00    +0.000 C 
ATOM      3  N   UNL     1       7.123   8.205  17.271  0.00  0.00    +0.000 N 
ATOM      4  H   UNL     1       6.731   8.971  16.737  0.00  0.00    +0.000 HD
ENDROOT
BRANCH   2   5
ATOM      5  C   UNL     1       8.655   9.786  18.295  0.00  0.00    +0.000 A 
ATOM      6  C   UNL     1       8.056  10.792  17.559  0.00  0.00    +0.000 A 
ATOM      7  N   UNL     1       8.487  12.077  17.547  0.00  0.00    +0.000 NA
ATOM      8  C   UNL     1       9.567  12.401  18.294  0.00  0.00    +0.000 A 
ATOM      9  C   UNL     1      10.094  13.693  18.287  0.00  0.00    +0.000 A 
ATOM     10  F   UNL     1       9.519  14.644  17.533  0.00  0.00    +0.000 F 
ATOM     11  C   UNL     1      11.225  14.045  19.025  0.00  0.00    +0.000 A 
ATOM     12  C   UNL     1      11.857  13.093  19.815  0.00  0.00    +0.000 A 
ATOM     13  C   UNL     1      11.351  11.797  19.861  0.00  0.00    +0.000 A 
ATOM     14  C   UNL     1      10.222  11.442  19.100  0.00  0.00    +0.000 A 
ATOM     15  C   UNL     1       9.737  10.126  19.105  0.00  0.00    +0.000 A 
ENDBRANCH   2   5
BRANCH   3  16
ATOM     16  C   UNL     1       6.579   6.880  17.036  0.00  0.00    +0.000 C 
ATOM     17  C   UNL     1       7.324   5.774  17.768  0.00  0.00    +0.000 C 
ATOM     18  C   UNL     1       6.250   4.767  18.119  0.00  0.00    +0.000 C 
ATOM     19  N   UNL     1       5.023   5.523  18.192  0.00  0.00    +0.000 N 
ATOM     20  C   UNL     1       5.151   6.770  17.566  0.00  0.00    +0.000 C 
ATOM     21  O   UNL     1       4.310   7.644  17.411  0.00  0.00    +0.000 OA
BRANCH  19  22
ATOM     22  C   UNL     1       3.841   4.998  18.778  0.00  0.00    +0.000 A 
ATOM     23  C   UNL     1       3.170   5.681  19.802  0.00  0.00    +0.000 A 
ATOM     24  C   UNL     1       2.019   5.147  20.384  0.00  0.00    +0.000 A 
ATOM     25  C   UNL     1       1.529   3.926  19.952  0.00  0.00    +0.000 A 
ATOM     26  F   UNL     1       0.428   3.424  20.522  0.00  0.00    +0.000 F 
ATOM     27  C   UNL     1       2.182   3.225  18.940  0.00  0.00    +0.000 A 
ATOM     28 CL   UNL     1       1.593   1.698  18.406  0.00  0.00    +0.000 Cl
ATOM     29  C   UNL     1       3.332   3.761  18.356  0.00  0.00    +0.000 A 
ENDBRANCH  19  22
ENDBRANCH   3  16
TORSDOF 3
ENDMDL
