MODEL 1
REMARK VINA RESULT:      -9.0      0.000      0.000
REMARK  Name = 
REMARK  3 active torsions:
REMARK  status: ('A' for Active; 'I' for Inactive)
REMARK    1  A    between atoms: C_2  and  C_20
REMARK    2  A    between atoms: N_3  and  C_4
REMARK    3  A    between atoms: C_7  and  C_8
REMARK                            x       y       z     vdW  Elec       q    Type
REMARK                         _______ _______ _______ _____ _____    ______ ____
ROOT
ATOM      1  C   UNL     1       0.683   9.740  20.104  0.00  0.00    +0.000 A 
ATOM      2  C   UNL     1       1.021   9.894  18.757  0.00  0.00    +0.000 A 
ATOM      3  C   UNL     1       1.836   8.943  18.114  0.00  0.00    +0.000 A 
ATOM      4  C   UNL     1       2.310   7.815  18.795  0.00  0.00    +0.000 A 
ATOM      5  C   UNL     1       2.019   7.709  20.160  0.00  0.00    +0.000 A 
ATOM      6  C   UNL     1       1.211   8.653  20.803  0.00  0.00    +0.000 A 
ENDROOT
BRANCH   4   7
ATOM      7  C   UNL     1       3.105   6.802  18.085  0.00  0.00    +0.000 A 
ATOM      8  N   UNL     1       4.121   7.059  17.279  0.00  0.00    +0.000 NA
ATOM      9  N   UNL     1       4.639   5.873  16.829  0.00  0.00    +0.000 NA
ATOM     10  C   UNL     1       3.931   4.889  17.338  0.00  0.00    +0.000 A 
ATOM     11  N   UNL     1       2.913   5.432  18.097  0.00  0.00    +0.000 N 
ATOM     12  C   UNL     1       1.833   4.708  18.732  0.00  0.00    +0.000 C 
ATOM     13  C   UNL     1       1.324   3.498  17.958  0.00  0.00    +0.000 C 
ATOM     14  C   UNL     1       2.186   2.250  18.133  0.00  0.00    +0.000 C 
ATOM     15  C   UNL     1       3.694   2.498  18.177  0.00  0.00    +0.000 C 
ATOM     16  C   UNL     1       4.188   3.438  17.084  0.00  0.00    +0.000 C 
ENDBRANCH   4   7
BRANCH   1  19
ATOM     17  O   UNL     1       1.298  12.393  21.313  0.00  0.00    +0.000 OA
ATOM     18  C   UNL     1       0.209  11.833  21.393  0.00  0.00    +0.000 C 
ATOM     19  N   UNL     1      -0.142  10.625  20.821  0.00  0.00    +0.000 N 
ATOM     20  H   UNL     1      -1.127  10.386  20.909  0.00  0.00    +0.000 HD
BRANCH  18  21
ATOM     21  C   UNL     1      -0.897  12.480  22.160  0.00  0.00    +0.000 A 
ATOM     22  C   UNL     1      -2.212  12.267  21.792  0.00  0.00    +0.000 A 
ATOM     23  N   UNL     1      -3.241  12.922  22.384  0.00  0.00    +0.000 NA
ATOM     24  C   UNL     1      -2.915  13.823  23.331  0.00  0.00    +0.000 A 
ATOM     25  C   UNL     1      -3.914  14.604  23.898  0.00  0.00    +0.000 A 
ATOM     26  C   UNL     1      -3.619  15.592  24.837  0.00  0.00    +0.000 A 
ATOM     27  C   UNL     1      -2.304  15.776  25.244  0.00  0.00    +0.000 A 
ATOM     28  C   UNL     1      -1.293  14.981  24.700  0.00  0.00    +0.000 A 
ATOM     29  C   UNL     1      -1.565  14.020  23.732  0.00  0.00    +0.000 A 
ATOM     30  N   UNL     1      -0.548  13.330  23.169  0.00  0.00    +0.000 NA
ENDBRANCH  18  21
ENDBRANCH   1  19
TORSDOF 3
ENDMDL
MODEL 2
REMARK VINA RESULT:      -8.9      1.046      1.815
REMARK  Name = 
REMARK  3 active torsions:
REMARK  status: ('A' for Active; 'I' for Inactive)
REMARK    1  A    between atoms: C_2  and  C_20
REMARK    2  A    between atoms: N_3  and  C_4
REMARK    3  A    between atoms: C_7  and  C_8
REMARK                            x       y       z     vdW  Elec       q    Type
REMARK                         _______ _______ _______ _____ _____    ______ ____
ROOT
ATOM      1  C   UNL     1       0.523   9.812  19.831  0.00  0.00    +0.000 A 
ATOM      2  C   UNL     1       0.870   9.892  18.481  0.00  0.00    +0.000 A 
ATOM      3  C   UNL     1       1.740   8.942  17.911  0.00  0.00    +0.000 A 
ATOM      4  C   UNL     1       2.260   7.888  18.672  0.00  0.00    +0.000 A 
ATOM      5  C   UNL     1       1.956   7.859  20.039  0.00  0.00    +0.000 A 
ATOM      6  C   UNL     1       1.094   8.802  20.608  0.00  0.00    +0.000 A 
ENDROOT
BRANCH   4   7
ATOM      7  C   UNL     1       3.113   6.870  18.041  0.00  0.00    +0.000 A 
ATOM      8  N   UNL     1       4.175   7.124  17.295  0.00  0.00    +0.000 NA
ATOM      9  N   UNL     1       4.739   5.936  16.909  0.00  0.00    +0.000 NA
ATOM     10  C   UNL     1       4.014   4.953  17.398  0.00  0.00    +0.000 A 
ATOM     11  N   UNL     1       2.942   5.498  18.076  0.00  0.00    +0.000 N 
ATOM     12  C   UNL     1       1.833   4.773  18.660  0.00  0.00    +0.000 C 
ATOM     13  C   UNL     1       1.394   3.535  17.887  0.00  0.00    +0.000 C 
ATOM     14  C   UNL     1       2.261   2.307  18.148  0.00  0.00    +0.000 C 
ATOM     15  C   UNL     1       3.759   2.580  18.281  0.00  0.00    +0.000 C 
ATOM     16  C   UNL     1       4.308   3.501  17.198  0.00  0.00    +0.000 C 
ENDBRANCH   4   7
BRANCH   1  19
ATOM     17  O   UNL     1       1.094  12.270  21.417  0.00  0.00    +0.000 OA
ATOM     18  C   UNL     1      -0.029  11.811  21.234  0.00  0.00    +0.000 C 
ATOM     19  N   UNL     1      -0.355  10.701  20.478  0.00  0.00    +0.000 N 
ATOM     20  H   UNL     1      -1.354  10.550  20.358  0.00  0.00    +0.000 HD
BRANCH  18  21
ATOM     21  C   UNL     1      -1.210  12.486  21.853  0.00  0.00    +0.000 A 
ATOM     22  C   UNL     1      -1.069  13.169  23.045  0.00  0.00    +0.000 A 
ATOM     23  N   UNL     1      -2.131  13.698  23.702  0.00  0.00    +0.000 NA
ATOM     24  C   UNL     1      -3.343  13.492  23.150  0.00  0.00    +0.000 A 
ATOM     25  C   UNL     1      -4.479  13.915  23.828  0.00  0.00    +0.000 A 
ATOM     26  C   UNL     1      -5.757  13.670  23.327  0.00  0.00    +0.000 A 
ATOM     27  C   UNL     1      -5.900  13.025  22.105  0.00  0.00    +0.000 A 
ATOM     28  C   UNL     1      -4.764  12.618  21.401  0.00  0.00    +0.000 A 
ATOM     29  C   UNL     1      -3.484  12.816  21.907  0.00  0.00    +0.000 A 
ATOM     30  N   UNL     1      -2.416  12.332  21.235  0.00  0.00    +0.000 NA
ENDBRANCH  18  21
ENDBRANCH   1  19
TORSDOF 3
ENDMDL
MODEL 3
REMARK VINA RESULT:      -8.8      1.642      2.702
REMARK  Name = 
REMARK  3 active torsions:
REMARK  status: ('A' for Active; 'I' for Inactive)
REMARK    1  A    between atoms: C_2  and  C_20
REMARK    2  A    between atoms: N_3  and  C_4
REMARK    3  A    between atoms: C_7  and  C_8
REMARK                            x       y       z     vdW  Elec       q    Type
REMARK                         _______ _______ _______ _____ _____    ______ ____
ROOT
ATOM      1  C   UNL     1       1.301   9.110  19.956  0.00  0.00    +0.000 A 
ATOM      2  C   UNL     1       1.622   9.163  18.598  0.00  0.00    +0.000 A 
ATOM      3  C   UNL     1       2.197   8.048  17.958  0.00  0.00    +0.000 A 
ATOM      4  C   UNL     1       2.443   6.859  18.656  0.00  0.00    +0.000 A 
ATOM      5  C   UNL     1       2.179   6.844  20.031  0.00  0.00    +0.000 A 
ATOM      6  C   UNL     1       1.609   7.950  20.670  0.00  0.00    +0.000 A 
ENDROOT
BRANCH   4   7
ATOM      7  C   UNL     1       2.984   5.687  17.952  0.00  0.00    +0.000 A 
ATOM      8  N   UNL     1       2.361   4.529  17.813  0.00  0.00    +0.000 NA
ATOM      9  N   UNL     1       3.150   3.688  17.072  0.00  0.00    +0.000 NA
ATOM     10  C   UNL     1       4.265   4.319  16.774  0.00  0.00    +0.000 A 
ATOM     11  N   UNL     1       4.227   5.569  17.358  0.00  0.00    +0.000 N 
ATOM     12  C   UNL     1       5.301   6.540  17.384  0.00  0.00    +0.000 C 
ATOM     13  C   UNL     1       6.702   5.950  17.493  0.00  0.00    +0.000 C 
ATOM     14  C   UNL     1       7.263   5.449  16.166  0.00  0.00    +0.000 C 
ATOM     15  C   UNL     1       6.256   4.754  15.250  0.00  0.00    +0.000 C 
ATOM     16  C   UNL     1       5.382   3.734  15.971  0.00  0.00    +0.000 C 
ENDBRANCH   4   7
BRANCH   1  19
ATOM     17  O   UNL     1      -1.235  10.590  19.449  0.00  0.00    +0.000 OA
ATOM     18  C   UNL     1      -0.462  10.840  20.367  0.00  0.00    +0.000 C 
ATOM     19  N   UNL     1       0.705  10.164  20.671  0.00  0.00    +0.000 N 
ATOM     20  H   UNL     1       1.148  10.456  21.541  0.00  0.00    +0.000 HD
BRANCH  18  21
ATOM     21  C   UNL     1      -0.763  11.971  21.296  0.00  0.00    +0.000 A 
ATOM     22  C   UNL     1       0.218  12.895  21.603  0.00  0.00    +0.000 A 
ATOM     23  N   UNL     1       0.027  13.868  22.526  0.00  0.00    +0.000 NA
ATOM     24  C   UNL     1      -1.161  13.869  23.162  0.00  0.00    +0.000 A 
ATOM     25  C   UNL     1      -1.379  14.773  24.195  0.00  0.00    +0.000 A 
ATOM     26  C   UNL     1      -2.568  14.772  24.922  0.00  0.00    +0.000 A 
ATOM     27  C   UNL     1      -3.574  13.875  24.586  0.00  0.00    +0.000 A 
ATOM     28  C   UNL     1      -3.378  12.978  23.533  0.00  0.00    +0.000 A 
ATOM     29  C   UNL     1      -2.182  12.938  22.825  0.00  0.00    +0.000 A 
ATOM     30  N   UNL     1      -2.000  11.999  21.869  0.00  0.00    +0.000 NA
ENDBRANCH  18  21
ENDBRANCH   1  19
TORSDOF 3
ENDMDL
MODEL 4
REMARK VINA RESULT:      -8.8      1.093      1.153
REMARK  Name = 
REMARK  3 active torsions:
REMARK  status: ('A' for Active; 'I' for Inactive)
REMARK    1  A    between atoms: C_2  and  C_20
REMARK    2  A    between atoms: N_3  and  C_4
REMARK    3  A    between atoms: C_7  and  C_8
REMARK                            x       y       z     vdW  Elec       q    Type
REMARK                         _______ _______ _______ _____ _____    ______ ____
ROOT
ATOM      1  C   UNL     1       0.509   9.688  20.103  0.00  0.00    +0.000 A 
ATOM      2  C   UNL     1       0.854   9.876  18.762  0.00  0.00    +0.000 A 
ATOM      3  C   UNL     1       1.726   8.979  18.119  0.00  0.00    +0.000 A 
ATOM      4  C   UNL     1       2.253   7.870  18.793  0.00  0.00    +0.000 A 
ATOM      5  C   UNL     1       1.952   7.732  20.153  0.00  0.00    +0.000 A 
ATOM      6  C   UNL     1       1.086   8.623  20.797  0.00  0.00    +0.000 A 
ENDROOT
BRANCH   4   7
ATOM      7  C   UNL     1       3.110   6.910  18.081  0.00  0.00    +0.000 A 
ATOM      8  N   UNL     1       4.144   7.231  17.322  0.00  0.00    +0.000 NA
ATOM      9  N   UNL     1       4.723   6.080  16.855  0.00  0.00    +0.000 NA
ATOM     10  C   UNL     1       4.033   5.054  17.305  0.00  0.00    +0.000 A 
ATOM     11  N   UNL     1       2.970   5.535  18.042  0.00  0.00    +0.000 N 
ATOM     12  C   UNL     1       1.894   4.752  18.614  0.00  0.00    +0.000 C 
ATOM     13  C   UNL     1       1.460   3.550  17.783  0.00  0.00    +0.000 C 
ATOM     14  C   UNL     1       2.360   2.329  17.951  0.00  0.00    +0.000 C 
ATOM     15  C   UNL     1       3.855   2.630  18.059  0.00  0.00    +0.000 C 
ATOM     16  C   UNL     1       4.353   3.623  17.015  0.00  0.00    +0.000 C 
ENDBRANCH   4   7
BRANCH   1  19
ATOM     17  O   UNL     1       0.997  12.295  21.462  0.00  0.00    +0.000 OA
ATOM     18  C   UNL     1      -0.079  11.706  21.463  0.00  0.00    +0.000 C 
ATOM     19  N   UNL     1      -0.371  10.518  20.820  0.00  0.00    +0.000 N 
ATOM     20  H   UNL     1      -1.354  10.252  20.849  0.00  0.00    +0.000 HD
BRANCH  18  21
ATOM     21  C   UNL     1      -1.237  12.289  22.206  0.00  0.00    +0.000 A 
ATOM     22  C   UNL     1      -1.976  11.500  23.066  0.00  0.00    +0.000 A 
ATOM     23  N   UNL     1      -3.102  11.952  23.672  0.00  0.00    +0.000 NA
ATOM     24  C   UNL     1      -3.486  13.207  23.365  0.00  0.00    +0.000 A 
ATOM     25  C   UNL     1      -4.687  13.691  23.868  0.00  0.00    +0.000 A 
ATOM     26  C   UNL     1      -5.158  14.959  23.530  0.00  0.00    +0.000 A 
ATOM     27  C   UNL     1      -4.393  15.774  22.704  0.00  0.00    +0.000 A 
ATOM     28  C   UNL     1      -3.172  15.308  22.212  0.00  0.00    +0.000 A 
ATOM     29  C   UNL     1      -2.709  14.030  22.505  0.00  0.00    +0.000 A 
ATOM     30  N   UNL     1      -1.563  13.587  21.941  0.00  0.00    +0.000 NA
ENDBRANCH  18  21
ENDBRANCH   1  19
TORSDOF 3
ENDMDL
MODEL 5
REMARK VINA RESULT:      -8.8      1.076      1.361
REMARK  Name = 
REMARK  3 active torsions:
REMARK  status: ('A' for Active; 'I' for Inactive)
REMARK    1  A    between atoms: C_2  and  C_20
REMARK    2  A    between atoms: N_3  and  C_4
REMARK    3  A    between atoms: C_7  and  C_8
REMARK                            x       y       z     vdW  Elec       q    Type
REMARK                         _______ _______ _______ _____ _____    ______ ____
ROOT
ATOM      1  C   UNL     1       0.797   9.662  19.638  0.00  0.00    +0.000 A 
ATOM      2  C   UNL     1       1.197   9.629  18.300  0.00  0.00    +0.000 A 
ATOM      3  C   UNL     1       1.989   8.569  17.819  0.00  0.00    +0.000 A 
ATOM      4  C   UNL     1       2.379   7.518  18.657  0.00  0.00    +0.000 A 
ATOM      5  C   UNL     1       2.027   7.598  20.010  0.00  0.00    +0.000 A 
ATOM      6  C   UNL     1       1.241   8.651  20.491  0.00  0.00    +0.000 A 
ENDROOT
BRANCH   4   7
ATOM      7  C   UNL     1       3.151   6.389  18.117  0.00  0.00    +0.000 A 
ATOM      8  N   UNL     1       4.211   6.497  17.335  0.00  0.00    +0.000 NA
ATOM      9  N   UNL     1       4.689   5.242  17.061  0.00  0.00    +0.000 NA
ATOM     10  C   UNL     1       3.912   4.362  17.655  0.00  0.00    +0.000 A 
ATOM     11  N   UNL     1       2.892   5.041  18.291  0.00  0.00    +0.000 N 
ATOM     12  C   UNL     1       1.752   4.452  18.960  0.00  0.00    +0.000 C 
ATOM     13  C   UNL     1       1.217   3.176  18.320  0.00  0.00    +0.000 C 
ATOM     14  C   UNL     1       2.008   1.924  18.689  0.00  0.00    +0.000 C 
ATOM     15  C   UNL     1       3.523   2.110  18.773  0.00  0.00    +0.000 C 
ATOM     16  C   UNL     1       4.108   2.881  17.596  0.00  0.00    +0.000 C 
ENDBRANCH   4   7
BRANCH   1  19
ATOM     17  O   UNL     1       1.543  12.094  21.190  0.00  0.00    +0.000 OA
ATOM     18  C   UNL     1       0.389  11.758  20.944  0.00  0.00    +0.000 C 
ATOM     19  N   UNL     1      -0.012  10.666  20.199  0.00  0.00    +0.000 N 
ATOM     20  H   UNL     1      -1.013  10.624  20.015  0.00  0.00    +0.000 HD
BRANCH  18  21
ATOM     21  C   UNL     1      -0.743  12.583  21.463  0.00  0.00    +0.000 A 
ATOM     22  C   UNL     1      -0.796  13.937  21.189  0.00  0.00    +0.000 A 
ATOM     23  N   UNL     1      -1.738  14.746  21.732  0.00  0.00    +0.000 NA
ATOM     24  C   UNL     1      -2.606  14.169  22.586  0.00  0.00    +0.000 A 
ATOM     25  C   UNL     1      -3.527  14.962  23.258  0.00  0.00    +0.000 A 
ATOM     26  C   UNL     1      -4.405  14.421  24.197  0.00  0.00    +0.000 A 
ATOM     27  C   UNL     1      -4.386  13.053  24.440  0.00  0.00    +0.000 A 
ATOM     28  C   UNL     1      -3.482  12.240  23.752  0.00  0.00    +0.000 A 
ATOM     29  C   UNL     1      -2.572  12.771  22.844  0.00  0.00    +0.000 A 
ATOM     30  N   UNL     1      -1.658  11.962  22.262  0.00  0.00    +0.000 NA
ENDBRANCH  18  21
ENDBRANCH   1  19
TORSDOF 3
ENDMDL
MODEL 6
REMARK VINA RESULT:      -8.8      7.184      9.395
REMARK  Name = 
REMARK  3 active torsions:
REMARK  status: ('A' for Active; 'I' for Inactive)
REMARK    1  A    between atoms: C_2  and  C_20
REMARK    2  A    between atoms: N_3  and  C_4
REMARK    3  A    between atoms: C_7  and  C_8
REMARK                            x       y       z     vdW  Elec       q    Type
REMARK                         _______ _______ _______ _____ _____    ______ ____
ROOT
ATOM      1  C   UNL     1       7.683   8.246  17.777  0.00  0.00    +0.000 A 
ATOM      2  C   UNL     1       8.083   7.102  18.471  0.00  0.00    +0.000 A 
ATOM      3  C   UNL     1       7.240   5.976  18.534  0.00  0.00    +0.000 A 
ATOM      4  C   UNL     1       5.996   5.965  17.891  0.00  0.00    +0.000 A 
ATOM      5  C   UNL     1       5.581   7.142  17.256  0.00  0.00    +0.000 A 
ATOM      6  C   UNL     1       6.415   8.263  17.193  0.00  0.00    +0.000 A 
ENDROOT
BRANCH   4   7
ATOM      7  C   UNL     1       5.161   4.755  17.914  0.00  0.00    +0.000 A 
ATOM      8  N   UNL     1       5.243   3.757  17.051  0.00  0.00    +0.000 NA
ATOM      9  N   UNL     1       4.339   2.790  17.406  0.00  0.00    +0.000 NA
ATOM     10  C   UNL     1       3.686   3.201  18.471  0.00  0.00    +0.000 A 
ATOM     11  N   UNL     1       4.136   4.465  18.796  0.00  0.00    +0.000 N 
ATOM     12  C   UNL     1       3.599   5.332  19.824  0.00  0.00    +0.000 C 
ATOM     13  C   UNL     1       2.090   5.243  20.020  0.00  0.00    +0.000 C 
ATOM     14  C   UNL     1       1.650   4.055  20.872  0.00  0.00    +0.000 C 
ATOM     15  C   UNL     1       2.426   2.759  20.637  0.00  0.00    +0.000 C 
ATOM     16  C   UNL     1       2.614   2.422  19.162  0.00  0.00    +0.000 C 
ENDBRANCH   4   7
BRANCH   1  19
ATOM     17  O   UNL     1       8.989   9.940  19.853  0.00  0.00    +0.000 OA
ATOM     18  C   UNL     1       9.020  10.175  18.649  0.00  0.00    +0.000 C 
ATOM     19  N   UNL     1       8.467   9.406  17.643  0.00  0.00    +0.000 N 
ATOM     20  H   UNL     1       8.699   9.713  16.700  0.00  0.00    +0.000 HD
BRANCH  18  21
ATOM     21  C   UNL     1       9.726  11.396  18.156  0.00  0.00    +0.000 A 
ATOM     22  C   UNL     1      11.064  11.333  17.819  0.00  0.00    +0.000 A 
ATOM     23  N   UNL     1      11.775  12.436  17.478  0.00  0.00    +0.000 NA
ATOM     24  C   UNL     1      11.116  13.611  17.518  0.00  0.00    +0.000 A 
ATOM     25  C   UNL     1      11.814  14.789  17.284  0.00  0.00    +0.000 A 
ATOM     26  C   UNL     1      11.191  16.033  17.375  0.00  0.00    +0.000 A 
ATOM     27  C   UNL     1       9.834  16.097  17.667  0.00  0.00    +0.000 A 
ATOM     28  C   UNL     1       9.115  14.919  17.879  0.00  0.00    +0.000 A 
ATOM     29  C   UNL     1       9.731  13.673  17.834  0.00  0.00    +0.000 A 
ATOM     30  N   UNL     1       9.018  12.562  18.128  0.00  0.00    +0.000 NA
ENDBRANCH  18  21
ENDBRANCH   1  19
TORSDOF 3
ENDMDL
MODEL 7
REMARK VINA RESULT:      -8.6      0.999      1.337
REMARK  Name = 
REMARK  3 active torsions:
REMARK  status: ('A' for Active; 'I' for Inactive)
REMARK    1  A    between atoms: C_2  and  C_20
REMARK    2  A    between atoms: N_3  and  C_4
REMARK    3  A    between atoms: C_7  and  C_8
REMARK                            x       y       z     vdW  Elec       q    Type
REMARK                         _______ _______ _______ _____ _____    ______ ____
ROOT
ATOM      1  C   UNL     1       0.681   9.713  20.563  0.00  0.00    +0.000 A 
ATOM      2  C   UNL     1       1.159   8.531  21.132  0.00  0.00    +0.000 A 
ATOM      3  C   UNL     1       1.888   7.610  20.356  0.00  0.00    +0.000 A 
ATOM      4  C   UNL     1       2.168   7.861  19.007  0.00  0.00    +0.000 A 
ATOM      5  C   UNL     1       1.625   9.018  18.433  0.00  0.00    +0.000 A 
ATOM      6  C   UNL     1       0.899   9.934  19.202  0.00  0.00    +0.000 A 
ENDROOT
BRANCH   4   7
ATOM      7  C   UNL     1       2.986   6.916  18.232  0.00  0.00    +0.000 A 
ATOM      8  N   UNL     1       3.973   7.253  17.420  0.00  0.00    +0.000 NA
ATOM      9  N   UNL     1       4.528   6.112  16.902  0.00  0.00    +0.000 NA
ATOM     10  C   UNL     1       3.871   5.076  17.377  0.00  0.00    +0.000 A 
ATOM     11  N   UNL     1       2.849   5.541  18.181  0.00  0.00    +0.000 N 
ATOM     12  C   UNL     1       1.812   4.744  18.802  0.00  0.00    +0.000 C 
ATOM     13  C   UNL     1       1.336   3.552  17.980  0.00  0.00    +0.000 C 
ATOM     14  C   UNL     1       2.250   2.334  18.077  0.00  0.00    +0.000 C 
ATOM     15  C   UNL     1       3.747   2.640  18.102  0.00  0.00    +0.000 C 
ATOM     16  C   UNL     1       4.180   3.651  17.047  0.00  0.00    +0.000 C 
ENDBRANCH   4   7
BRANCH   1  19
ATOM     17  O   UNL     1       0.100   9.963  23.475  0.00  0.00    +0.000 OA
ATOM     18  C   UNL     1      -0.305  10.744  22.621  0.00  0.00    +0.000 C 
ATOM     19  N   UNL     1      -0.035  10.699  21.266  0.00  0.00    +0.000 N 
ATOM     20  H   UNL     1      -0.371  11.504  20.741  0.00  0.00    +0.000 HD
BRANCH  18  21
ATOM     21  C   UNL     1      -1.170  11.893  23.025  0.00  0.00    +0.000 A 
ATOM     22  C   UNL     1      -2.538  11.728  23.122  0.00  0.00    +0.000 A 
ATOM     23  N   UNL     1      -3.374  12.766  23.372  0.00  0.00    +0.000 NA
ATOM     24  C   UNL     1      -2.803  13.982  23.486  0.00  0.00    +0.000 A 
ATOM     25  C   UNL     1      -3.614  15.101  23.635  0.00  0.00    +0.000 A 
ATOM     26  C   UNL     1      -3.074  16.385  23.696  0.00  0.00    +0.000 A 
ATOM     27  C   UNL     1      -1.696  16.550  23.646  0.00  0.00    +0.000 A 
ATOM     28  C   UNL     1      -0.869  15.431  23.522  0.00  0.00    +0.000 A 
ATOM     29  C   UNL     1      -1.393  14.148  23.418  0.00  0.00    +0.000 A 
ATOM     30  N   UNL     1      -0.563  13.100  23.214  0.00  0.00    +0.000 NA
ENDBRANCH  18  21
ENDBRANCH   1  19
TORSDOF 3
ENDMDL
MODEL 8
REMARK VINA RESULT:      -8.5      2.981     11.216
REMARK  Name = 
REMARK  3 active torsions:
REMARK  status: ('A' for Active; 'I' for Inactive)
REMARK    1  A    between atoms: C_2  and  C_20
REMARK    2  A    between atoms: N_3  and  C_4
REMARK    3  A    between atoms: C_7  and  C_8
REMARK                            x       y       z     vdW  Elec       q    Type
REMARK                         _______ _______ _______ _____ _____    ______ ____
ROOT
ATOM      1  C   UNL     1       2.864   7.541  18.313  0.00  0.00    +0.000 A 
ATOM      2  C   UNL     1       2.246   8.764  18.042  0.00  0.00    +0.000 A 
ATOM      3  C   UNL     1       1.406   9.365  18.999  0.00  0.00    +0.000 A 
ATOM      4  C   UNL     1       1.183   8.767  20.246  0.00  0.00    +0.000 A 
ATOM      5  C   UNL     1       1.755   7.510  20.477  0.00  0.00    +0.000 A 
ATOM      6  C   UNL     1       2.589   6.909  19.527  0.00  0.00    +0.000 A 
ENDROOT
BRANCH   4   7
ATOM      7  C   UNL     1       0.354   9.445  21.254  0.00  0.00    +0.000 A 
ATOM      8  N   UNL     1       0.161   9.019  22.490  0.00  0.00    +0.000 NA
ATOM      9  N   UNL     1      -0.635   9.920  23.149  0.00  0.00    +0.000 NA
ATOM     10  C   UNL     1      -0.949  10.887  22.314  0.00  0.00    +0.000 A 
ATOM     11  N   UNL     1      -0.389  10.599  21.085  0.00  0.00    +0.000 N 
ATOM     12  C   UNL     1      -0.588  11.335  19.854  0.00  0.00    +0.000 C 
ATOM     13  C   UNL     1      -1.982  11.924  19.674  0.00  0.00    +0.000 C 
ATOM     14  C   UNL     1      -2.198  13.234  20.426  0.00  0.00    +0.000 C 
ATOM     15  C   UNL     1      -1.558  13.306  21.812  0.00  0.00    +0.000 C 
ATOM     16  C   UNL     1      -1.804  12.063  22.660  0.00  0.00    +0.000 C 
ENDBRANCH   4   7
BRANCH   1  19
ATOM     17  O   UNL     1       4.655   5.202  18.761  0.00  0.00    +0.000 OA
ATOM     18  C   UNL     1       4.574   5.817  17.703  0.00  0.00    +0.000 C 
ATOM     19  N   UNL     1       3.735   6.880  17.428  0.00  0.00    +0.000 N 
ATOM     20  H   UNL     1       3.736   7.179  16.455  0.00  0.00    +0.000 HD
BRANCH  18  21
ATOM     21  C   UNL     1       5.432   5.412  16.549  0.00  0.00    +0.000 A 
ATOM     22  C   UNL     1       6.703   5.938  16.414  0.00  0.00    +0.000 A 
ATOM     23  N   UNL     1       7.473   5.692  15.326  0.00  0.00    +0.000 NA
ATOM     24  C   UNL     1       6.921   4.933  14.359  0.00  0.00    +0.000 A 
ATOM     25  C   UNL     1       7.617   4.733  13.173  0.00  0.00    +0.000 A 
ATOM     26  C   UNL     1       7.062   4.007  12.119  0.00  0.00    +0.000 A 
ATOM     27  C   UNL     1       5.804   3.437  12.269  0.00  0.00    +0.000 A 
ATOM     28  C   UNL     1       5.105   3.610  13.466  0.00  0.00    +0.000 A 
ATOM     29  C   UNL     1       5.626   4.366  14.510  0.00  0.00    +0.000 A 
ATOM     30  N   UNL     1       4.882   4.579  15.619  0.00  0.00    +0.000 NA
ENDBRANCH  18  21
ENDBRANCH   1  19
TORSDOF 3
ENDMDL
MODEL 9
REMARK VINA RESULT:      -8.4      1.607      2.452
REMARK  Name = 
REMARK  3 active torsions:
REMARK  status: ('A' for Active; 'I' for Inactive)
REMARK    1  A    between atoms: C_2  and  C_20
REMARK    2  A    between atoms: N_3  and  C_4
REMARK    3  A    between atoms: C_7  and  C_8
REMARK                            x       y       z     vdW  Elec       q    Type
REMARK                         _______ _______ _______ _____ _____    ______ ____
ROOT
ATOM      1  C   UNL     1       1.164   8.900  20.067  0.00  0.00    +0.000 A 
ATOM      2  C   UNL     1       1.485   9.007  18.711  0.00  0.00    +0.000 A 
ATOM      3  C   UNL     1       2.121   7.943  18.044  0.00  0.00    +0.000 A 
ATOM      4  C   UNL     1       2.428   6.750  18.711  0.00  0.00    +0.000 A 
ATOM      5  C   UNL     1       2.161   6.683  20.084  0.00  0.00    +0.000 A 
ATOM      6  C   UNL     1       1.531   7.740  20.750  0.00  0.00    +0.000 A 
ENDROOT
BRANCH   4   7
ATOM      7  C   UNL     1       3.033   5.628  17.978  0.00  0.00    +0.000 A 
ATOM      8  N   UNL     1       2.472   4.443  17.803  0.00  0.00    +0.000 NA
ATOM      9  N   UNL     1       3.308   3.666  17.043  0.00  0.00    +0.000 NA
ATOM     10  C   UNL     1       4.390   4.362  16.770  0.00  0.00    +0.000 A 
ATOM     11  N   UNL     1       4.284   5.593  17.388  0.00  0.00    +0.000 N 
ATOM     12  C   UNL     1       5.305   6.617  17.448  0.00  0.00    +0.000 C 
ATOM     13  C   UNL     1       6.734   6.098  17.549  0.00  0.00    +0.000 C 
ATOM     14  C   UNL     1       7.327   5.666  16.212  0.00  0.00    +0.000 C 
ATOM     15  C   UNL     1       6.363   4.944  15.271  0.00  0.00    +0.000 C 
ATOM     16  C   UNL     1       5.540   3.860  15.958  0.00  0.00    +0.000 C 
ENDBRANCH   4   7
BRANCH   1  19
ATOM     17  O   UNL     1       1.562  11.854  20.087  0.00  0.00    +0.000 OA
ATOM     18  C   UNL     1       0.762  11.260  20.802  0.00  0.00    +0.000 C 
ATOM     19  N   UNL     1       0.509   9.901  20.807  0.00  0.00    +0.000 N 
ATOM     20  H   UNL     1      -0.272   9.619  21.396  0.00  0.00    +0.000 HD
BRANCH  18  21
ATOM     21  C   UNL     1      -0.064  12.030  21.779  0.00  0.00    +0.000 A 
ATOM     22  C   UNL     1      -1.148  11.432  22.392  0.00  0.00    +0.000 A 
ATOM     23  N   UNL     1      -1.995  12.122  23.196  0.00  0.00    +0.000 NA
ATOM     24  C   UNL     1      -1.746  13.439  23.339  0.00  0.00    +0.000 A 
ATOM     25  C   UNL     1      -2.636  14.223  24.061  0.00  0.00    +0.000 A 
ATOM     26  C   UNL     1      -2.455  15.600  24.187  0.00  0.00    +0.000 A 
ATOM     27  C   UNL     1      -1.341  16.198  23.611  0.00  0.00    +0.000 A 
ATOM     28  C   UNL     1      -0.424  15.416  22.904  0.00  0.00    +0.000 A 
ATOM     29  C   UNL     1      -0.613  14.049  22.734  0.00  0.00    +0.000 A 
ATOM     30  N   UNL     1       0.253  13.343  21.972  0.00  0.00    +0.000 NA
ENDBRANCH  18  21
ENDBRANCH   1  19
TORSDOF 3
ENDMDL
