MODEL 1
REMARK VINA RESULT:      -8.7      0.000      0.000
REMARK  Name = 
REMARK  5 active torsions:
REMARK  status: ('A' for Active; 'I' for Inactive)
REMARK    1  A    between atoms: C_1  and  C_2
REMARK    2  A    between atoms: C_5  and  C_6
REMARK    3  A    between atoms: C_10  and  C_11
REMARK    4  A    between atoms: N_13  and  C_14
REMARK    5  A    between atoms: C_19  and  C_20
REMARK                            x       y       z     vdW  Elec       q    Type
REMARK                         _______ _______ _______ _____ _____    ______ ____
ROOT
ATOM      1  C   UNL     1       2.711   6.381  19.042  0.00  0.00    +0.000 C 
ATOM      2  O   UNL     1       3.801   6.216  19.582  0.00  0.00    +0.000 OA
ATOM      3  N   UNL     1       1.974   5.356  18.459  0.00  0.00    +0.000 N 
ATOM      4  H   UNL     1       1.383   5.615  17.676  0.00  0.00    +0.000 HD
ENDROOT
BRANCH   1   9
ATOM      5  C   UNL     1       0.904   9.690  19.728  0.00  0.00    +0.000 A 
ATOM      6  C   UNL     1       1.310  10.330  18.552  0.00  0.00    +0.000 A 
ATOM      7  N   UNL     1       2.093   9.779  17.598  0.00  0.00    +0.000 NA
ATOM      8  C   UNL     1       2.504   8.509  17.816  0.00  0.00    +0.000 A 
ATOM      9  C   UNL     1       2.173   7.763  18.941  0.00  0.00    +0.000 A 
ATOM     10  C   UNL     1       1.371   8.375  19.909  0.00  0.00    +0.000 A 
BRANCH   5  15
ATOM     11  C   UNL     1      -2.554  12.283  23.609  0.00  0.00    +0.000 C 
ATOM     12  C   UNL     1      -1.645  11.621  22.620  0.00  0.00    +0.000 A 
ATOM     13  C   UNL     1      -0.894  10.495  22.974  0.00  0.00    +0.000 A 
ATOM     14  C   UNL     1      -0.062   9.887  22.036  0.00  0.00    +0.000 A 
ATOM     15  C   UNL     1       0.039  10.356  20.719  0.00  0.00    +0.000 A 
ATOM     16  C   UNL     1      -0.715  11.491  20.383  0.00  0.00    +0.000 A 
ATOM     17  C   UNL     1      -1.545  12.121  21.322  0.00  0.00    +0.000 A 
ENDBRANCH   5  15
ENDBRANCH   1   9
BRANCH   3  18
ATOM     18  C   UNL     1       2.458   4.027  18.484  0.00  0.00    +0.000 A 
ATOM     19  C   UNL     1       3.127   3.540  17.350  0.00  0.00    +0.000 A 
ATOM     20  C   UNL     1       3.650   2.248  17.329  0.00  0.00    +0.000 A 
ATOM     21  C   UNL     1       3.509   1.428  18.441  0.00  0.00    +0.000 A 
ATOM     22  C   UNL     1       2.840   1.900  19.570  0.00  0.00    +0.000 A 
ATOM     23  C   UNL     1       2.300   3.202  19.609  0.00  0.00    +0.000 A 
BRANCH  23  24
ATOM     24  C   UNL     1       1.475   3.579  20.811  0.00  0.00    +0.000 C 
ATOM     25  F   UNL     1       1.090   2.523  21.589  0.00  0.00    +0.000 F 
ATOM     26  F   UNL     1       2.129   4.433  21.647  0.00  0.00    +0.000 F 
ATOM     27  F   UNL     1       0.317   4.212  20.469  0.00  0.00    +0.000 F 
ENDBRANCH  23  24
ENDBRANCH   3  18
TORSDOF 4
ENDMDL
MODEL 2
REMARK VINA RESULT:      -8.1      3.489      8.577
REMARK  Name = 
REMARK  5 active torsions:
REMARK  status: ('A' for Active; 'I' for Inactive)
REMARK    1  A    between atoms: C_1  and  C_2
REMARK    2  A    between atoms: C_5  and  C_6
REMARK    3  A    between atoms: C_10  and  C_11
REMARK    4  A    between atoms: N_13  and  C_14
REMARK    5  A    between atoms: C_19  and  C_20
REMARK                            x       y       z     vdW  Elec       q    Type
REMARK                         _______ _______ _______ _____ _____    ______ ____
ROOT
ATOM      1  C   UNL     1       1.286   9.203  19.860  0.00  0.00    +0.000 C 
ATOM      2  O   UNL     1       0.743   9.509  20.918  0.00  0.00    +0.000 OA
ATOM      3  N   UNL     1       1.366  10.049  18.759  0.00  0.00    +0.000 N 
ATOM      4  H   UNL     1       1.385   9.603  17.849  0.00  0.00    +0.000 HD
ENDROOT
BRANCH   1   9
ATOM      5  C   UNL     1       3.118   6.079  18.609  0.00  0.00    +0.000 A 
ATOM      6  C   UNL     1       2.740   5.248  19.670  0.00  0.00    +0.000 A 
ATOM      7  N   UNL     1       1.965   5.622  20.712  0.00  0.00    +0.000 NA
ATOM      8  C   UNL     1       1.529   6.902  20.708  0.00  0.00    +0.000 A 
ATOM      9  C   UNL     1       1.833   7.829  19.718  0.00  0.00    +0.000 A 
ATOM     10  C   UNL     1       2.648   7.404  18.664  0.00  0.00    +0.000 A 
BRANCH   5  15
ATOM     11  C   UNL     1       6.389   4.160  14.208  0.00  0.00    +0.000 C 
ATOM     12  C   UNL     1       5.564   4.662  15.352  0.00  0.00    +0.000 A 
ATOM     13  C   UNL     1       5.417   6.034  15.588  0.00  0.00    +0.000 A 
ATOM     14  C   UNL     1       4.637   6.480  16.651  0.00  0.00    +0.000 A 
ATOM     15  C   UNL     1       3.961   5.593  17.502  0.00  0.00    +0.000 A 
ATOM     16  C   UNL     1       4.125   4.222  17.257  0.00  0.00    +0.000 A 
ATOM     17  C   UNL     1       4.921   3.758  16.198  0.00  0.00    +0.000 A 
ENDBRANCH   5  15
ENDBRANCH   1   9
BRANCH   3  18
ATOM     18  C   UNL     1       0.822  11.354  18.823  0.00  0.00    +0.000 A 
ATOM     19  C   UNL     1       1.642  12.395  19.286  0.00  0.00    +0.000 A 
ATOM     20  C   UNL     1       1.169  13.705  19.343  0.00  0.00    +0.000 A 
ATOM     21  C   UNL     1      -0.129  13.988  18.939  0.00  0.00    +0.000 A 
ATOM     22  C   UNL     1      -0.955  12.960  18.485  0.00  0.00    +0.000 A 
ATOM     23  C   UNL     1      -0.496  11.627  18.424  0.00  0.00    +0.000 A 
BRANCH  23  24
ATOM     24  C   UNL     1      -1.495  10.563  18.055  0.00  0.00    +0.000 C 
ATOM     25  F   UNL     1      -1.082   9.714  17.068  0.00  0.00    +0.000 F 
ATOM     26  F   UNL     1      -1.824   9.767  19.112  0.00  0.00    +0.000 F 
ATOM     27  F   UNL     1      -2.671  11.087  17.608  0.00  0.00    +0.000 F 
ENDBRANCH  23  24
ENDBRANCH   3  18
TORSDOF 4
ENDMDL
MODEL 3
REMARK VINA RESULT:      -8.1      2.164      2.659
REMARK  Name = 
REMARK  5 active torsions:
REMARK  status: ('A' for Active; 'I' for Inactive)
REMARK    1  A    between atoms: C_1  and  C_2
REMARK    2  A    between atoms: C_5  and  C_6
REMARK    3  A    between atoms: C_10  and  C_11
REMARK    4  A    between atoms: N_13  and  C_14
REMARK    5  A    between atoms: C_19  and  C_20
REMARK                            x       y       z     vdW  Elec       q    Type
REMARK                         _______ _______ _______ _____ _____    ______ ____
ROOT
ATOM      1  C   UNL     1       2.280   6.710  19.080  0.00  0.00    +0.000 C 
ATOM      2  O   UNL     1       2.749   6.282  20.131  0.00  0.00    +0.000 OA
ATOM      3  N   UNL     1       2.161   5.951  17.921  0.00  0.00    +0.000 N 
ATOM      4  H   UNL     1       2.222   6.455  17.043  0.00  0.00    +0.000 HD
ENDROOT
BRANCH   1   9
ATOM      5  C   UNL     1       0.723  10.136  19.804  0.00  0.00    +0.000 A 
ATOM      6  C   UNL     1       1.283  10.792  18.702  0.00  0.00    +0.000 A 
ATOM      7  N   UNL     1       2.092  10.217  17.784  0.00  0.00    +0.000 NA
ATOM      8  C   UNL     1       2.368   8.905  17.963  0.00  0.00    +0.000 A 
ATOM      9  C   UNL     1       1.878   8.140  19.014  0.00  0.00    +0.000 A 
ATOM     10  C   UNL     1       1.054   8.776  19.948  0.00  0.00    +0.000 A 
BRANCH   5  15
ATOM     11  C   UNL     1      -2.808  12.841  23.541  0.00  0.00    +0.000 C 
ATOM     12  C   UNL     1      -1.880  12.150  22.589  0.00  0.00    +0.000 A 
ATOM     13  C   UNL     1      -1.107  11.058  23.000  0.00  0.00    +0.000 A 
ATOM     14  C   UNL     1      -0.259  10.424  22.096  0.00  0.00    +0.000 A 
ATOM     15  C   UNL     1      -0.161  10.831  20.758  0.00  0.00    +0.000 A 
ATOM     16  C   UNL     1      -0.936  11.932  20.364  0.00  0.00    +0.000 A 
ATOM     17  C   UNL     1      -1.784  12.589  21.269  0.00  0.00    +0.000 A 
ENDBRANCH   5  15
ENDBRANCH   1   9
BRANCH   3  18
ATOM     18  C   UNL     1       2.570   4.596  17.912  0.00  0.00    +0.000 A 
ATOM     19  C   UNL     1       1.656   3.622  18.344  0.00  0.00    +0.000 A 
ATOM     20  C   UNL     1       1.995   2.270  18.331  0.00  0.00    +0.000 A 
ATOM     21  C   UNL     1       3.250   1.877  17.886  0.00  0.00    +0.000 A 
ATOM     22  C   UNL     1       4.168   2.837  17.461  0.00  0.00    +0.000 A 
ATOM     23  C   UNL     1       3.846   4.211  17.472  0.00  0.00    +0.000 A 
BRANCH  23  24
ATOM     24  C   UNL     1       4.942   5.185  17.131  0.00  0.00    +0.000 C 
ATOM     25  F   UNL     1       4.598   6.123  16.199  0.00  0.00    +0.000 F 
ATOM     26  F   UNL     1       5.374   5.887  18.217  0.00  0.00    +0.000 F 
ATOM     27  F   UNL     1       6.048   4.568  16.627  0.00  0.00    +0.000 F 
ENDBRANCH  23  24
ENDBRANCH   3  18
TORSDOF 4
ENDMDL
MODEL 4
REMARK VINA RESULT:      -8.1      3.464      8.538
REMARK  Name = 
REMARK  5 active torsions:
REMARK  status: ('A' for Active; 'I' for Inactive)
REMARK    1  A    between atoms: C_1  and  C_2
REMARK    2  A    between atoms: C_5  and  C_6
REMARK    3  A    between atoms: C_10  and  C_11
REMARK    4  A    between atoms: N_13  and  C_14
REMARK    5  A    between atoms: C_19  and  C_20
REMARK                            x       y       z     vdW  Elec       q    Type
REMARK                         _______ _______ _______ _____ _____    ______ ____
ROOT
ATOM      1  C   UNL     1       1.275   9.207  19.906  0.00  0.00    +0.000 C 
ATOM      2  O   UNL     1       0.747   9.510  20.972  0.00  0.00    +0.000 OA
ATOM      3  N   UNL     1       1.334  10.053  18.804  0.00  0.00    +0.000 N 
ATOM      4  H   UNL     1       1.341   9.607  17.893  0.00  0.00    +0.000 HD
ENDROOT
BRANCH   1   9
ATOM      5  C   UNL     1       3.104   6.092  18.627  0.00  0.00    +0.000 A 
ATOM      6  C   UNL     1       2.743   5.258  19.692  0.00  0.00    +0.000 A 
ATOM      7  N   UNL     1       1.979   5.627  20.744  0.00  0.00    +0.000 NA
ATOM      8  C   UNL     1       1.538   6.906  20.748  0.00  0.00    +0.000 A 
ATOM      9  C   UNL     1       1.825   7.835  19.754  0.00  0.00    +0.000 A 
ATOM     10  C   UNL     1       2.628   7.415  18.690  0.00  0.00    +0.000 A 
BRANCH   5  15
ATOM     11  C   UNL     1       6.428   4.201  14.254  0.00  0.00    +0.000 C 
ATOM     12  C   UNL     1       5.554   4.681  15.371  0.00  0.00    +0.000 A 
ATOM     13  C   UNL     1       4.890   3.775  16.207  0.00  0.00    +0.000 A 
ATOM     14  C   UNL     1       4.090   4.242  17.247  0.00  0.00    +0.000 A 
ATOM     15  C   UNL     1       3.935   5.611  17.508  0.00  0.00    +0.000 A 
ATOM     16  C   UNL     1       4.599   6.505  16.657  0.00  0.00    +0.000 A 
ATOM     17  C   UNL     1       5.397   6.048  15.596  0.00  0.00    +0.000 A 
ENDBRANCH   5  15
ENDBRANCH   1   9
BRANCH   3  18
ATOM     18  C   UNL     1       0.785  11.355  18.876  0.00  0.00    +0.000 A 
ATOM     19  C   UNL     1       1.601  12.396  19.347  0.00  0.00    +0.000 A 
ATOM     20  C   UNL     1       1.123  13.704  19.413  0.00  0.00    +0.000 A 
ATOM     21  C   UNL     1      -0.176  13.986  19.010  0.00  0.00    +0.000 A 
ATOM     22  C   UNL     1      -0.997  12.957  18.547  0.00  0.00    +0.000 A 
ATOM     23  C   UNL     1      -0.533  11.627  18.478  0.00  0.00    +0.000 A 
BRANCH  23  24
ATOM     24  C   UNL     1      -1.528  10.562  18.100  0.00  0.00    +0.000 C 
ATOM     25  F   UNL     1      -1.830   9.686  19.104  0.00  0.00    +0.000 F 
ATOM     26  F   UNL     1      -2.721  11.082  17.693  0.00  0.00    +0.000 F 
ATOM     27  F   UNL     1      -1.093   9.787  17.067  0.00  0.00    +0.000 F 
ENDBRANCH  23  24
ENDBRANCH   3  18
TORSDOF 4
ENDMDL
MODEL 5
REMARK VINA RESULT:      -8.0      3.369      8.486
REMARK  Name = 
REMARK  5 active torsions:
REMARK  status: ('A' for Active; 'I' for Inactive)
REMARK    1  A    between atoms: C_1  and  C_2
REMARK    2  A    between atoms: C_5  and  C_6
REMARK    3  A    between atoms: C_10  and  C_11
REMARK    4  A    between atoms: N_13  and  C_14
REMARK    5  A    between atoms: C_19  and  C_20
REMARK                            x       y       z     vdW  Elec       q    Type
REMARK                         _______ _______ _______ _____ _____    ______ ____
ROOT
ATOM      1  C   UNL     1       2.018   6.152  20.227  0.00  0.00    +0.000 C 
ATOM      2  O   UNL     1       1.009   5.748  20.800  0.00  0.00    +0.000 OA
ATOM      3  N   UNL     1       2.308   7.497  20.032  0.00  0.00    +0.000 N 
ATOM      4  H   UNL     1       2.848   7.727  19.204  0.00  0.00    +0.000 HD
ENDROOT
BRANCH   1   9
ATOM      5  C   UNL     1       4.569   4.343  18.013  0.00  0.00    +0.000 A 
ATOM      6  C   UNL     1       4.624   3.170  18.775  0.00  0.00    +0.000 A 
ATOM      7  N   UNL     1       3.918   2.943  19.905  0.00  0.00    +0.000 NA
ATOM      8  C   UNL     1       3.098   3.939  20.312  0.00  0.00    +0.000 A 
ATOM      9  C   UNL     1       2.952   5.151  19.649  0.00  0.00    +0.000 A 
ATOM     10  C   UNL     1       3.710   5.350  18.491  0.00  0.00    +0.000 A 
BRANCH   5  15
ATOM     11  C   UNL     1       7.734   4.951  13.180  0.00  0.00    +0.000 C 
ATOM     12  C   UNL     1       6.905   4.810  14.419  0.00  0.00    +0.000 A 
ATOM     13  C   UNL     1       5.587   4.344  14.355  0.00  0.00    +0.000 A 
ATOM     14  C   UNL     1       4.836   4.211  15.521  0.00  0.00    +0.000 A 
ATOM     15  C   UNL     1       5.365   4.512  16.784  0.00  0.00    +0.000 A 
ATOM     16  C   UNL     1       6.685   4.985  16.830  0.00  0.00    +0.000 A 
ATOM     17  C   UNL     1       7.447   5.138  15.661  0.00  0.00    +0.000 A 
ENDBRANCH   5  15
ENDBRANCH   1   9
BRANCH   3  18
ATOM     18  C   UNL     1       1.431   8.494  20.522  0.00  0.00    +0.000 A 
ATOM     19  C   UNL     1       1.125   8.497  21.892  0.00  0.00    +0.000 A 
ATOM     20  C   UNL     1       0.289   9.471  22.435  0.00  0.00    +0.000 A 
ATOM     21  C   UNL     1      -0.250  10.453  21.615  0.00  0.00    +0.000 A 
ATOM     22  C   UNL     1       0.041  10.455  20.251  0.00  0.00    +0.000 A 
ATOM     23  C   UNL     1       0.881   9.475  19.682  0.00  0.00    +0.000 A 
BRANCH  23  24
ATOM     24  C   UNL     1       1.029   9.470  18.184  0.00  0.00    +0.000 C 
ATOM     25  F   UNL     1       1.969  10.336  17.703  0.00  0.00    +0.000 F 
ATOM     26  F   UNL     1       1.374   8.244  17.697  0.00  0.00    +0.000 F 
ATOM     27  F   UNL     1      -0.127   9.807  17.546  0.00  0.00    +0.000 F 
ENDBRANCH  23  24
ENDBRANCH   3  18
TORSDOF 4
ENDMDL
MODEL 6
REMARK VINA RESULT:      -7.9      2.025      2.593
REMARK  Name = 
REMARK  5 active torsions:
REMARK  status: ('A' for Active; 'I' for Inactive)
REMARK    1  A    between atoms: C_1  and  C_2
REMARK    2  A    between atoms: C_5  and  C_6
REMARK    3  A    between atoms: C_10  and  C_11
REMARK    4  A    between atoms: N_13  and  C_14
REMARK    5  A    between atoms: C_19  and  C_20
REMARK                            x       y       z     vdW  Elec       q    Type
REMARK                         _______ _______ _______ _____ _____    ______ ____
ROOT
ATOM      1  C   UNL     1       2.090   6.675  19.328  0.00  0.00    +0.000 C 
ATOM      2  O   UNL     1       2.198   6.236  20.470  0.00  0.00    +0.000 OA
ATOM      3  N   UNL     1       2.261   5.903  18.184  0.00  0.00    +0.000 N 
ATOM      4  H   UNL     1       2.612   6.385  17.364  0.00  0.00    +0.000 HD
ENDROOT
BRANCH   1   9
ATOM      5  C   UNL     1       1.001  10.312  19.846  0.00  0.00    +0.000 A 
ATOM      6  C   UNL     1       1.463  10.785  18.611  0.00  0.00    +0.000 A 
ATOM      7  N   UNL     1       2.072  10.030  17.670  0.00  0.00    +0.000 NA
ATOM      8  C   UNL     1       2.238   8.720  17.962  0.00  0.00    +0.000 A 
ATOM      9  C   UNL     1       1.828   8.127  19.150  0.00  0.00    +0.000 A 
ATOM     10  C   UNL     1       1.212   8.945  20.102  0.00  0.00    +0.000 A 
BRANCH   5  15
ATOM     11  C   UNL     1      -1.575  13.789  23.722  0.00  0.00    +0.000 C 
ATOM     12  C   UNL     1      -0.923  12.902  22.706  0.00  0.00    +0.000 A 
ATOM     13  C   UNL     1      -0.069  13.429  21.731  0.00  0.00    +0.000 A 
ATOM     14  C   UNL     1       0.536  12.585  20.803  0.00  0.00    +0.000 A 
ATOM     15  C   UNL     1       0.336  11.197  20.818  0.00  0.00    +0.000 A 
ATOM     16  C   UNL     1      -0.529  10.686  21.797  0.00  0.00    +0.000 A 
ATOM     17  C   UNL     1      -1.157  11.527  22.729  0.00  0.00    +0.000 A 
ENDBRANCH   5  15
ENDBRANCH   1   9
BRANCH   3  18
ATOM     18  C   UNL     1       2.557   4.524  18.294  0.00  0.00    +0.000 A 
ATOM     19  C   UNL     1       1.488   3.616  18.349  0.00  0.00    +0.000 A 
ATOM     20  C   UNL     1       1.720   2.243  18.429  0.00  0.00    +0.000 A 
ATOM     21  C   UNL     1       3.023   1.764  18.455  0.00  0.00    +0.000 A 
ATOM     22  C   UNL     1       4.092   2.658  18.408  0.00  0.00    +0.000 A 
ATOM     23  C   UNL     1       3.878   4.050  18.332  0.00  0.00    +0.000 A 
BRANCH  23  24
ATOM     24  C   UNL     1       5.084   4.946  18.426  0.00  0.00    +0.000 C 
ATOM     25  F   UNL     1       5.097   5.977  17.530  0.00  0.00    +0.000 F 
ATOM     26  F   UNL     1       5.211   5.524  19.654  0.00  0.00    +0.000 F 
ATOM     27  F   UNL     1       6.250   4.273  18.214  0.00  0.00    +0.000 F 
ENDBRANCH  23  24
ENDBRANCH   3  18
TORSDOF 4
ENDMDL
MODEL 7
REMARK VINA RESULT:      -7.9      3.320      8.658
REMARK  Name = 
REMARK  5 active torsions:
REMARK  status: ('A' for Active; 'I' for Inactive)
REMARK    1  A    between atoms: C_1  and  C_2
REMARK    2  A    between atoms: C_5  and  C_6
REMARK    3  A    between atoms: C_10  and  C_11
REMARK    4  A    between atoms: N_13  and  C_14
REMARK    5  A    between atoms: C_19  and  C_20
REMARK                            x       y       z     vdW  Elec       q    Type
REMARK                         _______ _______ _______ _____ _____    ______ ____
ROOT
ATOM      1  C   UNL     1       1.108   9.425  19.370  0.00  0.00    +0.000 C 
ATOM      2  O   UNL     1       1.695  10.368  18.845  0.00  0.00    +0.000 OA
ATOM      3  N   UNL     1      -0.123   9.539  20.007  0.00  0.00    +0.000 N 
ATOM      4  H   UNL     1      -0.297   8.895  20.770  0.00  0.00    +0.000 HD
ENDROOT
BRANCH   1   9
ATOM      5  C   UNL     1       3.164   6.324  18.456  0.00  0.00    +0.000 A 
ATOM      6  C   UNL     1       2.922   5.627  19.646  0.00  0.00    +0.000 A 
ATOM      7  N   UNL     1       2.168   6.080  20.672  0.00  0.00    +0.000 NA
ATOM      8  C   UNL     1       1.613   7.304  20.517  0.00  0.00    +0.000 A 
ATOM      9  C   UNL     1       1.775   8.098  19.388  0.00  0.00    +0.000 A 
ATOM     10  C   UNL     1       2.572   7.596  18.354  0.00  0.00    +0.000 A 
BRANCH   5  15
ATOM     11  C   UNL     1       6.375   4.084  14.164  0.00  0.00    +0.000 C 
ATOM     12  C   UNL     1       5.565   4.669  15.280  0.00  0.00    +0.000 A 
ATOM     13  C   UNL     1       5.485   6.054  15.463  0.00  0.00    +0.000 A 
ATOM     14  C   UNL     1       4.718   6.577  16.501  0.00  0.00    +0.000 A 
ATOM     15  C   UNL     1       3.992   5.756  17.376  0.00  0.00    +0.000 A 
ATOM     16  C   UNL     1       4.090   4.370  17.184  0.00  0.00    +0.000 A 
ATOM     17  C   UNL     1       4.871   3.830  16.151  0.00  0.00    +0.000 A 
ENDBRANCH   5  15
ENDBRANCH   1   9
BRANCH   3  18
ATOM     18  C   UNL     1      -0.784  10.789  20.060  0.00  0.00    +0.000 A 
ATOM     19  C   UNL     1      -0.552  11.619  21.169  0.00  0.00    +0.000 A 
ATOM     20  C   UNL     1      -1.154  12.873  21.261  0.00  0.00    +0.000 A 
ATOM     21  C   UNL     1      -1.996  13.310  20.247  0.00  0.00    +0.000 A 
ATOM     22  C   UNL     1      -2.240  12.491  19.145  0.00  0.00    +0.000 A 
ATOM     23  C   UNL     1      -1.644  11.217  19.036  0.00  0.00    +0.000 A 
BRANCH  23  24
ATOM     24  C   UNL     1      -2.070  10.345  17.885  0.00  0.00    +0.000 C 
ATOM     25  F   UNL     1      -1.040   9.834  17.147  0.00  0.00    +0.000 F 
ATOM     26  F   UNL     1      -2.804   9.269  18.289  0.00  0.00    +0.000 F 
ATOM     27  F   UNL     1      -2.855  11.011  16.992  0.00  0.00    +0.000 F 
ENDBRANCH  23  24
ENDBRANCH   3  18
TORSDOF 4
ENDMDL
MODEL 8
REMARK VINA RESULT:      -7.9      3.314      4.299
REMARK  Name = 
REMARK  5 active torsions:
REMARK  status: ('A' for Active; 'I' for Inactive)
REMARK    1  A    between atoms: C_1  and  C_2
REMARK    2  A    between atoms: C_5  and  C_6
REMARK    3  A    between atoms: C_10  and  C_11
REMARK    4  A    between atoms: N_13  and  C_14
REMARK    5  A    between atoms: C_19  and  C_20
REMARK                            x       y       z     vdW  Elec       q    Type
REMARK                         _______ _______ _______ _____ _____    ______ ____
ROOT
ATOM      1  C   UNL     1       3.898   6.244  17.867  0.00  0.00    +0.000 C 
ATOM      2  O   UNL     1       4.124   7.245  17.193  0.00  0.00    +0.000 OA
ATOM      3  N   UNL     1       4.426   4.988  17.588  0.00  0.00    +0.000 N 
ATOM      4  H   UNL     1       3.862   4.191  17.861  0.00  0.00    +0.000 HD
ENDROOT
BRANCH   1   9
ATOM      5  C   UNL     1       1.482   7.568  20.530  0.00  0.00    +0.000 A 
ATOM      6  C   UNL     1       1.222   6.328  21.128  0.00  0.00    +0.000 A 
ATOM      7  N   UNL     1       1.759   5.151  20.738  0.00  0.00    +0.000 NA
ATOM      8  C   UNL     1       2.612   5.196  19.689  0.00  0.00    +0.000 A 
ATOM      9  C   UNL     1       2.952   6.358  19.008  0.00  0.00    +0.000 A 
ATOM     10  C   UNL     1       2.366   7.553  19.436  0.00  0.00    +0.000 A 
BRANCH   5  15
ATOM     11  C   UNL     1      -1.010  12.458  22.432  0.00  0.00    +0.000 C 
ATOM     12  C   UNL     1      -0.352  11.200  21.957  0.00  0.00    +0.000 A 
ATOM     13  C   UNL     1      -0.292  10.065  22.773  0.00  0.00    +0.000 A 
ATOM     14  C   UNL     1       0.315   8.901  22.308  0.00  0.00    +0.000 A 
ATOM     15  C   UNL     1       0.863   8.813  21.020  0.00  0.00    +0.000 A 
ATOM     16  C   UNL     1       0.802   9.962  20.217  0.00  0.00    +0.000 A 
ATOM     17  C   UNL     1       0.206  11.145  20.680  0.00  0.00    +0.000 A 
ENDBRANCH   5  15
ENDBRANCH   1   9
BRANCH   3  18
ATOM     18  C   UNL     1       5.296   4.810  16.487  0.00  0.00    +0.000 A 
ATOM     19  C   UNL     1       4.736   4.498  15.238  0.00  0.00    +0.000 A 
ATOM     20  C   UNL     1       5.542   4.339  14.112  0.00  0.00    +0.000 A 
ATOM     21  C   UNL     1       6.918   4.490  14.222  0.00  0.00    +0.000 A 
ATOM     22  C   UNL     1       7.486   4.793  15.460  0.00  0.00    +0.000 A 
ATOM     23  C   UNL     1       6.687   4.953  16.611  0.00  0.00    +0.000 A 
BRANCH  23  24
ATOM     24  C   UNL     1       7.393   5.140  17.928  0.00  0.00    +0.000 C 
ATOM     25  F   UNL     1       6.606   4.946  19.027  0.00  0.00    +0.000 F 
ATOM     26  F   UNL     1       8.451   4.293  18.078  0.00  0.00    +0.000 F 
ATOM     27  F   UNL     1       7.903   6.396  18.070  0.00  0.00    +0.000 F 
ENDBRANCH  23  24
ENDBRANCH   3  18
TORSDOF 4
ENDMDL
MODEL 9
REMARK VINA RESULT:      -7.8      3.337      8.473
REMARK  Name = 
REMARK  5 active torsions:
REMARK  status: ('A' for Active; 'I' for Inactive)
REMARK    1  A    between atoms: C_1  and  C_2
REMARK    2  A    between atoms: C_5  and  C_6
REMARK    3  A    between atoms: C_10  and  C_11
REMARK    4  A    between atoms: N_13  and  C_14
REMARK    5  A    between atoms: C_19  and  C_20
REMARK                            x       y       z     vdW  Elec       q    Type
REMARK                         _______ _______ _______ _____ _____    ______ ____
ROOT
ATOM      1  C   UNL     1       1.185   8.687  20.325  0.00  0.00    +0.000 C 
ATOM      2  O   UNL     1       0.598   8.832  21.394  0.00  0.00    +0.000 OA
ATOM      3  N   UNL     1       1.241   9.662  19.336  0.00  0.00    +0.000 N 
ATOM      4  H   UNL     1       1.311   9.331  18.380  0.00  0.00    +0.000 HD
ENDROOT
BRANCH   1   9
ATOM      5  C   UNL     1       3.189   5.831  18.740  0.00  0.00    +0.000 A 
ATOM      6  C   UNL     1       2.893   4.877  19.721  0.00  0.00    +0.000 A 
ATOM      7  N   UNL     1       2.120   5.095  20.808  0.00  0.00    +0.000 NA
ATOM      8  C   UNL     1       1.600   6.337  20.938  0.00  0.00    +0.000 A 
ATOM      9  C   UNL     1       1.818   7.373  20.038  0.00  0.00    +0.000 A 
ATOM     10  C   UNL     1       2.633   7.109  18.934  0.00  0.00    +0.000 A 
BRANCH   5  15
ATOM     11  C   UNL     1       6.574   4.590  14.186  0.00  0.00    +0.000 C 
ATOM     12  C   UNL     1       5.685   4.900  15.349  0.00  0.00    +0.000 A 
ATOM     13  C   UNL     1       5.165   3.879  16.152  0.00  0.00    +0.000 A 
ATOM     14  C   UNL     1       4.348   4.190  17.237  0.00  0.00    +0.000 A 
ATOM     15  C   UNL     1       4.035   5.514  17.576  0.00  0.00    +0.000 A 
ATOM     16  C   UNL     1       4.557   6.526  16.756  0.00  0.00    +0.000 A 
ATOM     17  C   UNL     1       5.370   6.225  15.652  0.00  0.00    +0.000 A 
ENDBRANCH   5  15
ENDBRANCH   1   9
BRANCH   3  18
ATOM     18  C   UNL     1       0.618  10.916  19.536  0.00  0.00    +0.000 A 
ATOM     19  C   UNL     1       1.176  11.795  20.478  0.00  0.00    +0.000 A 
ATOM     20  C   UNL     1       0.621  13.055  20.696  0.00  0.00    +0.000 A 
ATOM     21  C   UNL     1      -0.499  13.450  19.977  0.00  0.00    +0.000 A 
ATOM     22  C   UNL     1      -1.066  12.582  19.044  0.00  0.00    +0.000 A 
ATOM     23  C   UNL     1      -0.522  11.301  18.812  0.00  0.00    +0.000 A 
BRANCH  23  24
ATOM     24  C   UNL     1      -1.278  10.379  17.893  0.00  0.00    +0.000 C 
ATOM     25  F   UNL     1      -1.962  11.010  16.893  0.00  0.00    +0.000 F 
ATOM     26  F   UNL     1      -0.465   9.478  17.272  0.00  0.00    +0.000 F 
ATOM     27  F   UNL     1      -2.212   9.638  18.553  0.00  0.00    +0.000 F 
ENDBRANCH  23  24
ENDBRANCH   3  18
TORSDOF 4
ENDMDL
