MODEL 1
REMARK VINA RESULT:      -9.6      0.000      0.000
REMARK  Name = 
REMARK  6 active torsions:
REMARK  status: ('A' for Active; 'I' for Inactive)
REMARK    1  A    between atoms: C_1  and  C_2
REMARK    2  A    between atoms: C_6  and  N_7
REMARK    3  A    between atoms: C_8  and  C_10
REMARK    4  A    between atoms: C_10  and  N_11
REMARK    5  A    between atoms: C_15  and  C_16
REMARK    6  A    between atoms: C_15  and  C_17
REMARK                            x       y       z     vdW  Elec       q    Type
REMARK                         _______ _______ _______ _____ _____    ______ ____
ROOT
ATOM      1  N   UNL     1       3.409   3.292  19.494  0.00  0.00    +0.000 N 
ATOM      2  C   UNL     1       4.638   2.736  19.693  0.00  0.00    +0.000 C 
ATOM      3  O   UNL     1       4.880   1.804  20.449  0.00  0.00    +0.000 OA
ATOM      4  N   UNL     1       5.558   3.387  18.934  0.00  0.00    +0.000 N 
ATOM      5  C   UNL     1       4.991   4.472  18.169  0.00  0.00    +0.000 C 
ATOM      6  C   UNL     1       5.155   5.841  18.863  0.00  0.00    +0.000 C 
ATOM      7  C   UNL     1       3.509   4.118  18.384  0.00  0.00    +0.000 C 
ATOM      8  O   UNL     1       2.559   4.643  17.816  0.00  0.00    +0.000 OA
ATOM      9  H   UNL     1       6.548   3.172  18.996  0.00  0.00    +0.000 HD
ENDROOT
BRANCH   5  10
ATOM     10  C   UNL     1       5.585   4.488  16.785  0.00  0.00    +0.000 A 
ATOM     11  C   UNL     1       4.881   4.187  15.614  0.00  0.00    +0.000 A 
ATOM     12  C   UNL     1       5.523   4.270  14.378  0.00  0.00    +0.000 A 
ATOM     13  F   UNL     1       4.841   3.985  13.261  0.00  0.00    +0.000 F 
ATOM     14  C   UNL     1       6.863   4.645  14.273  0.00  0.00    +0.000 A 
ATOM     15  C   UNL     1       7.581   4.931  15.426  0.00  0.00    +0.000 A 
ATOM     16  C   UNL     1       6.945   4.841  16.657  0.00  0.00    +0.000 A 
ATOM     17  F   UNL     1       7.670   5.097  17.759  0.00  0.00    +0.000 F 
ENDBRANCH   5  10
BRANCH   1  18
ATOM     18  C   UNL     1       2.799   3.887  20.671  0.00  0.00    +0.000 C 
BRANCH  18  20
ATOM     19  N   UNL     1       2.451   6.319  20.536  0.00  0.00    +0.000 N 
ATOM     20  C   UNL     1       1.857   5.079  20.580  0.00  0.00    +0.000 C 
ATOM     21  O   UNL     1       0.656   4.846  20.430  0.00  0.00    +0.000 OA
ATOM     22  H   UNL     1       3.466   6.353  20.587  0.00  0.00    +0.000 HD
BRANCH  19  28
ATOM     23  C   UNL     1      -0.350   9.866  22.467  0.00  0.00    +0.000 C 
ATOM     24  C   UNL     1       0.413   9.316  21.298  0.00  0.00    +0.000 A 
ATOM     25  C   UNL     1       0.447  10.000  20.081  0.00  0.00    +0.000 A 
ATOM     26  C   UNL     1       1.154   9.477  19.004  0.00  0.00    +0.000 A 
ATOM     27  C   UNL     1       1.825   8.257  19.130  0.00  0.00    +0.000 A 
ATOM     28  C   UNL     1       1.804   7.557  20.336  0.00  0.00    +0.000 A 
ATOM     29  C   UNL     1       1.106   8.101  21.422  0.00  0.00    +0.000 A 
ENDBRANCH  19  28
ENDBRANCH  18  20
ENDBRANCH   1  18
TORSDOF 4
ENDMDL
MODEL 2
REMARK VINA RESULT:      -9.6      0.351      1.352
REMARK  Name = 
REMARK  6 active torsions:
REMARK  status: ('A' for Active; 'I' for Inactive)
REMARK    1  A    between atoms: C_1  and  C_2
REMARK    2  A    between atoms: C_6  and  N_7
REMARK    3  A    between atoms: C_8  and  C_10
REMARK    4  A    between atoms: C_10  and  N_11
REMARK    5  A    between atoms: C_15  and  C_16
REMARK    6  A    between atoms: C_15  and  C_17
REMARK                            x       y       z     vdW  Elec       q    Type
REMARK                         _______ _______ _______ _____ _____    ______ ____
ROOT
ATOM      1  N   UNL     1       3.401   3.140  19.550  0.00  0.00    +0.000 N 
ATOM      2  C   UNL     1       4.640   2.608  19.751  0.00  0.00    +0.000 C 
ATOM      3  O   UNL     1       4.894   1.667  20.492  0.00  0.00    +0.000 OA
ATOM      4  N   UNL     1       5.554   3.294  19.016  0.00  0.00    +0.000 N 
ATOM      5  C   UNL     1       4.970   4.381  18.266  0.00  0.00    +0.000 C 
ATOM      6  C   UNL     1       5.096   5.739  18.989  0.00  0.00    +0.000 C 
ATOM      7  C   UNL     1       3.494   3.990  18.457  0.00  0.00    +0.000 C 
ATOM      8  O   UNL     1       2.539   4.504  17.888  0.00  0.00    +0.000 OA
ATOM      9  H   UNL     1       6.547   3.099  19.085  0.00  0.00    +0.000 HD
ENDROOT
BRANCH   5  10
ATOM     10  C   UNL     1       5.579   4.437  16.890  0.00  0.00    +0.000 A 
ATOM     11  C   UNL     1       4.891   4.159  15.704  0.00  0.00    +0.000 A 
ATOM     12  C   UNL     1       5.546   4.279  14.477  0.00  0.00    +0.000 A 
ATOM     13  F   UNL     1       4.878   4.016  13.346  0.00  0.00    +0.000 F 
ATOM     14  C   UNL     1       6.883   4.670  14.397  0.00  0.00    +0.000 A 
ATOM     15  C   UNL     1       7.585   4.933  15.564  0.00  0.00    +0.000 A 
ATOM     16  C   UNL     1       6.937   4.806  16.785  0.00  0.00    +0.000 A 
ATOM     17  F   UNL     1       7.647   5.042  17.901  0.00  0.00    +0.000 F 
ENDBRANCH   5  10
BRANCH   1  18
ATOM     18  C   UNL     1       2.765   3.698  20.730  0.00  0.00    +0.000 C 
BRANCH  18  20
ATOM     19  N   UNL     1       2.368   6.126  20.699  0.00  0.00    +0.000 N 
ATOM     20  C   UNL     1       1.801   4.873  20.653  0.00  0.00    +0.000 C 
ATOM     21  O   UNL     1       0.614   4.624  20.433  0.00  0.00    +0.000 OA
ATOM     22  H   UNL     1       3.379   6.178  20.802  0.00  0.00    +0.000 HD
BRANCH  19  28
ATOM     23  C   UNL     1       1.624  10.046  17.830  0.00  0.00    +0.000 C 
ATOM     24  C   UNL     1       1.337   9.304  19.102  0.00  0.00    +0.000 A 
ATOM     25  C   UNL     1       0.474   9.839  20.062  0.00  0.00    +0.000 A 
ATOM     26  C   UNL     1       0.221   9.143  21.239  0.00  0.00    +0.000 A 
ATOM     27  C   UNL     1       0.839   7.911  21.474  0.00  0.00    +0.000 A 
ATOM     28  C   UNL     1       1.704   7.359  20.529  0.00  0.00    +0.000 A 
ATOM     29  C   UNL     1       1.938   8.057  19.338  0.00  0.00    +0.000 A 
ENDBRANCH  19  28
ENDBRANCH  18  20
ENDBRANCH   1  18
TORSDOF 4
ENDMDL
MODEL 3
REMARK VINA RESULT:      -9.5      3.473      7.314
REMARK  Name = 
REMARK  6 active torsions:
REMARK  status: ('A' for Active; 'I' for Inactive)
REMARK    1  A    between atoms: C_1  and  C_2
REMARK    2  A    between atoms: C_6  and  N_7
REMARK    3  A    between atoms: C_8  and  C_10
REMARK    4  A    between atoms: C_10  and  N_11
REMARK    5  A    between atoms: C_15  and  C_16
REMARK    6  A    between atoms: C_15  and  C_17
REMARK                            x       y       z     vdW  Elec       q    Type
REMARK                         _______ _______ _______ _____ _____    ______ ____
ROOT
ATOM      1  N   UNL     1       5.908   6.136  18.440  0.00  0.00    +0.000 N 
ATOM      2  C   UNL     1       6.270   5.152  19.311  0.00  0.00    +0.000 C 
ATOM      3  O   UNL     1       7.269   5.165  20.019  0.00  0.00    +0.000 OA
ATOM      4  N   UNL     1       5.360   4.144  19.260  0.00  0.00    +0.000 N 
ATOM      5  C   UNL     1       4.306   4.386  18.304  0.00  0.00    +0.000 C 
ATOM      6  C   UNL     1       4.568   3.706  16.943  0.00  0.00    +0.000 C 
ATOM      7  C   UNL     1       4.605   5.873  18.045  0.00  0.00    +0.000 C 
ATOM      8  O   UNL     1       3.900   6.642  17.403  0.00  0.00    +0.000 OA
ATOM      9  H   UNL     1       5.490   3.283  19.780  0.00  0.00    +0.000 HD
ENDROOT
BRANCH   5  10
ATOM     10  C   UNL     1       2.983   3.956  18.882  0.00  0.00    +0.000 A 
ATOM     11  C   UNL     1       2.182   2.934  18.362  0.00  0.00    +0.000 A 
ATOM     12  C   UNL     1       0.990   2.593  19.002  0.00  0.00    +0.000 A 
ATOM     13  F   UNL     1       0.231   1.610  18.500  0.00  0.00    +0.000 F 
ATOM     14  C   UNL     1       0.566   3.250  20.157  0.00  0.00    +0.000 A 
ATOM     15  C   UNL     1       1.340   4.277  20.678  0.00  0.00    +0.000 A 
ATOM     16  C   UNL     1       2.522   4.622  20.037  0.00  0.00    +0.000 A 
ATOM     17  F   UNL     1       3.239   5.637  20.547  0.00  0.00    +0.000 F 
ENDBRANCH   5  10
BRANCH   1  18
ATOM     18  C   UNL     1       6.852   6.396  17.368  0.00  0.00    +0.000 C 
BRANCH  18  20
ATOM     19  N   UNL     1       6.414   5.683  15.055  0.00  0.00    +0.000 N 
ATOM     20  C   UNL     1       7.077   5.412  16.229  0.00  0.00    +0.000 C 
ATOM     21  O   UNL     1       7.918   4.527  16.398  0.00  0.00    +0.000 OA
ATOM     22  H   UNL     1       5.811   6.501  15.036  0.00  0.00    +0.000 HD
BRANCH  19  28
ATOM     23  C   UNL     1       4.291   2.784  11.700  0.00  0.00    +0.000 C 
ATOM     24  C   UNL     1       5.492   3.553  12.168  0.00  0.00    +0.000 A 
ATOM     25  C   UNL     1       6.676   3.549  11.427  0.00  0.00    +0.000 A 
ATOM     26  C   UNL     1       7.783   4.261  11.875  0.00  0.00    +0.000 A 
ATOM     27  C   UNL     1       7.721   4.975  13.076  0.00  0.00    +0.000 A 
ATOM     28  C   UNL     1       6.549   4.992  13.831  0.00  0.00    +0.000 A 
ATOM     29  C   UNL     1       5.432   4.288  13.364  0.00  0.00    +0.000 A 
ENDBRANCH  19  28
ENDBRANCH  18  20
ENDBRANCH   1  18
TORSDOF 4
ENDMDL
MODEL 4
REMARK VINA RESULT:      -9.4      3.657      7.454
REMARK  Name = 
REMARK  6 active torsions:
REMARK  status: ('A' for Active; 'I' for Inactive)
REMARK    1  A    between atoms: C_1  and  C_2
REMARK    2  A    between atoms: C_6  and  N_7
REMARK    3  A    between atoms: C_8  and  C_10
REMARK    4  A    between atoms: C_10  and  N_11
REMARK    5  A    between atoms: C_15  and  C_16
REMARK    6  A    between atoms: C_15  and  C_17
REMARK                            x       y       z     vdW  Elec       q    Type
REMARK                         _______ _______ _______ _____ _____    ______ ____
ROOT
ATOM      1  N   UNL     1       5.801   5.978  18.503  0.00  0.00    +0.000 N 
ATOM      2  C   UNL     1       6.319   4.990  19.288  0.00  0.00    +0.000 C 
ATOM      3  O   UNL     1       7.380   5.052  19.896  0.00  0.00    +0.000 OA
ATOM      4  N   UNL     1       5.484   3.919  19.279  0.00  0.00    +0.000 N 
ATOM      5  C   UNL     1       4.324   4.117  18.442  0.00  0.00    +0.000 C 
ATOM      6  C   UNL     1       4.497   3.513  17.032  0.00  0.00    +0.000 C 
ATOM      7  C   UNL     1       4.488   5.631  18.224  0.00  0.00    +0.000 C 
ATOM      8  O   UNL     1       3.669   6.369  17.689  0.00  0.00    +0.000 OA
ATOM      9  H   UNL     1       5.727   3.051  19.744  0.00  0.00    +0.000 HD
ENDROOT
BRANCH   5  10
ATOM     10  C   UNL     1       3.100   3.565  19.125  0.00  0.00    +0.000 A 
ATOM     11  C   UNL     1       3.078   3.056  20.428  0.00  0.00    +0.000 A 
ATOM     12  C   UNL     1       1.877   2.604  20.976  0.00  0.00    +0.000 A 
ATOM     13  F   UNL     1       1.864   2.122  22.225  0.00  0.00    +0.000 F 
ATOM     14  C   UNL     1       0.684   2.643  20.255  0.00  0.00    +0.000 A 
ATOM     15  C   UNL     1       0.690   3.130  18.955  0.00  0.00    +0.000 A 
ATOM     16  C   UNL     1       1.886   3.572  18.407  0.00  0.00    +0.000 A 
ATOM     17  F   UNL     1       1.870   4.015  17.138  0.00  0.00    +0.000 F 
ENDBRANCH   5  10
BRANCH   1  18
ATOM     18  C   UNL     1       6.613   6.351  17.357  0.00  0.00    +0.000 C 
BRANCH  18  20
ATOM     19  N   UNL     1       6.173   5.530  15.080  0.00  0.00    +0.000 N 
ATOM     20  C   UNL     1       6.916   5.377  16.228  0.00  0.00    +0.000 C 
ATOM     21  O   UNL     1       7.873   4.613  16.374  0.00  0.00    +0.000 OA
ATOM     22  H   UNL     1       5.468   6.263  15.074  0.00  0.00    +0.000 HD
BRANCH  19  28
ATOM     23  C   UNL     1       4.077   2.862  11.524  0.00  0.00    +0.000 C 
ATOM     24  C   UNL     1       5.301   3.509  12.101  0.00  0.00    +0.000 A 
ATOM     25  C   UNL     1       6.538   3.394  11.463  0.00  0.00    +0.000 A 
ATOM     26  C   UNL     1       7.666   3.994  12.011  0.00  0.00    +0.000 A 
ATOM     27  C   UNL     1       7.571   4.706  13.211  0.00  0.00    +0.000 A 
ATOM     28  C   UNL     1       6.346   4.834  13.864  0.00  0.00    +0.000 A 
ATOM     29  C   UNL     1       5.211   4.243  13.296  0.00  0.00    +0.000 A 
ENDBRANCH  19  28
ENDBRANCH  18  20
ENDBRANCH   1  18
TORSDOF 4
ENDMDL
MODEL 5
REMARK VINA RESULT:      -9.2      5.018      7.012
REMARK  Name = 
REMARK  6 active torsions:
REMARK  status: ('A' for Active; 'I' for Inactive)
REMARK    1  A    between atoms: C_1  and  C_2
REMARK    2  A    between atoms: C_6  and  N_7
REMARK    3  A    between atoms: C_8  and  C_10
REMARK    4  A    between atoms: C_10  and  N_11
REMARK    5  A    between atoms: C_15  and  C_16
REMARK    6  A    between atoms: C_15  and  C_17
REMARK                            x       y       z     vdW  Elec       q    Type
REMARK                         _______ _______ _______ _____ _____    ______ ____
ROOT
ATOM      1  N   UNL     1       6.330   6.277  17.289  0.00  0.00    +0.000 N 
ATOM      2  C   UNL     1       5.804   5.813  16.120  0.00  0.00    +0.000 C 
ATOM      3  O   UNL     1       6.366   5.835  15.032  0.00  0.00    +0.000 OA
ATOM      4  N   UNL     1       4.551   5.336  16.343  0.00  0.00    +0.000 N 
ATOM      5  C   UNL     1       4.134   5.475  17.718  0.00  0.00    +0.000 C 
ATOM      6  C   UNL     1       3.284   6.740  17.959  0.00  0.00    +0.000 C 
ATOM      7  C   UNL     1       5.509   5.828  18.312  0.00  0.00    +0.000 C 
ATOM      8  O   UNL     1       5.772   5.910  19.506  0.00  0.00    +0.000 OA
ATOM      9  H   UNL     1       3.961   5.013  15.584  0.00  0.00    +0.000 HD
ENDROOT
BRANCH   5  10
ATOM     10  C   UNL     1       3.402   4.234  18.158  0.00  0.00    +0.000 A 
ATOM     11  C   UNL     1       2.212   4.232  18.894  0.00  0.00    +0.000 A 
ATOM     12  C   UNL     1       1.597   3.021  19.215  0.00  0.00    +0.000 A 
ATOM     13  F   UNL     1       0.456   3.028  19.916  0.00  0.00    +0.000 F 
ATOM     14  C   UNL     1       2.142   1.798  18.823  0.00  0.00    +0.000 A 
ATOM     15  C   UNL     1       3.330   1.781  18.107  0.00  0.00    +0.000 A 
ATOM     16  C   UNL     1       3.946   2.984  17.794  0.00  0.00    +0.000 A 
ATOM     17  F   UNL     1       5.109   2.939  17.122  0.00  0.00    +0.000 F 
ENDBRANCH   5  10
BRANCH   1  18
ATOM     18  C   UNL     1       6.646   7.694  17.309  0.00  0.00    +0.000 C 
BRANCH  18  20
ATOM     19  N   UNL     1       8.074   9.599  17.932  0.00  0.00    +0.000 N 
ATOM     20  C   UNL     1       7.875   8.241  18.021  0.00  0.00    +0.000 C 
ATOM     21  O   UNL     1       8.525   7.459  18.718  0.00  0.00    +0.000 OA
ATOM     22  H   UNL     1       7.404  10.134  17.385  0.00  0.00    +0.000 HD
BRANCH  19  28
ATOM     23  C   UNL     1      11.954  12.587  17.511  0.00  0.00    +0.000 C 
ATOM     24  C   UNL     1      10.991  11.835  18.383  0.00  0.00    +0.000 A 
ATOM     25  C   UNL     1      11.107  11.875  19.775  0.00  0.00    +0.000 A 
ATOM     26  C   UNL     1      10.212  11.169  20.571  0.00  0.00    +0.000 A 
ATOM     27  C   UNL     1       9.199  10.406  19.983  0.00  0.00    +0.000 A 
ATOM     28  C   UNL     1       9.065  10.352  18.596  0.00  0.00    +0.000 A 
ATOM     29  C   UNL     1       9.959  11.081  17.801  0.00  0.00    +0.000 A 
ENDBRANCH  19  28
ENDBRANCH  18  20
ENDBRANCH   1  18
TORSDOF 4
ENDMDL
MODEL 6
REMARK VINA RESULT:      -9.2      3.295      4.526
REMARK  Name = 
REMARK  6 active torsions:
REMARK  status: ('A' for Active; 'I' for Inactive)
REMARK    1  A    between atoms: C_1  and  C_2
REMARK    2  A    between atoms: C_6  and  N_7
REMARK    3  A    between atoms: C_8  and  C_10
REMARK    4  A    between atoms: C_10  and  N_11
REMARK    5  A    between atoms: C_15  and  C_16
REMARK    6  A    between atoms: C_15  and  C_17
REMARK                            x       y       z     vdW  Elec       q    Type
REMARK                         _______ _______ _______ _____ _____    ______ ____
ROOT
ATOM      1  N   UNL     1       6.978   6.055  17.459  0.00  0.00    +0.000 N 
ATOM      2  C   UNL     1       6.142   6.874  16.759  0.00  0.00    +0.000 C 
ATOM      3  O   UNL     1       5.893   8.039  17.040  0.00  0.00    +0.000 OA
ATOM      4  N   UNL     1       5.615   6.192  15.708  0.00  0.00    +0.000 N 
ATOM      5  C   UNL     1       6.060   4.820  15.647  0.00  0.00    +0.000 C 
ATOM      6  C   UNL     1       5.059   3.840  16.295  0.00  0.00    +0.000 C 
ATOM      7  C   UNL     1       7.197   4.930  16.677  0.00  0.00    +0.000 C 
ATOM      8  O   UNL     1       8.032   4.066  16.915  0.00  0.00    +0.000 OA
ATOM      9  H   UNL     1       4.910   6.605  15.106  0.00  0.00    +0.000 HD
ENDROOT
BRANCH   5  10
ATOM     10  C   UNL     1       6.349   4.440  14.219  0.00  0.00    +0.000 A 
ATOM     11  C   UNL     1       5.601   3.521  13.474  0.00  0.00    +0.000 A 
ATOM     12  C   UNL     1       5.937   3.271  12.142  0.00  0.00    +0.000 A 
ATOM     13  F   UNL     1       5.213   2.394  11.435  0.00  0.00    +0.000 F 
ATOM     14  C   UNL     1       7.010   3.915  11.525  0.00  0.00    +0.000 A 
ATOM     15  C   UNL     1       7.772   4.816  12.255  0.00  0.00    +0.000 A 
ATOM     16  C   UNL     1       7.444   5.059  13.581  0.00  0.00    +0.000 A 
ATOM     17  F   UNL     1       8.214   5.917  14.272  0.00  0.00    +0.000 F 
ENDBRANCH   5  10
BRANCH   1  18
ATOM     18  C   UNL     1       6.589   5.801  18.835  0.00  0.00    +0.000 C 
BRANCH  18  20
ATOM     19  N   UNL     1       4.192   5.296  19.062  0.00  0.00    +0.000 N 
ATOM     20  C   UNL     1       5.478   4.825  19.196  0.00  0.00    +0.000 C 
ATOM     21  O   UNL     1       5.800   3.665  19.459  0.00  0.00    +0.000 OA
ATOM     22  H   UNL     1       4.076   6.258  18.755  0.00  0.00    +0.000 HD
BRANCH  19  28
ATOM     23  C   UNL     1       1.380   2.609  22.068  0.00  0.00    +0.000 C 
ATOM     24  C   UNL     1       1.608   3.221  20.717  0.00  0.00    +0.000 A 
ATOM     25  C   UNL     1       0.690   3.031  19.682  0.00  0.00    +0.000 A 
ATOM     26  C   UNL     1       0.917   3.598  18.433  0.00  0.00    +0.000 A 
ATOM     27  C   UNL     1       2.071   4.352  18.203  0.00  0.00    +0.000 A 
ATOM     28  C   UNL     1       3.002   4.554  19.222  0.00  0.00    +0.000 A 
ATOM     29  C   UNL     1       2.756   3.995  20.482  0.00  0.00    +0.000 A 
ENDBRANCH  19  28
ENDBRANCH  18  20
ENDBRANCH   1  18
TORSDOF 4
ENDMDL
MODEL 7
REMARK VINA RESULT:      -9.2      5.043      7.042
REMARK  Name = 
REMARK  6 active torsions:
REMARK  status: ('A' for Active; 'I' for Inactive)
REMARK    1  A    between atoms: C_1  and  C_2
REMARK    2  A    between atoms: C_6  and  N_7
REMARK    3  A    between atoms: C_8  and  C_10
REMARK    4  A    between atoms: C_10  and  N_11
REMARK    5  A    between atoms: C_15  and  C_16
REMARK    6  A    between atoms: C_15  and  C_17
REMARK                            x       y       z     vdW  Elec       q    Type
REMARK                         _______ _______ _______ _____ _____    ______ ____
ROOT
ATOM      1  N   UNL     1       6.540   6.212  17.210  0.00  0.00    +0.000 N 
ATOM      2  C   UNL     1       6.170   5.705  15.999  0.00  0.00    +0.000 C 
ATOM      3  O   UNL     1       6.861   5.710  14.988  0.00  0.00    +0.000 OA
ATOM      4  N   UNL     1       4.908   5.209  16.081  0.00  0.00    +0.000 N 
ATOM      5  C   UNL     1       4.322   5.376  17.390  0.00  0.00    +0.000 C 
ATOM      6  C   UNL     1       3.427   6.630  17.487  0.00  0.00    +0.000 C 
ATOM      7  C   UNL     1       5.607   5.774  18.138  0.00  0.00    +0.000 C 
ATOM      8  O   UNL     1       5.720   5.894  19.352  0.00  0.00    +0.000 OA
ATOM      9  H   UNL     1       4.422   4.853  15.265  0.00  0.00    +0.000 HD
ENDROOT
BRANCH   5  10
ATOM     10  C   UNL     1       3.563   4.133  17.773  0.00  0.00    +0.000 A 
ATOM     11  C   UNL     1       4.147   2.882  17.997  0.00  0.00    +0.000 A 
ATOM     12  C   UNL     1       3.350   1.804  18.385  0.00  0.00    +0.000 A 
ATOM     13  F   UNL     1       3.918   0.610  18.601  0.00  0.00    +0.000 F 
ATOM     14  C   UNL     1       1.972   1.937  18.556  0.00  0.00    +0.000 A 
ATOM     15  C   UNL     1       1.374   3.167  18.323  0.00  0.00    +0.000 A 
ATOM     16  C   UNL     1       2.165   4.238  17.929  0.00  0.00    +0.000 A 
ATOM     17  F   UNL     1       1.557   5.411  17.684  0.00  0.00    +0.000 F 
ENDBRANCH   5  10
BRANCH   1  18
ATOM     18  C   UNL     1       6.827   7.636  17.226  0.00  0.00    +0.000 C 
BRANCH  18  20
ATOM     19  N   UNL     1       8.188   9.575  17.889  0.00  0.00    +0.000 N 
ATOM     20  C   UNL     1       7.996   8.218  18.008  0.00  0.00    +0.000 C 
ATOM     21  O   UNL     1       8.600   7.465  18.774  0.00  0.00    +0.000 OA
ATOM     22  H   UNL     1       7.555  10.085  17.278  0.00  0.00    +0.000 HD
BRANCH  19  28
ATOM     23  C   UNL     1      12.008  12.659  17.651  0.00  0.00    +0.000 C 
ATOM     24  C   UNL     1      11.018  11.891  18.477  0.00  0.00    +0.000 A 
ATOM     25  C   UNL     1      11.056  11.946  19.872  0.00  0.00    +0.000 A 
ATOM     26  C   UNL     1      10.136  11.224  20.626  0.00  0.00    +0.000 A 
ATOM     27  C   UNL     1       9.177  10.430  19.991  0.00  0.00    +0.000 A 
ATOM     28  C   UNL     1       9.122  10.359  18.599  0.00  0.00    +0.000 A 
ATOM     29  C   UNL     1      10.039  11.104  17.847  0.00  0.00    +0.000 A 
ENDBRANCH  19  28
ENDBRANCH  18  20
ENDBRANCH   1  18
TORSDOF 4
ENDMDL
MODEL 8
REMARK VINA RESULT:      -8.9      1.470      1.654
REMARK  Name = 
REMARK  6 active torsions:
REMARK  status: ('A' for Active; 'I' for Inactive)
REMARK    1  A    between atoms: C_1  and  C_2
REMARK    2  A    between atoms: C_6  and  N_7
REMARK    3  A    between atoms: C_8  and  C_10
REMARK    4  A    between atoms: C_10  and  N_11
REMARK    5  A    between atoms: C_15  and  C_16
REMARK    6  A    between atoms: C_15  and  C_17
REMARK                            x       y       z     vdW  Elec       q    Type
REMARK                         _______ _______ _______ _____ _____    ______ ____
ROOT
ATOM      1  N   UNL     1       3.347   4.587  18.006  0.00  0.00    +0.000 N 
ATOM      2  C   UNL     1       3.480   3.263  17.708  0.00  0.00    +0.000 C 
ATOM      3  O   UNL     1       2.688   2.384  18.021  0.00  0.00    +0.000 OA
ATOM      4  N   UNL     1       4.638   3.066  17.025  0.00  0.00    +0.000 N 
ATOM      5  C   UNL     1       5.392   4.282  16.834  0.00  0.00    +0.000 C 
ATOM      6  C   UNL     1       6.496   4.473  17.895  0.00  0.00    +0.000 C 
ATOM      7  C   UNL     1       4.291   5.271  17.255  0.00  0.00    +0.000 C 
ATOM      8  O   UNL     1       4.343   6.490  17.139  0.00  0.00    +0.000 OA
ATOM      9  H   UNL     1       4.958   2.136  16.777  0.00  0.00    +0.000 HD
ENDROOT
BRANCH   5  10
ATOM     10  C   UNL     1       5.964   4.315  15.441  0.00  0.00    +0.000 A 
ATOM     11  C   UNL     1       5.520   3.517  14.380  0.00  0.00    +0.000 A 
ATOM     12  C   UNL     1       6.099   3.658  13.118  0.00  0.00    +0.000 A 
ATOM     13  F   UNL     1       5.665   2.894  12.107  0.00  0.00    +0.000 F 
ATOM     14  C   UNL     1       7.120   4.578  12.879  0.00  0.00    +0.000 A 
ATOM     15  C   UNL     1       7.583   5.365  13.924  0.00  0.00    +0.000 A 
ATOM     16  C   UNL     1       7.014   5.220  15.181  0.00  0.00    +0.000 A 
ATOM     17  F   UNL     1       7.498   5.976  16.181  0.00  0.00    +0.000 F 
ENDBRANCH   5  10
BRANCH   1  18
ATOM     18  C   UNL     1       3.315   4.905  19.422  0.00  0.00    +0.000 C 
BRANCH  18  20
ATOM     19  N   UNL     1       2.489   7.201  19.736  0.00  0.00    +0.000 N 
ATOM     20  C   UNL     1       2.295   5.868  20.013  0.00  0.00    +0.000 C 
ATOM     21  O   UNL     1       1.317   5.382  20.584  0.00  0.00    +0.000 OA
ATOM     22  H   UNL     1       3.302   7.450  19.179  0.00  0.00    +0.000 HD
BRANCH  19  28
ATOM     23  C   UNL     1      -0.025   9.522  23.266  0.00  0.00    +0.000 C 
ATOM     24  C   UNL     1       0.378   9.416  21.824  0.00  0.00    +0.000 A 
ATOM     25  C   UNL     1      -0.110  10.319  20.877  0.00  0.00    +0.000 A 
ATOM     26  C   UNL     1       0.266  10.206  19.543  0.00  0.00    +0.000 A 
ATOM     27  C   UNL     1       1.125   9.180  19.141  0.00  0.00    +0.000 A 
ATOM     28  C   UNL     1       1.624   8.266  20.069  0.00  0.00    +0.000 A 
ATOM     29  C   UNL     1       1.256   8.399  21.414  0.00  0.00    +0.000 A 
ENDBRANCH  19  28
ENDBRANCH  18  20
ENDBRANCH   1  18
TORSDOF 4
ENDMDL
MODEL 9
REMARK VINA RESULT:      -8.8      2.788      4.576
REMARK  Name = 
REMARK  6 active torsions:
REMARK  status: ('A' for Active; 'I' for Inactive)
REMARK    1  A    between atoms: C_1  and  C_2
REMARK    2  A    between atoms: C_6  and  N_7
REMARK    3  A    between atoms: C_8  and  C_10
REMARK    4  A    between atoms: C_10  and  N_11
REMARK    5  A    between atoms: C_15  and  C_16
REMARK    6  A    between atoms: C_15  and  C_17
REMARK                            x       y       z     vdW  Elec       q    Type
REMARK                         _______ _______ _______ _____ _____    ______ ____
ROOT
ATOM      1  N   UNL     1       7.258   6.052  17.444  0.00  0.00    +0.000 N 
ATOM      2  C   UNL     1       6.435   6.914  16.781  0.00  0.00    +0.000 C 
ATOM      3  O   UNL     1       6.276   8.096  17.057  0.00  0.00    +0.000 OA
ATOM      4  N   UNL     1       5.805   6.254  15.774  0.00  0.00    +0.000 N 
ATOM      5  C   UNL     1       6.159   4.856  15.709  0.00  0.00    +0.000 C 
ATOM      6  C   UNL     1       5.139   3.949  16.429  0.00  0.00    +0.000 C 
ATOM      7  C   UNL     1       7.360   4.907  16.669  0.00  0.00    +0.000 C 
ATOM      8  O   UNL     1       8.152   3.994  16.871  0.00  0.00    +0.000 OA
ATOM      9  H   UNL     1       5.093   6.703  15.207  0.00  0.00    +0.000 HD
ENDROOT
BRANCH   5  10
ATOM     10  C   UNL     1       6.339   4.441  14.272  0.00  0.00    +0.000 A 
ATOM     11  C   UNL     1       5.495   3.559  13.587  0.00  0.00    +0.000 A 
ATOM     12  C   UNL     1       5.735   3.273  12.243  0.00  0.00    +0.000 A 
ATOM     13  F   UNL     1       4.920   2.432  11.594  0.00  0.00    +0.000 F 
ATOM     14  C   UNL     1       6.805   3.843  11.553  0.00  0.00    +0.000 A 
ATOM     15  C   UNL     1       7.662   4.707  12.221  0.00  0.00    +0.000 A 
ATOM     16  C   UNL     1       7.428   4.986  13.561  0.00  0.00    +0.000 A 
ATOM     17  F   UNL     1       8.287   5.805  14.190  0.00  0.00    +0.000 F 
ENDBRANCH   5  10
BRANCH   1  18
ATOM     18  C   UNL     1       6.936   5.840  18.844  0.00  0.00    +0.000 C 
BRANCH  18  20
ATOM     19  N   UNL     1       4.537   5.671  19.366  0.00  0.00    +0.000 N 
ATOM     20  C   UNL     1       5.740   5.008  19.284  0.00  0.00    +0.000 C 
ATOM     21  O   UNL     1       5.906   3.794  19.413  0.00  0.00    +0.000 OA
ATOM     22  H   UNL     1       4.536   6.665  19.149  0.00  0.00    +0.000 HD
BRANCH  19  28
ATOM     23  C   UNL     1       1.473   1.904  18.609  0.00  0.00    +0.000 C 
ATOM     24  C   UNL     1       1.756   3.228  19.256  0.00  0.00    +0.000 A 
ATOM     25  C   UNL     1       0.797   3.852  20.056  0.00  0.00    +0.000 A 
ATOM     26  C   UNL     1       1.071   5.082  20.645  0.00  0.00    +0.000 A 
ATOM     27  C   UNL     1       2.303   5.705  20.429  0.00  0.00    +0.000 A 
ATOM     28  C   UNL     1       3.275   5.100  19.634  0.00  0.00    +0.000 A 
ATOM     29  C   UNL     1       2.999   3.853  19.060  0.00  0.00    +0.000 A 
ENDBRANCH  19  28
ENDBRANCH  18  20
ENDBRANCH   1  18
TORSDOF 4
ENDMDL
