MODEL 1
REMARK VINA RESULT:      -9.5      0.000      0.000
REMARK  Name = 
REMARK  4 active torsions:
REMARK  status: ('A' for Active; 'I' for Inactive)
REMARK    1  A    between atoms: C_2  and  C_3
REMARK    2  A    between atoms: C_3  and  C_4
REMARK    3  A    between atoms: N_14  and  C_15
REMARK    4  A    between atoms: C_19  and  C_20
REMARK                            x       y       z     vdW  Elec       q    Type
REMARK                         _______ _______ _______ _____ _____    ______ ____
ROOT
ATOM      1  C   UNL     1       1.870   6.334  20.366  0.00  0.00    +0.000 A 
ATOM      2  C   UNL     1       1.209   5.139  20.639  0.00  0.00    +0.000 A 
ATOM      3  C   UNL     1       1.850   3.911  20.448  0.00  0.00    +0.000 A 
ATOM      4  C   UNL     1       3.159   3.867  19.965  0.00  0.00    +0.000 A 
ATOM      5  C   UNL     1       3.824   5.051  19.636  0.00  0.00    +0.000 A 
ATOM      6  C   UNL     1       3.158   6.274  19.825  0.00  0.00    +0.000 A 
ENDROOT
BRANCH   5   7
ATOM      7  C   UNL     1       5.164   4.990  19.048  0.00  0.00    +0.000 A 
ATOM      8  N   UNL     1       6.292   4.911  19.728  0.00  0.00    +0.000 NA
ATOM      9  N   UNL     1       7.328   4.747  18.846  0.00  0.00    +0.000 NA
ATOM     10  C   UNL     1       6.833   4.759  17.626  0.00  0.00    +0.000 A 
ATOM     11  N   UNL     1       5.481   4.987  17.705  0.00  0.00    +0.000 N 
ATOM     12  C   UNL     1       4.562   5.200  16.605  0.00  0.00    +0.000 C 
ATOM     13  C   UNL     1       5.141   5.981  15.439  0.00  0.00    +0.000 C 
ATOM     14  C   UNL     1       5.997   5.127  14.507  0.00  0.00    +0.000 C 
ATOM     15  C   UNL     1       6.840   4.049  15.191  0.00  0.00    +0.000 C 
ATOM     16  C   UNL     1       7.635   4.573  16.382  0.00  0.00    +0.000 C 
ENDBRANCH   5   7
BRANCH   1  19
ATOM     17  O   UNL     1       1.907   8.695  18.596  0.00  0.00    +0.000 OA
ATOM     18  C   UNL     1       1.408   8.701  19.719  0.00  0.00    +0.000 C 
ATOM     19  N   UNL     1       1.315   7.616  20.573  0.00  0.00    +0.000 N 
ATOM     20  H   UNL     1       0.693   7.718  21.364  0.00  0.00    +0.000 HD
BRANCH  18  21
ATOM     21  C   UNL     1       0.818   9.979  20.297  0.00  0.00    +0.000 C 
BRANCH  21  22
ATOM     22  C   UNL     1      -0.379  10.507  19.547  0.00  0.00    +0.000 A 
ATOM     23  C   UNL     1      -1.201  11.506  20.109  0.00  0.00    +0.000 A 
ATOM     24  C   UNL     1      -2.331  11.965  19.421  0.00  0.00    +0.000 A 
ATOM     25  C   UNL     1      -2.656  11.434  18.177  0.00  0.00    +0.000 A 
ATOM     26  C   UNL     1      -1.839  10.456  17.605  0.00  0.00    +0.000 A 
ATOM     27  C   UNL     1      -0.722   9.984  18.294  0.00  0.00    +0.000 A 
ATOM     28  O   UNL     1      -2.077   9.903  16.373  0.00  0.00    +0.000 OA
ATOM     29  C   UNL     1      -3.012  10.688  15.624  0.00  0.00    +0.000 C 
ATOM     30  C   UNL     1      -4.201  11.078  16.487  0.00  0.00    +0.000 C 
ATOM     31  O   UNL     1      -3.785  11.920  17.568  0.00  0.00    +0.000 OA
ENDBRANCH  21  22
ENDBRANCH  18  21
ENDBRANCH   1  19
TORSDOF 4
ENDMDL
MODEL 2
REMARK VINA RESULT:      -9.4      5.721      8.622
REMARK  Name = 
REMARK  4 active torsions:
REMARK  status: ('A' for Active; 'I' for Inactive)
REMARK    1  A    between atoms: C_2  and  C_3
REMARK    2  A    between atoms: C_3  and  C_4
REMARK    3  A    between atoms: N_14  and  C_15
REMARK    4  A    between atoms: C_19  and  C_20
REMARK                            x       y       z     vdW  Elec       q    Type
REMARK                         _______ _______ _______ _____ _____    ______ ____
ROOT
ATOM      1  C   UNL     1       7.426   6.619  17.982  0.00  0.00    +0.000 A 
ATOM      2  C   UNL     1       7.361   6.477  16.598  0.00  0.00    +0.000 A 
ATOM      3  C   UNL     1       6.523   5.519  16.019  0.00  0.00    +0.000 A 
ATOM      4  C   UNL     1       5.751   4.679  16.824  0.00  0.00    +0.000 A 
ATOM      5  C   UNL     1       5.839   4.767  18.215  0.00  0.00    +0.000 A 
ATOM      6  C   UNL     1       6.695   5.731  18.777  0.00  0.00    +0.000 A 
ENDROOT
BRANCH   5   7
ATOM      7  C   UNL     1       5.092   3.824  19.050  0.00  0.00    +0.000 A 
ATOM      8  N   UNL     1       5.628   2.863  19.780  0.00  0.00    +0.000 NA
ATOM      9  N   UNL     1       4.639   2.268  20.518  0.00  0.00    +0.000 NA
ATOM     10  C   UNL     1       3.496   2.845  20.213  0.00  0.00    +0.000 A 
ATOM     11  N   UNL     1       3.726   3.780  19.233  0.00  0.00    +0.000 N 
ATOM     12  C   UNL     1       2.738   4.561  18.516  0.00  0.00    +0.000 C 
ATOM     13  C   UNL     1       1.443   3.825  18.220  0.00  0.00    +0.000 C 
ATOM     14  C   UNL     1       0.488   3.782  19.411  0.00  0.00    +0.000 C 
ATOM     15  C   UNL     1       1.152   3.630  20.781  0.00  0.00    +0.000 C 
ATOM     16  C   UNL     1       2.180   2.506  20.829  0.00  0.00    +0.000 C 
ENDBRANCH   5   7
BRANCH   1  19
ATOM     17  O   UNL     1       7.608   9.524  17.497  0.00  0.00    +0.000 OA
ATOM     18  C   UNL     1       8.284   8.936  18.339  0.00  0.00    +0.000 C 
ATOM     19  N   UNL     1       8.207   7.589  18.647  0.00  0.00    +0.000 N 
ATOM     20  H   UNL     1       8.664   7.296  19.500  0.00  0.00    +0.000 HD
BRANCH  18  21
ATOM     21  C   UNL     1       9.322   9.687  19.159  0.00  0.00    +0.000 C 
BRANCH  21  22
ATOM     22  C   UNL     1       9.646  11.067  18.644  0.00  0.00    +0.000 A 
ATOM     23  C   UNL     1      10.715  11.271  17.747  0.00  0.00    +0.000 A 
ATOM     24  C   UNL     1      11.032  12.561  17.302  0.00  0.00    +0.000 A 
ATOM     25  C   UNL     1      10.295  13.654  17.746  0.00  0.00    +0.000 A 
ATOM     26  C   UNL     1       9.224  13.461  18.622  0.00  0.00    +0.000 A 
ATOM     27  C   UNL     1       8.916  12.179  19.080  0.00  0.00    +0.000 A 
ATOM     28  O   UNL     1       8.435  14.482  19.084  0.00  0.00    +0.000 OA
ATOM     29  C   UNL     1       8.608  15.667  18.297  0.00  0.00    +0.000 C 
ATOM     30  C   UNL     1      10.083  15.941  18.054  0.00  0.00    +0.000 C 
ATOM     31  O   UNL     1      10.671  14.889  17.281  0.00  0.00    +0.000 OA
ENDBRANCH  21  22
ENDBRANCH  18  21
ENDBRANCH   1  19
TORSDOF 4
ENDMDL
MODEL 3
REMARK VINA RESULT:      -9.3      3.575      5.265
REMARK  Name = 
REMARK  4 active torsions:
REMARK  status: ('A' for Active; 'I' for Inactive)
REMARK    1  A    between atoms: C_2  and  C_3
REMARK    2  A    between atoms: C_3  and  C_4
REMARK    3  A    between atoms: N_14  and  C_15
REMARK    4  A    between atoms: C_19  and  C_20
REMARK                            x       y       z     vdW  Elec       q    Type
REMARK                         _______ _______ _______ _____ _____    ______ ____
ROOT
ATOM      1  C   UNL     1       1.007   9.194  19.826  0.00  0.00    +0.000 A 
ATOM      2  C   UNL     1       1.298  10.005  18.732  0.00  0.00    +0.000 A 
ATOM      3  C   UNL     1       2.131   9.546  17.707  0.00  0.00    +0.000 A 
ATOM      4  C   UNL     1       2.694   8.271  17.774  0.00  0.00    +0.000 A 
ATOM      5  C   UNL     1       2.458   7.458  18.886  0.00  0.00    +0.000 A 
ATOM      6  C   UNL     1       1.627   7.943  19.911  0.00  0.00    +0.000 A 
ENDROOT
BRANCH   5   7
ATOM      7  C   UNL     1       3.124   6.158  18.988  0.00  0.00    +0.000 A 
ATOM      8  N   UNL     1       4.297   5.859  18.463  0.00  0.00    +0.000 NA
ATOM      9  N   UNL     1       4.652   4.600  18.868  0.00  0.00    +0.000 NA
ATOM     10  C   UNL     1       3.680   4.119  19.614  0.00  0.00    +0.000 A 
ATOM     11  N   UNL     1       2.662   5.040  19.652  0.00  0.00    +0.000 N 
ATOM     12  C   UNL     1       1.353   4.877  20.252  0.00  0.00    +0.000 C 
ATOM     13  C   UNL     1       0.769   3.481  20.127  0.00  0.00    +0.000 C 
ATOM     14  C   UNL     1       1.322   2.502  21.160  0.00  0.00    +0.000 C 
ATOM     15  C   UNL     1       2.802   2.677  21.507  0.00  0.00    +0.000 C 
ATOM     16  C   UNL     1       3.699   2.784  20.279  0.00  0.00    +0.000 C 
ENDBRANCH   5   7
BRANCH   1  19
ATOM     17  O   UNL     1       1.643   9.781  22.647  0.00  0.00    +0.000 OA
ATOM     18  C   UNL     1       0.499   9.776  22.200  0.00  0.00    +0.000 C 
ATOM     19  N   UNL     1       0.142   9.559  20.880  0.00  0.00    +0.000 N 
ATOM     20  H   UNL     1      -0.807   9.799  20.626  0.00  0.00    +0.000 HD
BRANCH  18  21
ATOM     21  C   UNL     1      -0.691  10.023  23.116  0.00  0.00    +0.000 C 
BRANCH  21  22
ATOM     22  C   UNL     1      -1.304  11.395  22.986  0.00  0.00    +0.000 A 
ATOM     23  C   UNL     1      -0.599  12.446  22.364  0.00  0.00    +0.000 A 
ATOM     24  C   UNL     1      -1.161  13.726  22.281  0.00  0.00    +0.000 A 
ATOM     25  C   UNL     1      -2.421  13.973  22.817  0.00  0.00    +0.000 A 
ATOM     26  C   UNL     1      -3.134  12.934  23.421  0.00  0.00    +0.000 A 
ATOM     27  C   UNL     1      -2.570  11.662  23.520  0.00  0.00    +0.000 A 
ATOM     28  O   UNL     1      -4.390  13.091  23.948  0.00  0.00    +0.000 OA
ATOM     29  C   UNL     1      -4.997  14.304  23.488  0.00  0.00    +0.000 C 
ATOM     30  C   UNL     1      -4.021  15.464  23.580  0.00  0.00    +0.000 C 
ATOM     31  O   UNL     1      -2.902  15.253  22.712  0.00  0.00    +0.000 OA
ENDBRANCH  21  22
ENDBRANCH  18  21
ENDBRANCH   1  19
TORSDOF 4
ENDMDL
MODEL 4
REMARK VINA RESULT:      -9.3      3.042      9.504
REMARK  Name = 
REMARK  4 active torsions:
REMARK  status: ('A' for Active; 'I' for Inactive)
REMARK    1  A    between atoms: C_2  and  C_3
REMARK    2  A    between atoms: C_3  and  C_4
REMARK    3  A    between atoms: N_14  and  C_15
REMARK    4  A    between atoms: C_19  and  C_20
REMARK                            x       y       z     vdW  Elec       q    Type
REMARK                         _______ _______ _______ _____ _____    ______ ____
ROOT
ATOM      1  C   UNL     1       2.143   7.899  19.056  0.00  0.00    +0.000 A 
ATOM      2  C   UNL     1       1.839   8.491  17.832  0.00  0.00    +0.000 A 
ATOM      3  C   UNL     1       0.976   9.589  17.767  0.00  0.00    +0.000 A 
ATOM      4  C   UNL     1       0.394  10.098  18.929  0.00  0.00    +0.000 A 
ATOM      5  C   UNL     1       0.643   9.489  20.161  0.00  0.00    +0.000 A 
ATOM      6  C   UNL     1       1.505   8.379  20.204  0.00  0.00    +0.000 A 
ENDROOT
BRANCH   5   7
ATOM      7  C   UNL     1      -0.042   9.975  21.362  0.00  0.00    +0.000 A 
ATOM      8  N   UNL     1       0.000   9.400  22.549  0.00  0.00    +0.000 NA
ATOM      9  N   UNL     1      -0.652  10.200  23.448  0.00  0.00    +0.000 NA
ATOM     10  C   UNL     1      -1.119  11.249  22.803  0.00  0.00    +0.000 A 
ATOM     11  N   UNL     1      -0.822  11.107  21.469  0.00  0.00    +0.000 N 
ATOM     12  C   UNL     1      -1.251  11.962  20.380  0.00  0.00    +0.000 C 
ATOM     13  C   UNL     1      -2.654  12.523  20.531  0.00  0.00    +0.000 C 
ATOM     14  C   UNL     1      -2.722  13.735  21.457  0.00  0.00    +0.000 C 
ATOM     15  C   UNL     1      -1.788  13.691  22.667  0.00  0.00    +0.000 C 
ATOM     16  C   UNL     1      -1.861  12.377  23.436  0.00  0.00    +0.000 C 
ENDBRANCH   5   7
BRANCH   1  19
ATOM     17  O   UNL     1       1.562   5.034  19.460  0.00  0.00    +0.000 OA
ATOM     18  C   UNL     1       2.700   5.498  19.452  0.00  0.00    +0.000 C 
ATOM     19  N   UNL     1       3.039   6.819  19.218  0.00  0.00    +0.000 N 
ATOM     20  H   UNL     1       4.014   7.007  19.030  0.00  0.00    +0.000 HD
BRANCH  18  21
ATOM     21  C   UNL     1       3.902   4.602  19.716  0.00  0.00    +0.000 C 
BRANCH  21  22
ATOM     22  C   UNL     1       4.930   4.598  18.612  0.00  0.00    +0.000 A 
ATOM     23  C   UNL     1       6.294   4.821  18.894  0.00  0.00    +0.000 A 
ATOM     24  C   UNL     1       7.237   4.852  17.858  0.00  0.00    +0.000 A 
ATOM     25  C   UNL     1       6.833   4.666  16.540  0.00  0.00    +0.000 A 
ATOM     26  C   UNL     1       5.487   4.428  16.253  0.00  0.00    +0.000 A 
ATOM     27  C   UNL     1       4.543   4.413  17.279  0.00  0.00    +0.000 A 
ATOM     28  O   UNL     1       5.015   4.210  14.984  0.00  0.00    +0.000 OA
ATOM     29  C   UNL     1       6.083   3.900  14.080  0.00  0.00    +0.000 C 
ATOM     30  C   UNL     1       7.244   4.863  14.268  0.00  0.00    +0.000 C 
ATOM     31  O   UNL     1       7.808   4.723  15.577  0.00  0.00    +0.000 OA
ENDBRANCH  21  22
ENDBRANCH  18  21
ENDBRANCH   1  19
TORSDOF 4
ENDMDL
MODEL 5
REMARK VINA RESULT:      -9.3      1.066      1.756
REMARK  Name = 
REMARK  4 active torsions:
REMARK  status: ('A' for Active; 'I' for Inactive)
REMARK    1  A    between atoms: C_2  and  C_3
REMARK    2  A    between atoms: C_3  and  C_4
REMARK    3  A    between atoms: N_14  and  C_15
REMARK    4  A    between atoms: C_19  and  C_20
REMARK                            x       y       z     vdW  Elec       q    Type
REMARK                         _______ _______ _______ _____ _____    ______ ____
ROOT
ATOM      1  C   UNL     1       2.006   7.140  19.980  0.00  0.00    +0.000 A 
ATOM      2  C   UNL     1       1.349   6.117  20.659  0.00  0.00    +0.000 A 
ATOM      3  C   UNL     1       1.966   4.876  20.848  0.00  0.00    +0.000 A 
ATOM      4  C   UNL     1       3.246   4.642  20.344  0.00  0.00    +0.000 A 
ATOM      5  C   UNL     1       3.905   5.635  19.615  0.00  0.00    +0.000 A 
ATOM      6  C   UNL     1       3.262   6.872  19.426  0.00  0.00    +0.000 A 
ENDROOT
BRANCH   5   7
ATOM      7  C   UNL     1       5.210   5.349  19.015  0.00  0.00    +0.000 A 
ATOM      8  N   UNL     1       6.334   5.172  19.684  0.00  0.00    +0.000 NA
ATOM      9  N   UNL     1       7.316   4.804  18.804  0.00  0.00    +0.000 NA
ATOM     10  C   UNL     1       6.798   4.787  17.594  0.00  0.00    +0.000 A 
ATOM     11  N   UNL     1       5.491   5.200  17.673  0.00  0.00    +0.000 N 
ATOM     12  C   UNL     1       4.581   5.448  16.572  0.00  0.00    +0.000 C 
ATOM     13  C   UNL     1       5.230   6.052  15.339  0.00  0.00    +0.000 C 
ATOM     14  C   UNL     1       5.942   5.021  14.467  0.00  0.00    +0.000 C 
ATOM     15  C   UNL     1       6.651   3.896  15.224  0.00  0.00    +0.000 C 
ATOM     16  C   UNL     1       7.537   4.399  16.357  0.00  0.00    +0.000 C 
ENDBRANCH   5   7
BRANCH   1  19
ATOM     17  O   UNL     1       1.777   8.709  17.491  0.00  0.00    +0.000 OA
ATOM     18  C   UNL     1       1.441   9.138  18.592  0.00  0.00    +0.000 C 
ATOM     19  N   UNL     1       1.477   8.434  19.784  0.00  0.00    +0.000 N 
ATOM     20  H   UNL     1       0.972   8.839  20.561  0.00  0.00    +0.000 HD
BRANCH  18  21
ATOM     21  C   UNL     1       0.929  10.562  18.745  0.00  0.00    +0.000 C 
BRANCH  21  22
ATOM     22  C   UNL     1      -0.555  10.717  18.529  0.00  0.00    +0.000 A 
ATOM     23  C   UNL     1      -1.218   9.995  17.515  0.00  0.00    +0.000 A 
ATOM     24  C   UNL     1      -2.590  10.173  17.297  0.00  0.00    +0.000 A 
ATOM     25  C   UNL     1      -3.311  11.071  18.079  0.00  0.00    +0.000 A 
ATOM     26  C   UNL     1      -2.667  11.778  19.097  0.00  0.00    +0.000 A 
ATOM     27  C   UNL     1      -1.297  11.616  19.305  0.00  0.00    +0.000 A 
ATOM     28  O   UNL     1      -3.313  12.659  19.925  0.00  0.00    +0.000 OA
ATOM     29  C   UNL     1      -4.733  12.486  19.860  0.00  0.00    +0.000 C 
ATOM     30  C   UNL     1      -5.196  12.375  18.417  0.00  0.00    +0.000 C 
ATOM     31  O   UNL     1      -4.647  11.205  17.800  0.00  0.00    +0.000 OA
ENDBRANCH  21  22
ENDBRANCH  18  21
ENDBRANCH   1  19
TORSDOF 4
ENDMDL
MODEL 6
REMARK VINA RESULT:      -9.2      1.126      1.750
REMARK  Name = 
REMARK  4 active torsions:
REMARK  status: ('A' for Active; 'I' for Inactive)
REMARK    1  A    between atoms: C_2  and  C_3
REMARK    2  A    between atoms: C_3  and  C_4
REMARK    3  A    between atoms: N_14  and  C_15
REMARK    4  A    between atoms: C_19  and  C_20
REMARK                            x       y       z     vdW  Elec       q    Type
REMARK                         _______ _______ _______ _____ _____    ______ ____
ROOT
ATOM      1  C   UNL     1       1.965   7.328  19.898  0.00  0.00    +0.000 A 
ATOM      2  C   UNL     1       1.215   6.341  20.532  0.00  0.00    +0.000 A 
ATOM      3  C   UNL     1       1.738   5.057  20.714  0.00  0.00    +0.000 A 
ATOM      4  C   UNL     1       3.015   4.743  20.247  0.00  0.00    +0.000 A 
ATOM      5  C   UNL     1       3.766   5.702  19.563  0.00  0.00    +0.000 A 
ATOM      6  C   UNL     1       3.218   6.984  19.381  0.00  0.00    +0.000 A 
ENDROOT
BRANCH   5   7
ATOM      7  C   UNL     1       5.068   5.338  19.000  0.00  0.00    +0.000 A 
ATOM      8  N   UNL     1       6.150   5.059  19.702  0.00  0.00    +0.000 NA
ATOM      9  N   UNL     1       7.135   4.644  18.846  0.00  0.00    +0.000 NA
ATOM     10  C   UNL     1       6.663   4.700  17.618  0.00  0.00    +0.000 A 
ATOM     11  N   UNL     1       5.387   5.206  17.664  0.00  0.00    +0.000 N 
ATOM     12  C   UNL     1       4.539   5.553  16.541  0.00  0.00    +0.000 C 
ATOM     13  C   UNL     1       5.276   6.142  15.351  0.00  0.00    +0.000 C 
ATOM     14  C   UNL     1       5.943   5.086  14.472  0.00  0.00    +0.000 C 
ATOM     15  C   UNL     1       6.539   3.891  15.218  0.00  0.00    +0.000 C 
ATOM     16  C   UNL     1       7.417   4.294  16.397  0.00  0.00    +0.000 C 
ENDBRANCH   5   7
BRANCH   1  19
ATOM     17  O   UNL     1       0.027   8.899  21.474  0.00  0.00    +0.000 OA
ATOM     18  C   UNL     1       0.581   9.328  20.465  0.00  0.00    +0.000 C 
ATOM     19  N   UNL     1       1.534   8.660  19.714  0.00  0.00    +0.000 N 
ATOM     20  H   UNL     1       2.051   9.216  19.047  0.00  0.00    +0.000 HD
BRANCH  18  21
ATOM     21  C   UNL     1       0.244  10.710  19.925  0.00  0.00    +0.000 C 
BRANCH  21  22
ATOM     22  C   UNL     1      -1.015  10.767  19.097  0.00  0.00    +0.000 A 
ATOM     23  C   UNL     1      -1.110  10.065  17.877  0.00  0.00    +0.000 A 
ATOM     24  C   UNL     1      -2.270  10.153  17.096  0.00  0.00    +0.000 A 
ATOM     25  C   UNL     1      -3.337  10.939  17.517  0.00  0.00    +0.000 A 
ATOM     26  C   UNL     1      -3.259  11.625  18.732  0.00  0.00    +0.000 A 
ATOM     27  C   UNL     1      -2.100  11.553  19.504  0.00  0.00    +0.000 A 
ATOM     28  O   UNL     1      -4.278  12.398  19.227  0.00  0.00    +0.000 OA
ATOM     29  C   UNL     1      -5.511  12.122  18.553  0.00  0.00    +0.000 C 
ATOM     30  C   UNL     1      -5.304  12.072  17.048  0.00  0.00    +0.000 C 
ATOM     31  O   UNL     1      -4.435  10.990  16.695  0.00  0.00    +0.000 OA
ENDBRANCH  21  22
ENDBRANCH  18  21
ENDBRANCH   1  19
TORSDOF 4
ENDMDL
MODEL 7
REMARK VINA RESULT:      -9.1      3.447      4.932
REMARK  Name = 
REMARK  4 active torsions:
REMARK  status: ('A' for Active; 'I' for Inactive)
REMARK    1  A    between atoms: C_2  and  C_3
REMARK    2  A    between atoms: C_3  and  C_4
REMARK    3  A    between atoms: N_14  and  C_15
REMARK    4  A    between atoms: C_19  and  C_20
REMARK                            x       y       z     vdW  Elec       q    Type
REMARK                         _______ _______ _______ _____ _____    ______ ____
ROOT
ATOM      1  C   UNL     1       1.314   9.263  20.138  0.00  0.00    +0.000 A 
ATOM      2  C   UNL     1       1.237   9.937  18.922  0.00  0.00    +0.000 A 
ATOM      3  C   UNL     1       1.693   9.336  17.745  0.00  0.00    +0.000 A 
ATOM      4  C   UNL     1       2.248   8.056  17.776  0.00  0.00    +0.000 A 
ATOM      5  C   UNL     1       2.383   7.381  18.992  0.00  0.00    +0.000 A 
ATOM      6  C   UNL     1       1.928   8.007  20.166  0.00  0.00    +0.000 A 
ENDROOT
BRANCH   5   7
ATOM      7  C   UNL     1       3.046   6.076  19.026  0.00  0.00    +0.000 A 
ATOM      8  N   UNL     1       4.172   5.776  18.406  0.00  0.00    +0.000 NA
ATOM      9  N   UNL     1       4.550   4.510  18.767  0.00  0.00    +0.000 NA
ATOM     10  C   UNL     1       3.637   4.026  19.584  0.00  0.00    +0.000 A 
ATOM     11  N   UNL     1       2.632   4.953  19.713  0.00  0.00    +0.000 N 
ATOM     12  C   UNL     1       1.374   4.791  20.414  0.00  0.00    +0.000 C 
ATOM     13  C   UNL     1       0.772   3.400  20.321  0.00  0.00    +0.000 C 
ATOM     14  C   UNL     1       1.399   2.406  21.295  0.00  0.00    +0.000 C 
ATOM     15  C   UNL     1       2.903   2.569  21.525  0.00  0.00    +0.000 C 
ATOM     16  C   UNL     1       3.700   2.684  20.230  0.00  0.00    +0.000 C 
ENDBRANCH   5   7
BRANCH   1  19
ATOM     17  O   UNL     1      -0.867   8.264  21.856  0.00  0.00    +0.000 OA
ATOM     18  C   UNL     1      -0.229   9.285  22.101  0.00  0.00    +0.000 C 
ATOM     19  N   UNL     1       0.835   9.776  21.364  0.00  0.00    +0.000 N 
ATOM     20  H   UNL     1       1.393  10.495  21.803  0.00  0.00    +0.000 HD
BRANCH  18  21
ATOM     21  C   UNL     1      -0.577  10.145  23.307  0.00  0.00    +0.000 C 
BRANCH  21  22
ATOM     22  C   UNL     1      -1.253  11.450  22.969  0.00  0.00    +0.000 A 
ATOM     23  C   UNL     1      -2.566  11.719  23.407  0.00  0.00    +0.000 A 
ATOM     24  C   UNL     1      -3.200  12.918  23.057  0.00  0.00    +0.000 A 
ATOM     25  C   UNL     1      -2.538  13.854  22.269  0.00  0.00    +0.000 A 
ATOM     26  C   UNL     1      -1.231  13.604  21.844  0.00  0.00    +0.000 A 
ATOM     27  C   UNL     1      -0.603  12.404  22.176  0.00  0.00    +0.000 A 
ATOM     28  O   UNL     1      -0.503  14.487  21.088  0.00  0.00    +0.000 OA
ATOM     29  C   UNL     1      -1.092  15.792  21.106  0.00  0.00    +0.000 C 
ATOM     30  C   UNL     1      -2.593  15.709  20.882  0.00  0.00    +0.000 C 
ATOM     31  O   UNL     1      -3.224  14.999  21.953  0.00  0.00    +0.000 OA
ENDBRANCH  21  22
ENDBRANCH  18  21
ENDBRANCH   1  19
TORSDOF 4
ENDMDL
MODEL 8
REMARK VINA RESULT:      -9.0      5.857      8.654
REMARK  Name = 
REMARK  4 active torsions:
REMARK  status: ('A' for Active; 'I' for Inactive)
REMARK    1  A    between atoms: C_2  and  C_3
REMARK    2  A    between atoms: C_3  and  C_4
REMARK    3  A    between atoms: N_14  and  C_15
REMARK    4  A    between atoms: C_19  and  C_20
REMARK                            x       y       z     vdW  Elec       q    Type
REMARK                         _______ _______ _______ _____ _____    ______ ____
ROOT
ATOM      1  C   UNL     1       7.330   6.715  17.931  0.00  0.00    +0.000 A 
ATOM      2  C   UNL     1       7.085   6.718  16.560  0.00  0.00    +0.000 A 
ATOM      3  C   UNL     1       6.137   5.853  16.005  0.00  0.00    +0.000 A 
ATOM      4  C   UNL     1       5.433   4.964  16.817  0.00  0.00    +0.000 A 
ATOM      5  C   UNL     1       5.698   4.907  18.188  0.00  0.00    +0.000 A 
ATOM      6  C   UNL     1       6.663   5.777  18.725  0.00  0.00    +0.000 A 
ENDROOT
BRANCH   5   7
ATOM      7  C   UNL     1       5.017   3.910  19.018  0.00  0.00    +0.000 A 
ATOM      8  N   UNL     1       5.615   2.954  19.704  0.00  0.00    +0.000 NA
ATOM      9  N   UNL     1       4.675   2.297  20.453  0.00  0.00    +0.000 NA
ATOM     10  C   UNL     1       3.499   2.833  20.199  0.00  0.00    +0.000 A 
ATOM     11  N   UNL     1       3.660   3.803  19.240  0.00  0.00    +0.000 N 
ATOM     12  C   UNL     1       2.619   4.560  18.574  0.00  0.00    +0.000 C 
ATOM     13  C   UNL     1       1.347   3.778  18.296  0.00  0.00    +0.000 C 
ATOM     14  C   UNL     1       0.432   3.662  19.513  0.00  0.00    +0.000 C 
ATOM     15  C   UNL     1       1.143   3.501  20.858  0.00  0.00    +0.000 C 
ATOM     16  C   UNL     1       2.219   2.421  20.844  0.00  0.00    +0.000 C 
ENDBRANCH   5   7
BRANCH   1  19
ATOM     17  O   UNL     1       7.620   9.640  17.673  0.00  0.00    +0.000 OA
ATOM     18  C   UNL     1       8.351   8.949  18.379  0.00  0.00    +0.000 C 
ATOM     19  N   UNL     1       8.234   7.585  18.580  0.00  0.00    +0.000 N 
ATOM     20  H   UNL     1       8.765   7.196  19.347  0.00  0.00    +0.000 HD
BRANCH  18  21
ATOM     21  C   UNL     1       9.515   9.575  19.134  0.00  0.00    +0.000 C 
BRANCH  21  22
ATOM     22  C   UNL     1       9.597  11.076  19.020  0.00  0.00    +0.000 A 
ATOM     23  C   UNL     1       8.955  11.909  19.961  0.00  0.00    +0.000 A 
ATOM     24  C   UNL     1       9.006  13.302  19.827  0.00  0.00    +0.000 A 
ATOM     25  C   UNL     1       9.688  13.877  18.759  0.00  0.00    +0.000 A 
ATOM     26  C   UNL     1      10.341  13.062  17.832  0.00  0.00    +0.000 A 
ATOM     27  C   UNL     1      10.278  11.673  17.953  0.00  0.00    +0.000 A 
ATOM     28  O   UNL     1      11.055  13.552  16.769  0.00  0.00    +0.000 OA
ATOM     29  C   UNL     1      11.344  14.945  16.939  0.00  0.00    +0.000 C 
ATOM     30  C   UNL     1      10.107  15.701  17.393  0.00  0.00    +0.000 C 
ATOM     31  O   UNL     1       9.683  15.247  18.684  0.00  0.00    +0.000 OA
ENDBRANCH  21  22
ENDBRANCH  18  21
ENDBRANCH   1  19
TORSDOF 4
ENDMDL
MODEL 9
REMARK VINA RESULT:      -9.0      3.561     10.278
REMARK  Name = 
REMARK  4 active torsions:
REMARK  status: ('A' for Active; 'I' for Inactive)
REMARK    1  A    between atoms: C_2  and  C_3
REMARK    2  A    between atoms: C_3  and  C_4
REMARK    3  A    between atoms: N_14  and  C_15
REMARK    4  A    between atoms: C_19  and  C_20
REMARK                            x       y       z     vdW  Elec       q    Type
REMARK                         _______ _______ _______ _____ _____    ______ ____
ROOT
ATOM      1  C   UNL     1       0.442  10.580  18.522  0.00  0.00    +0.000 A 
ATOM      2  C   UNL     1       0.783  11.446  19.557  0.00  0.00    +0.000 A 
ATOM      3  C   UNL     1      -0.174  12.297  20.119  0.00  0.00    +0.000 A 
ATOM      4  C   UNL     1      -1.484  12.300  19.638  0.00  0.00    +0.000 A 
ATOM      5  C   UNL     1      -1.837  11.477  18.565  0.00  0.00    +0.000 A 
ATOM      6  C   UNL     1      -0.858  10.637  18.007  0.00  0.00    +0.000 A 
ENDROOT
BRANCH   5   7
ATOM      7  C   UNL     1      -3.191  11.551  18.010  0.00  0.00    +0.000 A 
ATOM      8  N   UNL     1      -3.516  11.290  16.758  0.00  0.00    +0.000 NA
ATOM      9  N   UNL     1      -4.880  11.343  16.638  0.00  0.00    +0.000 NA
ATOM     10  C   UNL     1      -5.383  11.667  17.810  0.00  0.00    +0.000 A 
ATOM     11  N   UNL     1      -4.347  11.884  18.686  0.00  0.00    +0.000 N 
ATOM     12  C   UNL     1      -4.435  12.377  20.045  0.00  0.00    +0.000 C 
ATOM     13  C   UNL     1      -5.515  13.421  20.270  0.00  0.00    +0.000 C 
ATOM     14  C   UNL     1      -6.909  12.820  20.438  0.00  0.00    +0.000 C 
ATOM     15  C   UNL     1      -7.206  11.595  19.572  0.00  0.00    +0.000 C 
ATOM     16  C   UNL     1      -6.840  11.792  18.105  0.00  0.00    +0.000 C 
ENDBRANCH   5   7
BRANCH   1  19
ATOM     17  O   UNL     1       1.784   8.244  19.725  0.00  0.00    +0.000 OA
ATOM     18  C   UNL     1       1.967   8.604  18.564  0.00  0.00    +0.000 C 
ATOM     19  N   UNL     1       1.331   9.657  17.930  0.00  0.00    +0.000 N 
ATOM     20  H   UNL     1       1.423   9.697  16.924  0.00  0.00    +0.000 HD
BRANCH  18  21
ATOM     21  C   UNL     1       2.969   7.879  17.678  0.00  0.00    +0.000 C 
BRANCH  21  22
ATOM     22  C   UNL     1       3.244   6.453  18.084  0.00  0.00    +0.000 A 
ATOM     23  C   UNL     1       4.468   6.096  18.686  0.00  0.00    +0.000 A 
ATOM     24  C   UNL     1       4.730   4.762  19.027  0.00  0.00    +0.000 A 
ATOM     25  C   UNL     1       3.782   3.777  18.769  0.00  0.00    +0.000 A 
ATOM     26  C   UNL     1       2.560   4.123  18.189  0.00  0.00    +0.000 A 
ATOM     27  C   UNL     1       2.303   5.447  17.833  0.00  0.00    +0.000 A 
ATOM     28  O   UNL     1       1.566   3.215  17.928  0.00  0.00    +0.000 OA
ATOM     29  C   UNL     1       1.786   1.989  18.637  0.00  0.00    +0.000 C 
ATOM     30  C   UNL     1       3.232   1.542  18.504  0.00  0.00    +0.000 C 
ATOM     31  O   UNL     1       4.112   2.491  19.116  0.00  0.00    +0.000 OA
ENDBRANCH  21  22
ENDBRANCH  18  21
ENDBRANCH   1  19
TORSDOF 4
ENDMDL
