MODEL 1
REMARK VINA RESULT:      -9.0      0.000      0.000
REMARK  Name = 
REMARK  7 active torsions:
REMARK  status: ('A' for Active; 'I' for Inactive)
REMARK    1  A    between atoms: C_1  and  C_2
REMARK    2  A    between atoms: C_2  and  N_3
REMARK    3  A    between atoms: C_2  and  C_21
REMARK    4  A    between atoms: N_3  and  C_4
REMARK    5  A    between atoms: C_4  and  C_5
REMARK    6  A    between atoms: N_10  and  C_11
REMARK    7  A    between atoms: C_25  and  C_26
REMARK                            x       y       z     vdW  Elec       q    Type
REMARK                         _______ _______ _______ _____ _____    ______ ____
ROOT
ATOM      1  C   UNL     1       7.977   6.909  18.519  0.00  0.00    +0.000 C 
ATOM      2  O   UNL     1       7.638   5.999  19.276  0.00  0.00    +0.000 OA
ATOM      3  N   UNL     1       8.611   8.016  19.043  0.00  0.00    +0.000 N 
ATOM      4  C   UNL     1       8.577   9.284  18.508  0.00  0.00    +0.000 C 
ATOM      5  O   UNL     1       7.869   9.586  17.555  0.00  0.00    +0.000 OA
ATOM      6  N   UNL     1       9.510  10.125  19.092  0.00  0.00    +0.000 N 
ATOM      7  H   UNL     1       8.772   7.945  20.038  0.00  0.00    +0.000 HD
ATOM      8  H   UNL     1      10.285   9.667  19.553  0.00  0.00    +0.000 HD
ENDROOT
BRANCH   6   9
ATOM      9  C   UNL     1       9.759  11.417  18.573  0.00  0.00    +0.000 A 
ATOM     10  C   UNL     1      10.774  11.657  17.639  0.00  0.00    +0.000 A 
ATOM     11  C   UNL     1      11.044  12.954  17.203  0.00  0.00    +0.000 A 
ATOM     12  C   UNL     1      10.303  14.017  17.704  0.00  0.00    +0.000 A 
ATOM     13  C   UNL     1       9.271  13.779  18.618  0.00  0.00    +0.000 A 
ATOM     14  C   UNL     1       8.989  12.481  19.045  0.00  0.00    +0.000 A 
ATOM     15  O   UNL     1       8.510  14.782  19.161  0.00  0.00    +0.000 OA
ATOM     16  C   UNL     1       8.612  15.983  18.390  0.00  0.00    +0.000 C 
ATOM     17  C   UNL     1      10.060  16.296  18.050  0.00  0.00    +0.000 C 
ATOM     18  O   UNL     1      10.638  15.263  17.246  0.00  0.00    +0.000 OA
ENDBRANCH   6   9
BRANCH   1  19
ATOM     19  C   UNL     1       7.675   6.879  17.006  0.00  0.00    +0.000 C 
BRANCH  19  20
ATOM     20  N   UNL     1       6.216   6.849  16.792  0.00  0.00    +0.000 NA
ATOM     21  H   UNL     1       5.771   7.090  17.679  0.00  0.00    +0.000 HD
BRANCH  20  23
ATOM     22  C   UNL     1       5.413   5.334  14.973  0.00  0.00    +0.000 C 
ATOM     23  C   UNL     1       5.696   5.511  16.466  0.00  0.00    +0.000 C 
BRANCH  23  24
ATOM     24  C   UNL     1       4.429   5.288  17.285  0.00  0.00    +0.000 A 
ATOM     25  C   UNL     1       3.621   6.367  17.675  0.00  0.00    +0.000 A 
ATOM     26  C   UNL     1       2.442   6.149  18.390  0.00  0.00    +0.000 A 
ATOM     27  C   UNL     1       2.042   4.850  18.713  0.00  0.00    +0.000 A 
ATOM     28  C   UNL     1       2.823   3.753  18.324  0.00  0.00    +0.000 A 
ATOM     29  C   UNL     1       4.015   3.987  17.621  0.00  0.00    +0.000 A 
BRANCH  28  30
ATOM     30  C   UNL     1       2.400   2.337  18.620  0.00  0.00    +0.000 C 
ATOM     31  F   UNL     1       1.127   2.051  18.224  0.00  0.00    +0.000 F 
ATOM     32  F   UNL     1       3.194   1.418  18.001  0.00  0.00    +0.000 F 
ATOM     33  F   UNL     1       2.452   2.040  19.949  0.00  0.00    +0.000 F 
ENDBRANCH  28  30
ENDBRANCH  23  24
ENDBRANCH  20  23
ENDBRANCH  19  20
ENDBRANCH   1  19
TORSDOF 6
ENDMDL
MODEL 2
REMARK VINA RESULT:      -8.8      1.403      1.924
REMARK  Name = 
REMARK  7 active torsions:
REMARK  status: ('A' for Active; 'I' for Inactive)
REMARK    1  A    between atoms: C_1  and  C_2
REMARK    2  A    between atoms: C_2  and  N_3
REMARK    3  A    between atoms: C_2  and  C_21
REMARK    4  A    between atoms: N_3  and  C_4
REMARK    5  A    between atoms: C_4  and  C_5
REMARK    6  A    between atoms: N_10  and  C_11
REMARK    7  A    between atoms: C_25  and  C_26
REMARK                            x       y       z     vdW  Elec       q    Type
REMARK                         _______ _______ _______ _____ _____    ______ ____
ROOT
ATOM      1  C   UNL     1       7.794   6.440  18.589  0.00  0.00    +0.000 C 
ATOM      2  O   UNL     1       7.542   5.493  19.336  0.00  0.00    +0.000 OA
ATOM      3  N   UNL     1       8.515   7.508  19.082  0.00  0.00    +0.000 N 
ATOM      4  C   UNL     1       8.434   8.805  18.625  0.00  0.00    +0.000 C 
ATOM      5  O   UNL     1       7.611   9.168  17.794  0.00  0.00    +0.000 OA
ATOM      6  N   UNL     1       9.454   9.600  19.122  0.00  0.00    +0.000 N 
ATOM      7  H   UNL     1       8.807   7.379  20.040  0.00  0.00    +0.000 HD
ATOM      8  H   UNL     1      10.275   9.107  19.448  0.00  0.00    +0.000 HD
ENDROOT
BRANCH   6   9
ATOM      9  C   UNL     1       9.656  10.916  18.645  0.00  0.00    +0.000 A 
ATOM     10  C   UNL     1      10.655  11.220  17.712  0.00  0.00    +0.000 A 
ATOM     11  C   UNL     1      10.879  12.539  17.317  0.00  0.00    +0.000 A 
ATOM     12  C   UNL     1      10.108  13.559  17.859  0.00  0.00    +0.000 A 
ATOM     13  C   UNL     1       9.092  13.258  18.771  0.00  0.00    +0.000 A 
ATOM     14  C   UNL     1       8.856  11.938  19.157  0.00  0.00    +0.000 A 
ATOM     15  O   UNL     1       8.302  14.216  19.353  0.00  0.00    +0.000 OA
ATOM     16  C   UNL     1       8.359  15.445  18.621  0.00  0.00    +0.000 C 
ATOM     17  C   UNL     1       9.793  15.816  18.282  0.00  0.00    +0.000 C 
ATOM     18  O   UNL     1      10.398  14.830  17.440  0.00  0.00    +0.000 OA
ENDBRANCH   6   9
BRANCH   1  19
ATOM     19  C   UNL     1       7.291   6.498  17.132  0.00  0.00    +0.000 C 
BRANCH  19  20
ATOM     20  N   UNL     1       6.435   5.330  16.856  0.00  0.00    +0.000 NA
ATOM     21  H   UNL     1       6.741   4.929  15.968  0.00  0.00    +0.000 HD
BRANCH  20  23
ATOM     22  C   UNL     1       4.695   7.116  17.038  0.00  0.00    +0.000 C 
ATOM     23  C   UNL     1       5.020   5.675  16.640  0.00  0.00    +0.000 C 
BRANCH  23  24
ATOM     24  C   UNL     1       4.170   4.691  17.436  0.00  0.00    +0.000 A 
ATOM     25  C   UNL     1       4.201   3.317  17.155  0.00  0.00    +0.000 A 
ATOM     26  C   UNL     1       3.450   2.419  17.917  0.00  0.00    +0.000 A 
ATOM     27  C   UNL     1       2.669   2.878  18.981  0.00  0.00    +0.000 A 
ATOM     28  C   UNL     1       2.631   4.243  19.292  0.00  0.00    +0.000 A 
ATOM     29  C   UNL     1       3.377   5.137  18.509  0.00  0.00    +0.000 A 
BRANCH  28  30
ATOM     30  C   UNL     1       1.832   4.766  20.459  0.00  0.00    +0.000 C 
ATOM     31  F   UNL     1       1.748   6.127  20.500  0.00  0.00    +0.000 F 
ATOM     32  F   UNL     1       0.546   4.317  20.451  0.00  0.00    +0.000 F 
ATOM     33  F   UNL     1       2.352   4.389  21.661  0.00  0.00    +0.000 F 
ENDBRANCH  28  30
ENDBRANCH  23  24
ENDBRANCH  20  23
ENDBRANCH  19  20
ENDBRANCH   1  19
TORSDOF 6
ENDMDL
MODEL 3
REMARK VINA RESULT:      -8.6      6.597      7.792
REMARK  Name = 
REMARK  7 active torsions:
REMARK  status: ('A' for Active; 'I' for Inactive)
REMARK    1  A    between atoms: C_1  and  C_2
REMARK    2  A    between atoms: C_2  and  N_3
REMARK    3  A    between atoms: C_2  and  C_21
REMARK    4  A    between atoms: N_3  and  C_4
REMARK    5  A    between atoms: C_4  and  C_5
REMARK    6  A    between atoms: N_10  and  C_11
REMARK    7  A    between atoms: C_25  and  C_26
REMARK                            x       y       z     vdW  Elec       q    Type
REMARK                         _______ _______ _______ _____ _____    ______ ____
ROOT
ATOM      1  C   UNL     1       2.679   3.031  21.234  0.00  0.00    +0.000 C 
ATOM      2  O   UNL     1       2.811   2.218  22.149  0.00  0.00    +0.000 OA
ATOM      3  N   UNL     1       2.508   4.365  21.541  0.00  0.00    +0.000 N 
ATOM      4  C   UNL     1       1.841   5.284  20.763  0.00  0.00    +0.000 C 
ATOM      5  O   UNL     1       1.220   4.977  19.753  0.00  0.00    +0.000 OA
ATOM      6  N   UNL     1       2.055   6.584  21.189  0.00  0.00    +0.000 N 
ATOM      7  H   UNL     1       2.547   4.549  22.534  0.00  0.00    +0.000 HD
ATOM      8  H   UNL     1       2.884   6.732  21.750  0.00  0.00    +0.000 HD
ENDROOT
BRANCH   6   9
ATOM      9  C   UNL     1       1.603   7.689  20.429  0.00  0.00    +0.000 A 
ATOM     10  C   UNL     1       2.084   7.946  19.139  0.00  0.00    +0.000 A 
ATOM     11  C   UNL     1       1.676   9.084  18.444  0.00  0.00    +0.000 A 
ATOM     12  C   UNL     1       0.790   9.973  19.040  0.00  0.00    +0.000 A 
ATOM     13  C   UNL     1       0.287   9.707  20.317  0.00  0.00    +0.000 A 
ATOM     14  C   UNL     1       0.683   8.562  21.009  0.00  0.00    +0.000 A 
ATOM     15  O   UNL     1      -0.580  10.547  20.967  0.00  0.00    +0.000 OA
ATOM     16  C   UNL     1      -1.205  11.453  20.052  0.00  0.00    +0.000 C 
ATOM     17  C   UNL     1      -0.185  12.074  19.112  0.00  0.00    +0.000 C 
ATOM     18  O   UNL     1       0.451  11.078  18.306  0.00  0.00    +0.000 OA
ENDBRANCH   6   9
BRANCH   1  19
ATOM     19  C   UNL     1       2.651   2.605  19.751  0.00  0.00    +0.000 C 
BRANCH  19  20
ATOM     20  N   UNL     1       3.864   3.097  19.071  0.00  0.00    +0.000 NA
ATOM     21  H   UNL     1       4.365   3.692  19.732  0.00  0.00    +0.000 HD
BRANCH  20  23
ATOM     22  C   UNL     1       2.508   3.402  16.994  0.00  0.00    +0.000 C 
ATOM     23  C   UNL     1       3.582   3.973  17.923  0.00  0.00    +0.000 C 
BRANCH  23  24
ATOM     24  C   UNL     1       4.888   4.191  17.167  0.00  0.00    +0.000 A 
ATOM     25  C   UNL     1       6.078   4.481  17.850  0.00  0.00    +0.000 A 
ATOM     26  C   UNL     1       7.277   4.639  17.152  0.00  0.00    +0.000 A 
ATOM     27  C   UNL     1       7.310   4.495  15.763  0.00  0.00    +0.000 A 
ATOM     28  C   UNL     1       6.138   4.192  15.057  0.00  0.00    +0.000 A 
ATOM     29  C   UNL     1       4.937   4.052  15.768  0.00  0.00    +0.000 A 
BRANCH  28  30
ATOM     30  C   UNL     1       6.145   3.988  13.563  0.00  0.00    +0.000 C 
ATOM     31  F   UNL     1       6.390   2.700  13.188  0.00  0.00    +0.000 F 
ATOM     32  F   UNL     1       4.956   4.320  12.988  0.00  0.00    +0.000 F 
ATOM     33  F   UNL     1       7.089   4.744  12.935  0.00  0.00    +0.000 F 
ENDBRANCH  28  30
ENDBRANCH  23  24
ENDBRANCH  20  23
ENDBRANCH  19  20
ENDBRANCH   1  19
TORSDOF 6
ENDMDL
MODEL 4
REMARK VINA RESULT:      -8.6      0.824      1.167
REMARK  Name = 
REMARK  7 active torsions:
REMARK  status: ('A' for Active; 'I' for Inactive)
REMARK    1  A    between atoms: C_1  and  C_2
REMARK    2  A    between atoms: C_2  and  N_3
REMARK    3  A    between atoms: C_2  and  C_21
REMARK    4  A    between atoms: N_3  and  C_4
REMARK    5  A    between atoms: C_4  and  C_5
REMARK    6  A    between atoms: N_10  and  C_11
REMARK    7  A    between atoms: C_25  and  C_26
REMARK                            x       y       z     vdW  Elec       q    Type
REMARK                         _______ _______ _______ _____ _____    ______ ____
ROOT
ATOM      1  C   UNL     1       7.862   6.693  18.555  0.00  0.00    +0.000 C 
ATOM      2  O   UNL     1       7.576   5.775  19.326  0.00  0.00    +0.000 OA
ATOM      3  N   UNL     1       8.571   7.775  19.036  0.00  0.00    +0.000 N 
ATOM      4  C   UNL     1       8.515   9.054  18.529  0.00  0.00    +0.000 C 
ATOM      5  O   UNL     1       7.727   9.391  17.654  0.00  0.00    +0.000 OA
ATOM      6  N   UNL     1       9.520   9.862  19.034  0.00  0.00    +0.000 N 
ATOM      7  H   UNL     1       8.825   7.680  20.008  0.00  0.00    +0.000 HD
ATOM      8  H   UNL     1      10.325   9.377  19.410  0.00  0.00    +0.000 HD
ENDROOT
BRANCH   6   9
ATOM      9  C   UNL     1       9.748  11.158  18.517  0.00  0.00    +0.000 A 
ATOM     10  C   UNL     1      10.830  11.439  17.673  0.00  0.00    +0.000 A 
ATOM     11  C   UNL     1      11.072  12.742  17.240  0.00  0.00    +0.000 A 
ATOM     12  C   UNL     1      10.236  13.771  17.655  0.00  0.00    +0.000 A 
ATOM     13  C   UNL     1       9.140  13.492  18.478  0.00  0.00    +0.000 A 
ATOM     14  C   UNL     1       8.887  12.187  18.901  0.00  0.00    +0.000 A 
ATOM     15  O   UNL     1       8.283  14.460  18.933  0.00  0.00    +0.000 OA
ATOM     16  C   UNL     1       8.393  15.655  18.153  0.00  0.00    +0.000 C 
ATOM     17  C   UNL     1       9.847  16.039  17.938  0.00  0.00    +0.000 C 
ATOM     18  O   UNL     1      10.547  15.027  17.207  0.00  0.00    +0.000 OA
ENDBRANCH   6   9
BRANCH   1  19
ATOM     19  C   UNL     1       7.415   6.699  17.078  0.00  0.00    +0.000 C 
BRANCH  19  20
ATOM     20  N   UNL     1       6.876   5.376  16.718  0.00  0.00    +0.000 NA
ATOM     21  H   UNL     1       7.400   5.041  15.907  0.00  0.00    +0.000 HD
BRANCH  20  23
ATOM     22  C   UNL     1       5.129   6.707  15.525  0.00  0.00    +0.000 C 
ATOM     23  C   UNL     1       5.476   5.413  16.265  0.00  0.00    +0.000 C 
BRANCH  23  24
ATOM     24  C   UNL     1       4.582   5.234  17.487  0.00  0.00    +0.000 A 
ATOM     25  C   UNL     1       3.821   6.301  17.988  0.00  0.00    +0.000 A 
ATOM     26  C   UNL     1       2.973   6.117  19.083  0.00  0.00    +0.000 A 
ATOM     27  C   UNL     1       2.862   4.861  19.684  0.00  0.00    +0.000 A 
ATOM     28  C   UNL     1       3.600   3.776  19.196  0.00  0.00    +0.000 A 
ATOM     29  C   UNL     1       4.460   3.978  18.106  0.00  0.00    +0.000 A 
BRANCH  28  30
ATOM     30  C   UNL     1       3.472   2.398  19.796  0.00  0.00    +0.000 C 
ATOM     31  F   UNL     1       4.446   2.102  20.703  0.00  0.00    +0.000 F 
ATOM     32  F   UNL     1       2.291   2.226  20.453  0.00  0.00    +0.000 F 
ATOM     33  F   UNL     1       3.524   1.411  18.858  0.00  0.00    +0.000 F 
ENDBRANCH  28  30
ENDBRANCH  23  24
ENDBRANCH  20  23
ENDBRANCH  19  20
ENDBRANCH   1  19
TORSDOF 6
ENDMDL
MODEL 5
REMARK VINA RESULT:      -8.6      6.410      7.680
REMARK  Name = 
REMARK  7 active torsions:
REMARK  status: ('A' for Active; 'I' for Inactive)
REMARK    1  A    between atoms: C_1  and  C_2
REMARK    2  A    between atoms: C_2  and  N_3
REMARK    3  A    between atoms: C_2  and  C_21
REMARK    4  A    between atoms: N_3  and  C_4
REMARK    5  A    between atoms: C_4  and  C_5
REMARK    6  A    between atoms: N_10  and  C_11
REMARK    7  A    between atoms: C_25  and  C_26
REMARK                            x       y       z     vdW  Elec       q    Type
REMARK                         _______ _______ _______ _____ _____    ______ ____
ROOT
ATOM      1  C   UNL     1       4.063   3.536  18.789  0.00  0.00    +0.000 C 
ATOM      2  O   UNL     1       4.472   2.546  19.396  0.00  0.00    +0.000 OA
ATOM      3  N   UNL     1       3.703   4.660  19.504  0.00  0.00    +0.000 N 
ATOM      4  C   UNL     1       2.775   5.596  19.107  0.00  0.00    +0.000 C 
ATOM      5  O   UNL     1       2.076   5.461  18.110  0.00  0.00    +0.000 OA
ATOM      6  N   UNL     1       2.814   6.737  19.890  0.00  0.00    +0.000 N 
ATOM      7  H   UNL     1       3.855   4.561  20.497  0.00  0.00    +0.000 HD
ATOM      8  H   UNL     1       3.677   6.895  20.394  0.00  0.00    +0.000 HD
ENDROOT
BRANCH   6   9
ATOM      9  C   UNL     1       2.065   7.887  19.548  0.00  0.00    +0.000 A 
ATOM     10  C   UNL     1       2.096   8.435  18.259  0.00  0.00    +0.000 A 
ATOM     11  C   UNL     1       1.406   9.612  17.972  0.00  0.00    +0.000 A 
ATOM     12  C   UNL     1       0.687  10.250  18.975  0.00  0.00    +0.000 A 
ATOM     13  C   UNL     1       0.631   9.694  20.257  0.00  0.00    +0.000 A 
ATOM     14  C   UNL     1       1.309   8.508  20.543  0.00  0.00    +0.000 A 
ATOM     15  O   UNL     1      -0.049  10.276  21.295  0.00  0.00    +0.000 OA
ATOM     16  C   UNL     1      -0.995  11.237  20.817  0.00  0.00    +0.000 C 
ATOM     17  C   UNL     1      -0.372  12.150  19.775  0.00  0.00    +0.000 C 
ATOM     18  O   UNL     1       0.052  11.412  18.625  0.00  0.00    +0.000 OA
ENDBRANCH   6   9
BRANCH   1  19
ATOM     19  C   UNL     1       3.892   3.551  17.255  0.00  0.00    +0.000 C 
BRANCH  19  20
ATOM     20  N   UNL     1       4.802   4.549  16.665  0.00  0.00    +0.000 NA
ATOM     21  H   UNL     1       4.408   4.829  15.765  0.00  0.00    +0.000 HD
BRANCH  20  23
ATOM     22  C   UNL     1       7.253   4.675  17.138  0.00  0.00    +0.000 C 
ATOM     23  C   UNL     1       6.133   4.011  16.336  0.00  0.00    +0.000 C 
BRANCH  23  24
ATOM     24  C   UNL     1       6.358   4.197  14.839  0.00  0.00    +0.000 A 
ATOM     25  C   UNL     1       7.500   4.854  14.357  0.00  0.00    +0.000 A 
ATOM     26  C   UNL     1       7.717   4.983  12.983  0.00  0.00    +0.000 A 
ATOM     27  C   UNL     1       6.807   4.445  12.071  0.00  0.00    +0.000 A 
ATOM     28  C   UNL     1       5.665   3.772  12.526  0.00  0.00    +0.000 A 
ATOM     29  C   UNL     1       5.450   3.663  13.908  0.00  0.00    +0.000 A 
BRANCH  28  30
ATOM     30  C   UNL     1       4.684   3.143  11.569  0.00  0.00    +0.000 C 
ATOM     31  F   UNL     1       4.451   3.891  10.453  0.00  0.00    +0.000 F 
ATOM     32  F   UNL     1       5.105   1.928  11.117  0.00  0.00    +0.000 F 
ATOM     33  F   UNL     1       3.463   2.929  12.135  0.00  0.00    +0.000 F 
ENDBRANCH  28  30
ENDBRANCH  23  24
ENDBRANCH  20  23
ENDBRANCH  19  20
ENDBRANCH   1  19
TORSDOF 6
ENDMDL
MODEL 6
REMARK VINA RESULT:      -8.5      6.622      7.776
REMARK  Name = 
REMARK  7 active torsions:
REMARK  status: ('A' for Active; 'I' for Inactive)
REMARK    1  A    between atoms: C_1  and  C_2
REMARK    2  A    between atoms: C_2  and  N_3
REMARK    3  A    between atoms: C_2  and  C_21
REMARK    4  A    between atoms: N_3  and  C_4
REMARK    5  A    between atoms: C_4  and  C_5
REMARK    6  A    between atoms: N_10  and  C_11
REMARK    7  A    between atoms: C_25  and  C_26
REMARK                            x       y       z     vdW  Elec       q    Type
REMARK                         _______ _______ _______ _____ _____    ______ ____
ROOT
ATOM      1  C   UNL     1       2.351   3.244  21.192  0.00  0.00    +0.000 C 
ATOM      2  O   UNL     1       2.772   2.492  22.071  0.00  0.00    +0.000 OA
ATOM      3  N   UNL     1       2.517   4.605  21.338  0.00  0.00    +0.000 N 
ATOM      4  C   UNL     1       1.700   5.572  20.796  0.00  0.00    +0.000 C 
ATOM      5  O   UNL     1       0.655   5.311  20.212  0.00  0.00    +0.000 OA
ATOM      6  N   UNL     1       2.255   6.838  20.885  0.00  0.00    +0.000 N 
ATOM      7  H   UNL     1       3.025   4.854  22.175  0.00  0.00    +0.000 HD
ATOM      8  H   UNL     1       3.260   6.869  21.003  0.00  0.00    +0.000 HD
ENDROOT
BRANCH   6   9
ATOM      9  C   UNL     1       1.661   7.946  20.238  0.00  0.00    +0.000 A 
ATOM     10  C   UNL     1       1.937   8.258  18.901  0.00  0.00    +0.000 A 
ATOM     11  C   UNL     1       1.395   9.401  18.313  0.00  0.00    +0.000 A 
ATOM     12  C   UNL     1       0.579  10.239  19.063  0.00  0.00    +0.000 A 
ATOM     13  C   UNL     1       0.280   9.918  20.391  0.00  0.00    +0.000 A 
ATOM     14  C   UNL     1       0.810   8.768  20.977  0.00  0.00    +0.000 A 
ATOM     15  O   UNL     1      -0.508  10.706  21.190  0.00  0.00    +0.000 OA
ATOM     16  C   UNL     1      -1.290  11.615  20.409  0.00  0.00    +0.000 C 
ATOM     17  C   UNL     1      -0.441  12.300  19.350  0.00  0.00    +0.000 C 
ATOM     18  O   UNL     1       0.100  11.352  18.425  0.00  0.00    +0.000 OA
ENDBRANCH   6   9
BRANCH   1  19
ATOM     19  C   UNL     1       1.600   2.721  19.949  0.00  0.00    +0.000 C 
BRANCH  19  20
ATOM     20  N   UNL     1       2.101   3.403  18.743  0.00  0.00    +0.000 NA
ATOM     21  H   UNL     1       1.310   3.529  18.110  0.00  0.00    +0.000 HD
BRANCH  20  23
ATOM     22  C   UNL     1       3.447   1.298  18.675  0.00  0.00    +0.000 C 
ATOM     23  C   UNL     1       3.069   2.604  17.973  0.00  0.00    +0.000 C 
BRANCH  23  24
ATOM     24  C   UNL     1       4.304   3.465  17.733  0.00  0.00    +0.000 A 
ATOM     25  C   UNL     1       5.050   3.973  18.807  0.00  0.00    +0.000 A 
ATOM     26  C   UNL     1       6.203   4.726  18.577  0.00  0.00    +0.000 A 
ATOM     27  C   UNL     1       6.638   4.971  17.272  0.00  0.00    +0.000 A 
ATOM     28  C   UNL     1       5.919   4.464  16.181  0.00  0.00    +0.000 A 
ATOM     29  C   UNL     1       4.753   3.722  16.425  0.00  0.00    +0.000 A 
BRANCH  28  30
ATOM     30  C   UNL     1       6.383   4.673  14.762  0.00  0.00    +0.000 C 
ATOM     31  F   UNL     1       6.448   3.523  14.032  0.00  0.00    +0.000 F 
ATOM     32  F   UNL     1       5.561   5.507  14.064  0.00  0.00    +0.000 F 
ATOM     33  F   UNL     1       7.625   5.229  14.693  0.00  0.00    +0.000 F 
ENDBRANCH  28  30
ENDBRANCH  23  24
ENDBRANCH  20  23
ENDBRANCH  19  20
ENDBRANCH   1  19
TORSDOF 6
ENDMDL
MODEL 7
REMARK VINA RESULT:      -8.4      1.218      1.553
REMARK  Name = 
REMARK  7 active torsions:
REMARK  status: ('A' for Active; 'I' for Inactive)
REMARK    1  A    between atoms: C_1  and  C_2
REMARK    2  A    between atoms: C_2  and  N_3
REMARK    3  A    between atoms: C_2  and  C_21
REMARK    4  A    between atoms: N_3  and  C_4
REMARK    5  A    between atoms: C_4  and  C_5
REMARK    6  A    between atoms: N_10  and  C_11
REMARK    7  A    between atoms: C_25  and  C_26
REMARK                            x       y       z     vdW  Elec       q    Type
REMARK                         _______ _______ _______ _____ _____    ______ ____
ROOT
ATOM      1  C   UNL     1       7.766   6.301  18.340  0.00  0.00    +0.000 C 
ATOM      2  O   UNL     1       7.429   5.323  19.008  0.00  0.00    +0.000 OA
ATOM      3  N   UNL     1       8.418   7.345  18.963  0.00  0.00    +0.000 N 
ATOM      4  C   UNL     1       8.389   8.660  18.557  0.00  0.00    +0.000 C 
ATOM      5  O   UNL     1       7.671   9.062  17.650  0.00  0.00    +0.000 OA
ATOM      6  N   UNL     1       9.338   9.431  19.207  0.00  0.00    +0.000 N 
ATOM      7  H   UNL     1       8.593   7.173  19.943  0.00  0.00    +0.000 HD
ATOM      8  H   UNL     1      10.116   8.922  19.609  0.00  0.00    +0.000 HD
ENDROOT
BRANCH   6   9
ATOM      9  C   UNL     1       9.592  10.766  18.817  0.00  0.00    +0.000 A 
ATOM     10  C   UNL     1       8.719  11.471  17.979  0.00  0.00    +0.000 A 
ATOM     11  C   UNL     1       9.033  12.760  17.550  0.00  0.00    +0.000 A 
ATOM     12  C   UNL     1      10.226  13.347  17.953  0.00  0.00    +0.000 A 
ATOM     13  C   UNL     1      11.090  12.657  18.810  0.00  0.00    +0.000 A 
ATOM     14  C   UNL     1      10.771  11.373  19.252  0.00  0.00    +0.000 A 
ATOM     15  O   UNL     1      12.287  13.172  19.236  0.00  0.00    +0.000 OA
ATOM     16  C   UNL     1      12.333  14.590  19.053  0.00  0.00    +0.000 C 
ATOM     17  C   UNL     1      11.845  14.982  17.669  0.00  0.00    +0.000 C 
ATOM     18  O   UNL     1      10.478  14.606  17.476  0.00  0.00    +0.000 OA
ENDBRANCH   6   9
BRANCH   1  19
ATOM     19  C   UNL     1       7.442   6.424  16.836  0.00  0.00    +0.000 C 
BRANCH  19  20
ATOM     20  N   UNL     1       6.837   5.169  16.355  0.00  0.00    +0.000 NA
ATOM     21  H   UNL     1       7.373   4.863  15.542  0.00  0.00    +0.000 HD
BRANCH  20  23
ATOM     22  C   UNL     1       5.210   6.719  15.262  0.00  0.00    +0.000 C 
ATOM     23  C   UNL     1       5.463   5.331  15.854  0.00  0.00    +0.000 C 
BRANCH  23  24
ATOM     24  C   UNL     1       4.506   5.055  17.010  0.00  0.00    +0.000 A 
ATOM     25  C   UNL     1       3.978   6.104  17.776  0.00  0.00    +0.000 A 
ATOM     26  C   UNL     1       3.071   5.844  18.806  0.00  0.00    +0.000 A 
ATOM     27  C   UNL     1       2.665   4.535  19.075  0.00  0.00    +0.000 A 
ATOM     28  C   UNL     1       3.167   3.470  18.316  0.00  0.00    +0.000 A 
ATOM     29  C   UNL     1       4.090   3.742  17.295  0.00  0.00    +0.000 A 
BRANCH  28  30
ATOM     30  C   UNL     1       2.719   2.050  18.553  0.00  0.00    +0.000 C 
ATOM     31  F   UNL     1       2.169   1.459  17.454  0.00  0.00    +0.000 F 
ATOM     32  F   UNL     1       3.745   1.238  18.933  0.00  0.00    +0.000 F 
ATOM     33  F   UNL     1       1.782   1.952  19.537  0.00  0.00    +0.000 F 
ENDBRANCH  28  30
ENDBRANCH  23  24
ENDBRANCH  20  23
ENDBRANCH  19  20
ENDBRANCH   1  19
TORSDOF 6
ENDMDL
MODEL 8
REMARK VINA RESULT:      -8.4      2.699      4.084
REMARK  Name = 
REMARK  7 active torsions:
REMARK  status: ('A' for Active; 'I' for Inactive)
REMARK    1  A    between atoms: C_1  and  C_2
REMARK    2  A    between atoms: C_2  and  N_3
REMARK    3  A    between atoms: C_2  and  C_21
REMARK    4  A    between atoms: N_3  and  C_4
REMARK    5  A    between atoms: C_4  and  C_5
REMARK    6  A    between atoms: N_10  and  C_11
REMARK    7  A    between atoms: C_25  and  C_26
REMARK                            x       y       z     vdW  Elec       q    Type
REMARK                         _______ _______ _______ _____ _____    ______ ____
ROOT
ATOM      1  C   UNL     1       7.902   6.854  18.558  0.00  0.00    +0.000 C 
ATOM      2  O   UNL     1       7.629   5.939  19.336  0.00  0.00    +0.000 OA
ATOM      3  N   UNL     1       8.633   7.930  19.020  0.00  0.00    +0.000 N 
ATOM      4  C   UNL     1       8.575   9.210  18.515  0.00  0.00    +0.000 C 
ATOM      5  O   UNL     1       7.766   9.554  17.661  0.00  0.00    +0.000 OA
ATOM      6  N   UNL     1       9.600  10.008  18.993  0.00  0.00    +0.000 N 
ATOM      7  H   UNL     1       8.912   7.832  19.985  0.00  0.00    +0.000 HD
ATOM      8  H   UNL     1      10.411   9.517  19.348  0.00  0.00    +0.000 HD
ENDROOT
BRANCH   6   9
ATOM      9  C   UNL     1       9.826  11.303  18.471  0.00  0.00    +0.000 A 
ATOM     10  C   UNL     1      10.929  11.591  17.657  0.00  0.00    +0.000 A 
ATOM     11  C   UNL     1      11.166  12.894  17.219  0.00  0.00    +0.000 A 
ATOM     12  C   UNL     1      10.303  13.914  17.598  0.00  0.00    +0.000 A 
ATOM     13  C   UNL     1       9.186  13.628  18.389  0.00  0.00    +0.000 A 
ATOM     14  C   UNL     1       8.939  12.323  18.817  0.00  0.00    +0.000 A 
ATOM     15  O   UNL     1       8.301  14.588  18.808  0.00  0.00    +0.000 OA
ATOM     16  C   UNL     1       8.419  15.776  18.020  0.00  0.00    +0.000 C 
ATOM     17  C   UNL     1       9.874  16.179  17.846  0.00  0.00    +0.000 C 
ATOM     18  O   UNL     1      10.610  15.170  17.147  0.00  0.00    +0.000 OA
ENDBRANCH   6   9
BRANCH   1  19
ATOM     19  C   UNL     1       7.416   6.865  17.094  0.00  0.00    +0.000 C 
BRANCH  19  20
ATOM     20  N   UNL     1       7.346   5.484  16.585  0.00  0.00    +0.000 NA
ATOM     21  H   UNL     1       8.035   5.397  15.836  0.00  0.00    +0.000 HD
BRANCH  20  23
ATOM     22  C   UNL     1       5.340   3.992  16.628  0.00  0.00    +0.000 C 
ATOM     23  C   UNL     1       6.061   5.157  15.945  0.00  0.00    +0.000 C 
BRANCH  23  24
ATOM     24  C   UNL     1       6.334   4.837  14.479  0.00  0.00    +0.000 A 
ATOM     25  C   UNL     1       7.585   5.102  13.903  0.00  0.00    +0.000 A 
ATOM     26  C   UNL     1       7.839   4.768  12.571  0.00  0.00    +0.000 A 
ATOM     27  C   UNL     1       6.853   4.149  11.799  0.00  0.00    +0.000 A 
ATOM     28  C   UNL     1       5.599   3.860  12.354  0.00  0.00    +0.000 A 
ATOM     29  C   UNL     1       5.351   4.216  13.688  0.00  0.00    +0.000 A 
BRANCH  28  30
ATOM     30  C   UNL     1       4.527   3.155  11.561  0.00  0.00    +0.000 C 
ATOM     31  F   UNL     1       4.919   1.948  11.063  0.00  0.00    +0.000 F 
ATOM     32  F   UNL     1       3.413   2.903  12.304  0.00  0.00    +0.000 F 
ATOM     33  F   UNL     1       4.105   3.881  10.488  0.00  0.00    +0.000 F 
ENDBRANCH  28  30
ENDBRANCH  23  24
ENDBRANCH  20  23
ENDBRANCH  19  20
ENDBRANCH   1  19
TORSDOF 6
ENDMDL
MODEL 9
REMARK VINA RESULT:      -8.3      6.421      7.902
REMARK  Name = 
REMARK  7 active torsions:
REMARK  status: ('A' for Active; 'I' for Inactive)
REMARK    1  A    between atoms: C_1  and  C_2
REMARK    2  A    between atoms: C_2  and  N_3
REMARK    3  A    between atoms: C_2  and  C_21
REMARK    4  A    between atoms: N_3  and  C_4
REMARK    5  A    between atoms: C_4  and  C_5
REMARK    6  A    between atoms: N_10  and  C_11
REMARK    7  A    between atoms: C_25  and  C_26
REMARK                            x       y       z     vdW  Elec       q    Type
REMARK                         _______ _______ _______ _____ _____    ______ ____
ROOT
ATOM      1  C   UNL     1       2.453   3.450  20.606  0.00  0.00    +0.000 C 
ATOM      2  O   UNL     1       3.174   2.590  21.115  0.00  0.00    +0.000 OA
ATOM      3  N   UNL     1       2.651   4.774  20.941  0.00  0.00    +0.000 N 
ATOM      4  C   UNL     1       1.685   5.755  20.924  0.00  0.00    +0.000 C 
ATOM      5  O   UNL     1       0.501   5.521  20.716  0.00  0.00    +0.000 OA
ATOM      6  N   UNL     1       2.225   7.024  21.049  0.00  0.00    +0.000 N 
ATOM      7  H   UNL     1       3.429   4.910  21.571  0.00  0.00    +0.000 HD
ATOM      8  H   UNL     1       3.203   7.112  20.802  0.00  0.00    +0.000 HD
ENDROOT
BRANCH   6   9
ATOM      9  C   UNL     1       1.427   8.180  20.883  0.00  0.00    +0.000 A 
ATOM     10  C   UNL     1       1.162   8.722  19.619  0.00  0.00    +0.000 A 
ATOM     11  C   UNL     1       0.434   9.905  19.493  0.00  0.00    +0.000 A 
ATOM     12  C   UNL     1      -0.026  10.554  20.632  0.00  0.00    +0.000 A 
ATOM     13  C   UNL     1       0.214  10.003  21.895  0.00  0.00    +0.000 A 
ATOM     14  C   UNL     1       0.930   8.812  22.023  0.00  0.00    +0.000 A 
ATOM     15  O   UNL     1      -0.201  10.597  23.059  0.00  0.00    +0.000 OA
ATOM     16  C   UNL     1      -1.224  11.565  22.809  0.00  0.00    +0.000 C 
ATOM     17  C   UNL     1      -0.853  12.468  21.644  0.00  0.00    +0.000 C 
ATOM     18  O   UNL     1      -0.715  11.720  20.432  0.00  0.00    +0.000 OA
ENDBRANCH   6   9
BRANCH   1  19
ATOM     19  C   UNL     1       1.302   3.097  19.641  0.00  0.00    +0.000 C 
BRANCH  19  20
ATOM     20  N   UNL     1       1.318   4.020  18.492  0.00  0.00    +0.000 NA
ATOM     21  H   UNL     1       0.410   3.949  18.030  0.00  0.00    +0.000 HD
BRANCH  20  23
ATOM     22  C   UNL     1       3.020   2.342  17.763  0.00  0.00    +0.000 C 
ATOM     23  C   UNL     1       2.294   3.652  17.453  0.00  0.00    +0.000 C 
BRANCH  23  24
ATOM     24  C   UNL     1       3.288   4.800  17.315  0.00  0.00    +0.000 A 
ATOM     25  C   UNL     1       2.935   6.109  17.677  0.00  0.00    +0.000 A 
ATOM     26  C   UNL     1       3.866   7.146  17.586  0.00  0.00    +0.000 A 
ATOM     27  C   UNL     1       5.167   6.890  17.146  0.00  0.00    +0.000 A 
ATOM     28  C   UNL     1       5.549   5.590  16.790  0.00  0.00    +0.000 A 
ATOM     29  C   UNL     1       4.601   4.560  16.872  0.00  0.00    +0.000 A 
BRANCH  28  30
ATOM     30  C   UNL     1       6.956   5.272  16.352  0.00  0.00    +0.000 C 
ATOM     31  F   UNL     1       7.467   4.145  16.926  0.00  0.00    +0.000 F 
ATOM     32  F   UNL     1       7.049   5.075  15.007  0.00  0.00    +0.000 F 
ATOM     33  F   UNL     1       7.836   6.271  16.645  0.00  0.00    +0.000 F 
ENDBRANCH  28  30
ENDBRANCH  23  24
ENDBRANCH  20  23
ENDBRANCH  19  20
ENDBRANCH   1  19
TORSDOF 6
ENDMDL
