MODEL 1
REMARK VINA RESULT:      -9.7      0.000      0.000
REMARK  Name = 
REMARK  4 active torsions:
REMARK  status: ('A' for Active; 'I' for Inactive)
REMARK    1  A    between atoms: C_1  and  C_2
REMARK    2  A    between atoms: C_9  and  C_10
REMARK    3  A    between atoms: C_15  and  C_16
REMARK    4  A    between atoms: C_22  and  C_23
REMARK                            x       y       z     vdW  Elec       q    Type
REMARK                         _______ _______ _______ _____ _____    ______ ____
ROOT
ATOM      1  C   UNL     1       2.394   7.776  18.831  0.00  0.00    +0.000 C 
ATOM      2  O   UNL     1       3.114   8.307  17.997  0.00  0.00    +0.000 OA
ATOM      3  N   UNL     1       2.535   6.344  19.136  0.00  0.00    +0.000 N 
ATOM      4  C   UNL     1       1.854   5.697  20.282  0.00  0.00    +0.000 C 
ATOM      5  C   UNL     1       2.551   4.445  20.811  0.00  0.00    +0.000 C 
ATOM      6  C   UNL     1       3.111   3.500  19.737  0.00  0.00    +0.000 C 
ATOM      7  N   UNL     1       3.625   4.231  18.603  0.00  0.00    +0.000 N 
ATOM      8  N   UNL     1       4.473   3.655  17.744  0.00  0.00    +0.000 NA
ATOM      9  C   UNL     1       4.666   4.599  16.814  0.00  0.00    +0.000 A 
ATOM     10  C   UNL     1       5.481   4.327  15.607  0.00  0.00    +0.000 C 
ATOM     11  C   UNL     1       4.007   5.806  17.154  0.00  0.00    +0.000 A 
ATOM     12  C   UNL     1       3.348   5.541  18.332  0.00  0.00    +0.000 A 
ENDROOT
BRANCH   1  21
ATOM     13  C   UNL     1      -2.143  12.819  20.238  0.00  0.00    +0.000 C 
ATOM     14  C   UNL     1      -1.935  12.237  21.605  0.00  0.00    +0.000 C 
ATOM     15  O   UNL     1      -2.547  12.721  22.563  0.00  0.00    +0.000 OA
ATOM     16  N   UNL     1      -1.075  11.174  21.769  0.00  0.00    +0.000 N 
ATOM     17  C   UNL     1      -0.963  10.564  23.106  0.00  0.00    +0.000 C 
ATOM     18  C   UNL     1       0.133   9.507  23.035  0.00  0.00    +0.000 C 
ATOM     19  C   UNL     1       0.350   9.405  21.561  0.00  0.00    +0.000 A 
ATOM     20  C   UNL     1       1.148   8.475  20.917  0.00  0.00    +0.000 A 
ATOM     21  C   UNL     1       1.427   8.642  19.563  0.00  0.00    +0.000 A 
ATOM     22  C   UNL     1       0.761   9.661  18.852  0.00  0.00    +0.000 A 
ATOM     23  C   UNL     1      -0.112  10.551  19.501  0.00  0.00    +0.000 A 
ATOM     24  C   UNL     1      -0.297  10.428  20.865  0.00  0.00    +0.000 A 
ENDBRANCH   1  21
BRANCH   6  25
ATOM     25  C   UNL     1       2.141   2.413  19.295  0.00  0.00    +0.000 C 
ATOM     26  F   UNL     1       1.349   2.846  18.282  0.00  0.00    +0.000 F 
ATOM     27  F   UNL     1       2.731   1.285  18.856  0.00  0.00    +0.000 F 
ATOM     28  F   UNL     1       1.316   2.077  20.315  0.00  0.00    +0.000 F 
ENDBRANCH   6  25
TORSDOF 2
ENDMDL
MODEL 2
REMARK VINA RESULT:      -9.5      0.768      1.771
REMARK  Name = 
REMARK  4 active torsions:
REMARK  status: ('A' for Active; 'I' for Inactive)
REMARK    1  A    between atoms: C_1  and  C_2
REMARK    2  A    between atoms: C_9  and  C_10
REMARK    3  A    between atoms: C_15  and  C_16
REMARK    4  A    between atoms: C_22  and  C_23
REMARK                            x       y       z     vdW  Elec       q    Type
REMARK                         _______ _______ _______ _____ _____    ______ ____
ROOT
ATOM      1  C   UNL     1       2.499   7.828  18.459  0.00  0.00    +0.000 C 
ATOM      2  O   UNL     1       3.320   8.218  17.641  0.00  0.00    +0.000 OA
ATOM      3  N   UNL     1       2.522   6.437  18.935  0.00  0.00    +0.000 N 
ATOM      4  C   UNL     1       1.705   5.968  20.079  0.00  0.00    +0.000 C 
ATOM      5  C   UNL     1       2.272   4.751  20.809  0.00  0.00    +0.000 C 
ATOM      6  C   UNL     1       2.861   3.657  19.904  0.00  0.00    +0.000 C 
ATOM      7  N   UNL     1       3.516   4.220  18.748  0.00  0.00    +0.000 N 
ATOM      8  N   UNL     1       4.396   3.502  18.041  0.00  0.00    +0.000 NA
ATOM      9  C   UNL     1       4.728   4.318  17.033  0.00  0.00    +0.000 A 
ATOM     10  C   UNL     1       5.624   3.861  15.944  0.00  0.00    +0.000 C 
ATOM     11  C   UNL     1       4.120   5.590  17.172  0.00  0.00    +0.000 A 
ATOM     12  C   UNL     1       3.347   5.502  18.306  0.00  0.00    +0.000 A 
ENDROOT
BRANCH   1  21
ATOM     13  C   UNL     1      -1.180  11.681  22.889  0.00  0.00    +0.000 C 
ATOM     14  C   UNL     1      -1.847  12.029  21.591  0.00  0.00    +0.000 C 
ATOM     15  O   UNL     1      -2.786  12.832  21.594  0.00  0.00    +0.000 OA
ATOM     16  N   UNL     1      -1.400  11.457  20.420  0.00  0.00    +0.000 N 
ATOM     17  C   UNL     1      -2.012  11.889  19.151  0.00  0.00    +0.000 C 
ATOM     18  C   UNL     1      -1.428  11.019  18.043  0.00  0.00    +0.000 C 
ATOM     19  C   UNL     1      -0.298  10.354  18.755  0.00  0.00    +0.000 A 
ATOM     20  C   UNL     1       0.673   9.554  18.176  0.00  0.00    +0.000 A 
ATOM     21  C   UNL     1       1.530   8.825  18.996  0.00  0.00    +0.000 A 
ATOM     22  C   UNL     1       1.490   9.045  20.388  0.00  0.00    +0.000 A 
ATOM     23  C   UNL     1       0.553   9.923  20.960  0.00  0.00    +0.000 A 
ATOM     24  C   UNL     1      -0.354  10.561  20.135  0.00  0.00    +0.000 A 
ENDBRANCH   1  21
BRANCH   6  25
ATOM     25  C   UNL     1       1.864   2.579  19.501  0.00  0.00    +0.000 C 
ATOM     26  F   UNL     1       1.143   2.961  18.417  0.00  0.00    +0.000 F 
ATOM     27  F   UNL     1       2.423   1.395  19.183  0.00  0.00    +0.000 F 
ATOM     28  F   UNL     1       0.977   2.362  20.501  0.00  0.00    +0.000 F 
ENDBRANCH   6  25
TORSDOF 2
ENDMDL
MODEL 3
REMARK VINA RESULT:      -9.2      1.077      2.033
REMARK  Name = 
REMARK  4 active torsions:
REMARK  status: ('A' for Active; 'I' for Inactive)
REMARK    1  A    between atoms: C_1  and  C_2
REMARK    2  A    between atoms: C_9  and  C_10
REMARK    3  A    between atoms: C_15  and  C_16
REMARK    4  A    between atoms: C_22  and  C_23
REMARK                            x       y       z     vdW  Elec       q    Type
REMARK                         _______ _______ _______ _____ _____    ______ ____
ROOT
ATOM      1  C   UNL     1       3.120   7.381  17.977  0.00  0.00    +0.000 C 
ATOM      2  O   UNL     1       3.795   7.908  17.104  0.00  0.00    +0.000 OA
ATOM      3  N   UNL     1       3.288   5.954  18.292  0.00  0.00    +0.000 N 
ATOM      4  C   UNL     1       2.668   5.316  19.477  0.00  0.00    +0.000 C 
ATOM      5  C   UNL     1       3.399   4.076  19.988  0.00  0.00    +0.000 C 
ATOM      6  C   UNL     1       3.915   3.122  18.899  0.00  0.00    +0.000 C 
ATOM      7  N   UNL     1       4.369   3.843  17.733  0.00  0.00    +0.000 N 
ATOM      8  N   UNL     1       5.180   3.263  16.842  0.00  0.00    +0.000 NA
ATOM      9  C   UNL     1       5.321   4.197  15.892  0.00  0.00    +0.000 A 
ATOM     10  C   UNL     1       6.080   3.916  14.651  0.00  0.00    +0.000 C 
ATOM     11  C   UNL     1       4.668   5.403  16.249  0.00  0.00    +0.000 A 
ATOM     12  C   UNL     1       4.068   5.148  17.460  0.00  0.00    +0.000 A 
ENDROOT
BRANCH   1  21
ATOM     13  C   UNL     1      -0.599  10.031  23.187  0.00  0.00    +0.000 C 
ATOM     14  C   UNL     1      -1.154  10.799  22.025  0.00  0.00    +0.000 C 
ATOM     15  O   UNL     1      -2.039  11.638  22.227  0.00  0.00    +0.000 OA
ATOM     16  N   UNL     1      -0.666  10.566  20.758  0.00  0.00    +0.000 N 
ATOM     17  C   UNL     1      -1.164  11.402  19.651  0.00  0.00    +0.000 C 
ATOM     18  C   UNL     1      -0.562  10.855  18.361  0.00  0.00    +0.000 C 
ATOM     19  C   UNL     1       0.474   9.921  18.891  0.00  0.00    +0.000 A 
ATOM     20  C   UNL     1       1.429   9.253  18.143  0.00  0.00    +0.000 A 
ATOM     21  C   UNL     1       2.182   8.248  18.744  0.00  0.00    +0.000 A 
ATOM     22  C   UNL     1       2.062   8.049  20.135  0.00  0.00    +0.000 A 
ATOM     23  C   UNL     1       1.146   8.790  20.901  0.00  0.00    +0.000 A 
ATOM     24  C   UNL     1       0.338   9.714  20.265  0.00  0.00    +0.000 A 
ENDBRANCH   1  21
BRANCH   6  25
ATOM     25  C   UNL     1       2.934   2.022  18.517  0.00  0.00    +0.000 C 
ATOM     26  F   UNL     1       2.257   2.343  17.386  0.00  0.00    +0.000 F 
ATOM     27  F   UNL     1       3.504   0.823  18.288  0.00  0.00    +0.000 F 
ATOM     28  F   UNL     1       2.008   1.860  19.492  0.00  0.00    +0.000 F 
ENDBRANCH   6  25
TORSDOF 2
ENDMDL
MODEL 4
REMARK VINA RESULT:      -8.7      1.204      1.428
REMARK  Name = 
REMARK  4 active torsions:
REMARK  status: ('A' for Active; 'I' for Inactive)
REMARK    1  A    between atoms: C_1  and  C_2
REMARK    2  A    between atoms: C_9  and  C_10
REMARK    3  A    between atoms: C_15  and  C_16
REMARK    4  A    between atoms: C_22  and  C_23
REMARK                            x       y       z     vdW  Elec       q    Type
REMARK                         _______ _______ _______ _____ _____    ______ ____
ROOT
ATOM      1  C   UNL     1       2.254   8.355  18.237  0.00  0.00    +0.000 C 
ATOM      2  O   UNL     1       3.050   8.864  17.462  0.00  0.00    +0.000 OA
ATOM      3  N   UNL     1       2.457   6.982  18.722  0.00  0.00    +0.000 N 
ATOM      4  C   UNL     1       1.660   6.393  19.824  0.00  0.00    +0.000 C 
ATOM      5  C   UNL     1       2.362   5.272  20.589  0.00  0.00    +0.000 C 
ATOM      6  C   UNL     1       3.153   4.280  19.722  0.00  0.00    +0.000 C 
ATOM      7  N   UNL     1       3.778   4.937  18.599  0.00  0.00    +0.000 N 
ATOM      8  N   UNL     1       4.791   4.359  17.944  0.00  0.00    +0.000 NA
ATOM      9  C   UNL     1       5.051   5.218  16.950  0.00  0.00    +0.000 A 
ATOM     10  C   UNL     1       6.062   4.903  15.913  0.00  0.00    +0.000 C 
ATOM     11  C   UNL     1       4.255   6.386  17.050  0.00  0.00    +0.000 A 
ATOM     12  C   UNL     1       3.444   6.181  18.142  0.00  0.00    +0.000 A 
ENDROOT
BRANCH   1  21
ATOM     13  C   UNL     1      -3.708  11.882  18.370  0.00  0.00    +0.000 C 
ATOM     14  C   UNL     1      -3.116  12.279  19.690  0.00  0.00    +0.000 C 
ATOM     15  O   UNL     1      -3.746  13.048  20.424  0.00  0.00    +0.000 OA
ATOM     16  N   UNL     1      -1.890  11.776  20.065  0.00  0.00    +0.000 N 
ATOM     17  C   UNL     1      -1.377  12.109  21.407  0.00  0.00    +0.000 C 
ATOM     18  C   UNL     1       0.032  11.537  21.511  0.00  0.00    +0.000 C 
ATOM     19  C   UNL     1       0.086  10.661  20.304  0.00  0.00    +0.000 A 
ATOM     20  C   UNL     1       1.102   9.778  19.982  0.00  0.00    +0.000 A 
ATOM     21  C   UNL     1       1.120   9.196  18.717  0.00  0.00    +0.000 A 
ATOM     22  C   UNL     1       0.019   9.398  17.860  0.00  0.00    +0.000 A 
ATOM     23  C   UNL     1      -1.048  10.233  18.230  0.00  0.00    +0.000 A 
ATOM     24  C   UNL     1      -0.998  10.880  19.450  0.00  0.00    +0.000 A 
ENDBRANCH   1  21
BRANCH   6  25
ATOM     25  C   UNL     1       2.351   3.067  19.273  0.00  0.00    +0.000 C 
ATOM     26  F   UNL     1       1.773   3.284  18.064  0.00  0.00    +0.000 F 
ATOM     27  F   UNL     1       3.073   1.937  19.147  0.00  0.00    +0.000 F 
ATOM     28  F   UNL     1       1.345   2.820  20.145  0.00  0.00    +0.000 F 
ENDBRANCH   6  25
TORSDOF 2
ENDMDL
MODEL 5
REMARK VINA RESULT:      -8.7      3.856      8.623
REMARK  Name = 
REMARK  4 active torsions:
REMARK  status: ('A' for Active; 'I' for Inactive)
REMARK    1  A    between atoms: C_1  and  C_2
REMARK    2  A    between atoms: C_9  and  C_10
REMARK    3  A    between atoms: C_15  and  C_16
REMARK    4  A    between atoms: C_22  and  C_23
REMARK                            x       y       z     vdW  Elec       q    Type
REMARK                         _______ _______ _______ _____ _____    ______ ____
ROOT
ATOM      1  C   UNL     1       0.627  10.009  19.980  0.00  0.00    +0.000 C 
ATOM      2  O   UNL     1       0.969  10.609  20.989  0.00  0.00    +0.000 OA
ATOM      3  N   UNL     1      -0.584  10.407  19.249  0.00  0.00    +0.000 N 
ATOM      4  C   UNL     1      -0.926   9.871  17.910  0.00  0.00    +0.000 C 
ATOM      5  C   UNL     1      -1.808  10.787  17.064  0.00  0.00    +0.000 C 
ATOM      6  C   UNL     1      -2.946  11.488  17.822  0.00  0.00    +0.000 C 
ATOM      7  N   UNL     1      -2.549  11.846  19.163  0.00  0.00    +0.000 N 
ATOM      8  N   UNL     1      -3.227  12.769  19.855  0.00  0.00    +0.000 NA
ATOM      9  C   UNL     1      -2.617  12.776  21.047  0.00  0.00    +0.000 A 
ATOM     10  C   UNL     1      -3.130  13.607  22.162  0.00  0.00    +0.000 C 
ATOM     11  C   UNL     1      -1.489  11.918  21.060  0.00  0.00    +0.000 A 
ATOM     12  C   UNL     1      -1.462  11.336  19.814  0.00  0.00    +0.000 A 
ENDROOT
BRANCH   1  21
ATOM     13  C   UNL     1       4.932   6.340  15.978  0.00  0.00    +0.000 C 
ATOM     14  C   UNL     1       4.625   5.340  17.054  0.00  0.00    +0.000 C 
ATOM     15  O   UNL     1       5.148   4.222  17.000  0.00  0.00    +0.000 OA
ATOM     16  N   UNL     1       3.777   5.685  18.083  0.00  0.00    +0.000 N 
ATOM     17  C   UNL     1       3.569   4.715  19.173  0.00  0.00    +0.000 C 
ATOM     18  C   UNL     1       2.504   5.292  20.099  0.00  0.00    +0.000 C 
ATOM     19  C   UNL     1       2.410   6.697  19.602  0.00  0.00    +0.000 A 
ATOM     20  C   UNL     1       1.686   7.722  20.188  0.00  0.00    +0.000 A 
ATOM     21  C   UNL     1       1.514   8.915  19.491  0.00  0.00    +0.000 A 
ATOM     22  C   UNL     1       2.215   9.104  18.282  0.00  0.00    +0.000 A 
ATOM     23  C   UNL     1       3.014   8.084  17.737  0.00  0.00    +0.000 A 
ATOM     24  C   UNL     1       3.091   6.872  18.396  0.00  0.00    +0.000 A 
ENDBRANCH   1  21
BRANCH   6  25
ATOM     25  C   UNL     1      -4.260  10.720  17.824  0.00  0.00    +0.000 C 
ATOM     26  F   UNL     1      -4.047   9.388  17.975  0.00  0.00    +0.000 F 
ATOM     27  F   UNL     1      -5.113  11.078  18.804  0.00  0.00    +0.000 F 
ATOM     28  F   UNL     1      -4.899  10.879  16.641  0.00  0.00    +0.000 F 
ENDBRANCH   6  25
TORSDOF 2
ENDMDL
MODEL 6
REMARK VINA RESULT:      -8.6      1.756      2.490
REMARK  Name = 
REMARK  4 active torsions:
REMARK  status: ('A' for Active; 'I' for Inactive)
REMARK    1  A    between atoms: C_1  and  C_2
REMARK    2  A    between atoms: C_9  and  C_10
REMARK    3  A    between atoms: C_15  and  C_16
REMARK    4  A    between atoms: C_22  and  C_23
REMARK                            x       y       z     vdW  Elec       q    Type
REMARK                         _______ _______ _______ _____ _____    ______ ____
ROOT
ATOM      1  C   UNL     1       1.789   9.108  18.203  0.00  0.00    +0.000 C 
ATOM      2  O   UNL     1       2.601   9.557  17.406  0.00  0.00    +0.000 OA
ATOM      3  N   UNL     1       2.002   7.794  18.828  0.00  0.00    +0.000 N 
ATOM      4  C   UNL     1       1.180   7.300  19.957  0.00  0.00    +0.000 C 
ATOM      5  C   UNL     1       1.876   6.276  20.851  0.00  0.00    +0.000 C 
ATOM      6  C   UNL     1       2.715   5.221  20.113  0.00  0.00    +0.000 C 
ATOM      7  N   UNL     1       3.364   5.778  18.950  0.00  0.00    +0.000 N 
ATOM      8  N   UNL     1       4.410   5.160  18.387  0.00  0.00    +0.000 NA
ATOM      9  C   UNL     1       4.687   5.923  17.322  0.00  0.00    +0.000 A 
ATOM     10  C   UNL     1       5.738   5.529  16.354  0.00  0.00    +0.000 C 
ATOM     11  C   UNL     1       3.866   7.077  17.280  0.00  0.00    +0.000 A 
ATOM     12  C   UNL     1       3.023   6.962  18.361  0.00  0.00    +0.000 A 
ENDROOT
BRANCH   1  21
ATOM     13  C   UNL     1      -2.239  13.650  21.543  0.00  0.00    +0.000 C 
ATOM     14  C   UNL     1      -3.204  13.107  20.531  0.00  0.00    +0.000 C 
ATOM     15  O   UNL     1      -4.362  13.540  20.513  0.00  0.00    +0.000 OA
ATOM     16  N   UNL     1      -2.786  12.146  19.638  0.00  0.00    +0.000 N 
ATOM     17  C   UNL     1      -3.729  11.701  18.596  0.00  0.00    +0.000 C 
ATOM     18  C   UNL     1      -3.062  10.560  17.835  0.00  0.00    +0.000 C 
ATOM     19  C   UNL     1      -1.658  10.655  18.332  0.00  0.00    +0.000 A 
ATOM     20  C   UNL     1      -0.574   9.936  17.854  0.00  0.00    +0.000 A 
ATOM     21  C   UNL     1       0.625   9.967  18.561  0.00  0.00    +0.000 A 
ATOM     22  C   UNL     1       0.749  10.853  19.652  0.00  0.00    +0.000 A 
ATOM     23  C   UNL     1      -0.335  11.639  20.079  0.00  0.00    +0.000 A 
ATOM     24  C   UNL     1      -1.546  11.519  19.423  0.00  0.00    +0.000 A 
ENDBRANCH   1  21
BRANCH   6  25
ATOM     25  C   UNL     1       1.951   3.952  19.760  0.00  0.00    +0.000 C 
ATOM     26  F   UNL     1       1.449   4.017  18.501  0.00  0.00    +0.000 F 
ATOM     27  F   UNL     1       2.688   2.825  19.813  0.00  0.00    +0.000 F 
ATOM     28  F   UNL     1       0.894   3.794  20.592  0.00  0.00    +0.000 F 
ENDBRANCH   6  25
TORSDOF 2
ENDMDL
MODEL 7
REMARK VINA RESULT:      -8.5      1.548      1.998
REMARK  Name = 
REMARK  4 active torsions:
REMARK  status: ('A' for Active; 'I' for Inactive)
REMARK    1  A    between atoms: C_1  and  C_2
REMARK    2  A    between atoms: C_9  and  C_10
REMARK    3  A    between atoms: C_15  and  C_16
REMARK    4  A    between atoms: C_22  and  C_23
REMARK                            x       y       z     vdW  Elec       q    Type
REMARK                         _______ _______ _______ _____ _____    ______ ____
ROOT
ATOM      1  C   UNL     1       1.830   9.068  18.382  0.00  0.00    +0.000 C 
ATOM      2  O   UNL     1       2.551   9.603  17.552  0.00  0.00    +0.000 OA
ATOM      3  N   UNL     1       2.120   7.707  18.857  0.00  0.00    +0.000 N 
ATOM      4  C   UNL     1       1.423   7.096  20.013  0.00  0.00    +0.000 C 
ATOM      5  C   UNL     1       2.219   6.009  20.734  0.00  0.00    +0.000 C 
ATOM      6  C   UNL     1       2.990   5.043  19.821  0.00  0.00    +0.000 C 
ATOM      7  N   UNL     1       3.511   5.716  18.655  0.00  0.00    +0.000 N 
ATOM      8  N   UNL     1       4.500   5.174  17.935  0.00  0.00    +0.000 NA
ATOM      9  C   UNL     1       4.658   6.036  16.922  0.00  0.00    +0.000 A 
ATOM     10  C   UNL     1       5.608   5.753  15.821  0.00  0.00    +0.000 C 
ATOM     11  C   UNL     1       3.824   7.172  17.070  0.00  0.00    +0.000 A 
ATOM     12  C   UNL     1       3.098   6.942  18.216  0.00  0.00    +0.000 A 
ENDROOT
BRANCH   1  21
ATOM     13  C   UNL     1      -4.353  12.131  19.009  0.00  0.00    +0.000 C 
ATOM     14  C   UNL     1      -3.632  12.706  20.192  0.00  0.00    +0.000 C 
ATOM     15  O   UNL     1      -4.227  13.498  20.931  0.00  0.00    +0.000 OA
ATOM     16  N   UNL     1      -2.327  12.339  20.439  0.00  0.00    +0.000 N 
ATOM     17  C   UNL     1      -1.677  12.847  21.660  0.00  0.00    +0.000 C 
ATOM     18  C   UNL     1      -0.220  12.397  21.621  0.00  0.00    +0.000 C 
ATOM     19  C   UNL     1      -0.247  11.407  20.504  0.00  0.00    +0.000 A 
ATOM     20  C   UNL     1       0.794  10.574  20.129  0.00  0.00    +0.000 A 
ATOM     21  C   UNL     1       0.698   9.866  18.933  0.00  0.00    +0.000 A 
ATOM     22  C   UNL     1      -0.519   9.894  18.221  0.00  0.00    +0.000 A 
ATOM     23  C   UNL     1      -1.599  10.681  18.656  0.00  0.00    +0.000 A 
ATOM     24  C   UNL     1      -1.447  11.454  19.792  0.00  0.00    +0.000 A 
ENDBRANCH   1  21
BRANCH   6  25
ATOM     25  C   UNL     1       2.208   3.796  19.432  0.00  0.00    +0.000 C 
ATOM     26  F   UNL     1       3.031   2.724  19.303  0.00  0.00    +0.000 F 
ATOM     27  F   UNL     1       1.257   3.437  20.315  0.00  0.00    +0.000 F 
ATOM     28  F   UNL     1       1.611   3.973  18.229  0.00  0.00    +0.000 F 
ENDBRANCH   6  25
TORSDOF 2
ENDMDL
MODEL 8
REMARK VINA RESULT:      -8.5      3.725      8.502
REMARK  Name = 
REMARK  4 active torsions:
REMARK  status: ('A' for Active; 'I' for Inactive)
REMARK    1  A    between atoms: C_1  and  C_2
REMARK    2  A    between atoms: C_9  and  C_10
REMARK    3  A    between atoms: C_15  and  C_16
REMARK    4  A    between atoms: C_22  and  C_23
REMARK                            x       y       z     vdW  Elec       q    Type
REMARK                         _______ _______ _______ _____ _____    ______ ____
ROOT
ATOM      1  C   UNL     1       1.151   8.646  20.953  0.00  0.00    +0.000 C 
ATOM      2  O   UNL     1       1.519   8.979  22.071  0.00  0.00    +0.000 OA
ATOM      3  N   UNL     1       0.301   9.538  20.150  0.00  0.00    +0.000 N 
ATOM      4  C   UNL     1       0.010   9.294  18.718  0.00  0.00    +0.000 C 
ATOM      5  C   UNL     1      -0.331  10.548  17.915  0.00  0.00    +0.000 C 
ATOM      6  C   UNL     1      -1.244  11.557  18.628  0.00  0.00    +0.000 C 
ATOM      7  N   UNL     1      -0.968  11.616  20.043  0.00  0.00    +0.000 N 
ATOM      8  N   UNL     1      -1.368  12.660  20.777  0.00  0.00    +0.000 NA
ATOM      9  C   UNL     1      -0.999  12.329  22.021  0.00  0.00    +0.000 A 
ATOM     10  C   UNL     1      -1.349  13.188  23.176  0.00  0.00    +0.000 C 
ATOM     11  C   UNL     1      -0.276  11.111  22.042  0.00  0.00    +0.000 A 
ATOM     12  C   UNL     1      -0.259  10.675  20.737  0.00  0.00    +0.000 A 
ENDROOT
BRANCH   1  21
ATOM     13  C   UNL     1       4.313   3.984  16.920  0.00  0.00    +0.000 C 
ATOM     14  C   UNL     1       3.563   3.085  17.856  0.00  0.00    +0.000 C 
ATOM     15  O   UNL     1       3.665   1.860  17.724  0.00  0.00    +0.000 OA
ATOM     16  N   UNL     1       2.782   3.634  18.849  0.00  0.00    +0.000 N 
ATOM     17  C   UNL     1       2.132   2.726  19.811  0.00  0.00    +0.000 C 
ATOM     18  C   UNL     1       1.241   3.576  20.710  0.00  0.00    +0.000 C 
ATOM     19  C   UNL     1       1.697   4.953  20.360  0.00  0.00    +0.000 A 
ATOM     20  C   UNL     1       1.317   6.124  20.995  0.00  0.00    +0.000 A 
ATOM     21  C   UNL     1       1.648   7.347  20.419  0.00  0.00    +0.000 A 
ATOM     22  C   UNL     1       2.498   7.360  19.293  0.00  0.00    +0.000 A 
ATOM     23  C   UNL     1       2.945   6.165  18.704  0.00  0.00    +0.000 A 
ATOM     24  C   UNL     1       2.522   4.961  19.234  0.00  0.00    +0.000 A 
ENDBRANCH   1  21
BRANCH   6  25
ATOM     25  C   UNL     1      -2.729  11.347  18.366  0.00  0.00    +0.000 C 
ATOM     26  F   UNL     1      -3.032  10.026  18.302  0.00  0.00    +0.000 F 
ATOM     27  F   UNL     1      -3.540  11.874  19.305  0.00  0.00    +0.000 F 
ATOM     28  F   UNL     1      -3.076  11.884  17.172  0.00  0.00    +0.000 F 
ENDBRANCH   6  25
TORSDOF 2
ENDMDL
