MODEL 1
REMARK VINA RESULT:      -8.7      0.000      0.000
REMARK  Name = 
REMARK  11 active torsions:
REMARK  status: ('A' for Active; 'I' for Inactive)
REMARK    1  A    between atoms: C_1  and  C_2
REMARK    2  A    between atoms: C_4  and  C_5
REMARK    3  A    between atoms: C_5  and  C_6
REMARK    4  A    between atoms: C_6  and  N_7
REMARK    5  A    between atoms: C_12  and  C_13
REMARK    6  A    between atoms: N_15  and  C_16
REMARK    7  A    between atoms: C_20  and  C_21
REMARK    8  A    between atoms: C_21  and  C_22
REMARK    9  A    between atoms: C_21  and  C_23
REMARK   10  A    between atoms: C_23  and  C_24
REMARK   11  A    between atoms: N_28  and  C_29
REMARK                            x       y       z     vdW  Elec       q    Type
REMARK                         _______ _______ _______ _____ _____    ______ ____
ROOT
ATOM      1  C   UNL     1       2.510   7.797  18.346  0.00  0.00    +0.000 C 
ATOM      2  O   UNL     1       2.495   8.794  17.631  0.00  0.00    +0.000 OA
ATOM      3  N   UNL     1       1.941   7.674  19.605  0.00  0.00    +0.000 N 
ATOM      4  H   UNL     1       2.150   6.803  20.088  0.00  0.00    +0.000 HD
ENDROOT
BRANCH   1  10
ATOM      5  C   UNL     1       6.509   5.885  16.345  0.00  0.00    +0.000 C 
ATOM      6  C   UNL     1       5.134   5.671  16.906  0.00  0.00    +0.000 A 
ATOM      7  C   UNL     1       4.584   4.386  16.960  0.00  0.00    +0.000 A 
ATOM      8  C   UNL     1       3.310   4.196  17.504  0.00  0.00    +0.000 A 
ATOM      9  C   UNL     1       2.624   5.331  17.948  0.00  0.00    +0.000 A 
ATOM     10  C   UNL     1       3.240   6.580  17.857  0.00  0.00    +0.000 A 
ATOM     11  N   UNL     1       4.482   6.775  17.345  0.00  0.00    +0.000 NA
BRANCH   8  12
ATOM     12  C   UNL     1       2.628   2.843  17.563  0.00  0.00    +0.000 C 
BRANCH  12  13
ATOM     13  C   UNL     1       1.388   2.750  18.468  0.00  0.00    +0.000 C 
BRANCH  13  14
ATOM     14  N   UNL     1       1.751   2.377  19.825  0.00  0.00    +0.000 N 
ATOM     15  C   UNL     1       2.946   2.493  20.363  0.00  0.00    +0.000 C 
ATOM     16  C   UNL     1       2.475   2.814  21.594  0.00  0.00    +0.000 C 
ATOM     17  C   UNL     1       1.117   2.985  20.964  0.00  0.00    +0.000 C 
ENDBRANCH  13  14
ENDBRANCH  12  13
ENDBRANCH   8  12
ENDBRANCH   1  10
BRANCH   3  18
ATOM     18  C   UNL     1       1.228   8.676  20.300  0.00  0.00    +0.000 A 
ATOM     19  C   UNL     1       1.281   8.809  21.690  0.00  0.00    +0.000 A 
ATOM     20  C   UNL     1       0.514   9.764  22.350  0.00  0.00    +0.000 A 
ATOM     21  C   UNL     1      -0.319  10.615  21.627  0.00  0.00    +0.000 A 
ATOM     22  C   UNL     1      -0.358  10.544  20.225  0.00  0.00    +0.000 A 
ATOM     23  C   UNL     1       0.426   9.570  19.573  0.00  0.00    +0.000 A 
BRANCH  22  24
ATOM     24  C   UNL     1      -1.212  11.513  19.416  0.00  0.00    +0.000 C 
ATOM     25  C   UNL     1      -0.387  12.738  18.986  0.00  0.00    +0.000 C 
BRANCH  24  26
ATOM     26  C   UNL     1      -1.855  10.852  18.176  0.00  0.00    +0.000 C 
BRANCH  26  27
ATOM     27  C   UNL     1      -3.252  11.311  17.916  0.00  0.00    +0.000 A 
ATOM     28  N   UNL     1      -4.073  11.814  18.819  0.00  0.00    +0.000 NA
ATOM     29  N   UNL     1      -5.244  12.166  18.193  0.00  0.00    +0.000 NA
ATOM     30  C   UNL     1      -5.117  11.870  16.922  0.00  0.00    +0.000 A 
ATOM     31  N   UNL     1      -3.887  11.333  16.699  0.00  0.00    +0.000 N 
ATOM     32  C   UNL     1      -3.393  10.904  15.419  0.00  0.00    +0.000 C 
ENDBRANCH  26  27
ENDBRANCH  24  26
ENDBRANCH  22  24
ENDBRANCH   3  18
TORSDOF 8
ENDMDL
MODEL 2
REMARK VINA RESULT:      -8.5      1.761      3.708
REMARK  Name = 
REMARK  11 active torsions:
REMARK  status: ('A' for Active; 'I' for Inactive)
REMARK    1  A    between atoms: C_1  and  C_2
REMARK    2  A    between atoms: C_4  and  C_5
REMARK    3  A    between atoms: C_5  and  C_6
REMARK    4  A    between atoms: C_6  and  N_7
REMARK    5  A    between atoms: C_12  and  C_13
REMARK    6  A    between atoms: N_15  and  C_16
REMARK    7  A    between atoms: C_20  and  C_21
REMARK    8  A    between atoms: C_21  and  C_22
REMARK    9  A    between atoms: C_21  and  C_23
REMARK   10  A    between atoms: C_23  and  C_24
REMARK   11  A    between atoms: N_28  and  C_29
REMARK                            x       y       z     vdW  Elec       q    Type
REMARK                         _______ _______ _______ _____ _____    ______ ____
ROOT
ATOM      1  C   UNL     1       1.975   6.272  20.221  0.00  0.00    +0.000 C 
ATOM      2  O   UNL     1       1.041   5.681  20.754  0.00  0.00    +0.000 OA
ATOM      3  N   UNL     1       2.150   7.647  20.150  0.00  0.00    +0.000 N 
ATOM      4  H   UNL     1       2.932   7.951  19.575  0.00  0.00    +0.000 HD
ENDROOT
BRANCH   1  10
ATOM      5  C   UNL     1       4.462   2.103  19.927  0.00  0.00    +0.000 C 
ATOM      6  C   UNL     1       4.219   3.487  19.398  0.00  0.00    +0.000 A 
ATOM      7  C   UNL     1       4.963   3.970  18.316  0.00  0.00    +0.000 A 
ATOM      8  C   UNL     1       4.713   5.252  17.817  0.00  0.00    +0.000 A 
ATOM      9  C   UNL     1       3.733   6.014  18.461  0.00  0.00    +0.000 A 
ATOM     10  C   UNL     1       3.037   5.461  19.537  0.00  0.00    +0.000 A 
ATOM     11  N   UNL     1       3.259   4.212  20.020  0.00  0.00    +0.000 NA
BRANCH   8  12
ATOM     12  C   UNL     1       5.500   5.865  16.675  0.00  0.00    +0.000 C 
BRANCH  12  13
ATOM     13  C   UNL     1       6.911   5.298  16.445  0.00  0.00    +0.000 C 
BRANCH  13  14
ATOM     14  N   UNL     1       6.960   4.468  15.252  0.00  0.00    +0.000 N 
ATOM     15  C   UNL     1       5.990   3.698  14.809  0.00  0.00    +0.000 C 
ATOM     16  C   UNL     1       6.261   3.931  13.501  0.00  0.00    +0.000 C 
ATOM     17  C   UNL     1       7.176   5.041  13.950  0.00  0.00    +0.000 C 
ENDBRANCH  13  14
ENDBRANCH  12  13
ENDBRANCH   8  12
ENDBRANCH   1  10
BRANCH   3  18
ATOM     18  C   UNL     1       1.284   8.627  20.685  0.00  0.00    +0.000 A 
ATOM     19  C   UNL     1       0.960   8.682  22.042  0.00  0.00    +0.000 A 
ATOM     20  C   UNL     1       0.052   9.618  22.526  0.00  0.00    +0.000 A 
ATOM     21  C   UNL     1      -0.547  10.528  21.657  0.00  0.00    +0.000 A 
ATOM     22  C   UNL     1      -0.206  10.534  20.295  0.00  0.00    +0.000 A 
ATOM     23  C   UNL     1       0.717   9.578  19.823  0.00  0.00    +0.000 A 
BRANCH  22  24
ATOM     24  C   UNL     1      -0.801  11.566  19.344  0.00  0.00    +0.000 C 
ATOM     25  C   UNL     1       0.214  12.684  19.050  0.00  0.00    +0.000 C 
BRANCH  24  26
ATOM     26  C   UNL     1      -1.295  10.944  18.019  0.00  0.00    +0.000 C 
BRANCH  26  27
ATOM     27  C   UNL     1      -2.741  11.199  17.746  0.00  0.00    +0.000 A 
ATOM     28  N   UNL     1      -3.601  11.718  18.602  0.00  0.00    +0.000 NA
ATOM     29  N   UNL     1      -4.816  11.844  17.974  0.00  0.00    +0.000 NA
ATOM     30  C   UNL     1      -4.676  11.399  16.749  0.00  0.00    +0.000 A 
ATOM     31  N   UNL     1      -3.394  10.984  16.558  0.00  0.00    +0.000 N 
ATOM     32  C   UNL     1      -2.873  10.449  15.330  0.00  0.00    +0.000 C 
ENDBRANCH  26  27
ENDBRANCH  24  26
ENDBRANCH  22  24
ENDBRANCH   3  18
TORSDOF 8
ENDMDL
MODEL 3
REMARK VINA RESULT:      -8.5      2.285      9.491
REMARK  Name = 
REMARK  11 active torsions:
REMARK  status: ('A' for Active; 'I' for Inactive)
REMARK    1  A    between atoms: C_1  and  C_2
REMARK    2  A    between atoms: C_4  and  C_5
REMARK    3  A    between atoms: C_5  and  C_6
REMARK    4  A    between atoms: C_6  and  N_7
REMARK    5  A    between atoms: C_12  and  C_13
REMARK    6  A    between atoms: N_15  and  C_16
REMARK    7  A    between atoms: C_20  and  C_21
REMARK    8  A    between atoms: C_21  and  C_22
REMARK    9  A    between atoms: C_21  and  C_23
REMARK   10  A    between atoms: C_23  and  C_24
REMARK   11  A    between atoms: N_28  and  C_29
REMARK                            x       y       z     vdW  Elec       q    Type
REMARK                         _______ _______ _______ _____ _____    ______ ____
ROOT
ATOM      1  C   UNL     1       2.243   7.882  18.952  0.00  0.00    +0.000 C 
ATOM      2  O   UNL     1       2.840   8.186  17.924  0.00  0.00    +0.000 OA
ATOM      3  N   UNL     1       2.345   6.684  19.645  0.00  0.00    +0.000 N 
ATOM      4  H   UNL     1       1.691   6.577  20.416  0.00  0.00    +0.000 HD
ENDROOT
BRANCH   1  10
ATOM      5  C   UNL     1       0.078   9.753  22.885  0.00  0.00    +0.000 C 
ATOM      6  C   UNL     1       0.238   9.753  21.393  0.00  0.00    +0.000 A 
ATOM      7  C   UNL     1      -0.499  10.642  20.603  0.00  0.00    +0.000 A 
ATOM      8  C   UNL     1      -0.325  10.648  19.216  0.00  0.00    +0.000 A 
ATOM      9  C   UNL     1       0.573   9.723  18.675  0.00  0.00    +0.000 A 
ATOM     10  C   UNL     1       1.268   8.867  19.530  0.00  0.00    +0.000 A 
ATOM     11  N   UNL     1       1.120   8.862  20.880  0.00  0.00    +0.000 NA
BRANCH   8  12
ATOM     12  C   UNL     1      -1.113  11.551  18.287  0.00  0.00    +0.000 C 
BRANCH  12  13
ATOM     13  C   UNL     1      -2.644  11.491  18.422  0.00  0.00    +0.000 C 
BRANCH  13  14
ATOM     14  N   UNL     1      -3.244  10.755  17.321  0.00  0.00    +0.000 N 
ATOM     15  C   UNL     1      -4.039  11.257  16.401  0.00  0.00    +0.000 C 
ATOM     16  C   UNL     1      -3.553  10.476  15.405  0.00  0.00    +0.000 C 
ATOM     17  C   UNL     1      -2.434  10.089  16.336  0.00  0.00    +0.000 C 
ENDBRANCH  13  14
ENDBRANCH  12  13
ENDBRANCH   8  12
ENDBRANCH   1  10
BRANCH   3  18
ATOM     18  C   UNL     1       3.164   5.587  19.297  0.00  0.00    +0.000 A 
ATOM     19  C   UNL     1       2.997   4.318  19.855  0.00  0.00    +0.000 A 
ATOM     20  C   UNL     1       3.863   3.275  19.542  0.00  0.00    +0.000 A 
ATOM     21  C   UNL     1       4.916   3.482  18.652  0.00  0.00    +0.000 A 
ATOM     22  C   UNL     1       5.082   4.731  18.033  0.00  0.00    +0.000 A 
ATOM     23  C   UNL     1       4.194   5.775  18.362  0.00  0.00    +0.000 A 
BRANCH  22  24
ATOM     24  C   UNL     1       6.187   4.954  17.005  0.00  0.00    +0.000 C 
ATOM     25  C   UNL     1       7.553   4.533  17.575  0.00  0.00    +0.000 C 
BRANCH  24  26
ATOM     26  C   UNL     1       5.924   4.215  15.674  0.00  0.00    +0.000 C 
BRANCH  26  27
ATOM     27  C   UNL     1       6.773   4.703  14.546  0.00  0.00    +0.000 A 
ATOM     28  N   UNL     1       7.776   5.553  14.657  0.00  0.00    +0.000 NA
ATOM     29  N   UNL     1       8.343   5.718  13.417  0.00  0.00    +0.000 NA
ATOM     30  C   UNL     1       7.676   4.968  12.574  0.00  0.00    +0.000 A 
ATOM     31  N   UNL     1       6.683   4.313  13.233  0.00  0.00    +0.000 N 
ATOM     32  C   UNL     1       5.759   3.391  12.631  0.00  0.00    +0.000 C 
ENDBRANCH  26  27
ENDBRANCH  24  26
ENDBRANCH  22  24
ENDBRANCH   3  18
TORSDOF 8
ENDMDL
MODEL 4
REMARK VINA RESULT:      -8.4      1.630      3.546
REMARK  Name = 
REMARK  11 active torsions:
REMARK  status: ('A' for Active; 'I' for Inactive)
REMARK    1  A    between atoms: C_1  and  C_2
REMARK    2  A    between atoms: C_4  and  C_5
REMARK    3  A    between atoms: C_5  and  C_6
REMARK    4  A    between atoms: C_6  and  N_7
REMARK    5  A    between atoms: C_12  and  C_13
REMARK    6  A    between atoms: N_15  and  C_16
REMARK    7  A    between atoms: C_20  and  C_21
REMARK    8  A    between atoms: C_21  and  C_22
REMARK    9  A    between atoms: C_21  and  C_23
REMARK   10  A    between atoms: C_23  and  C_24
REMARK   11  A    between atoms: N_28  and  C_29
REMARK                            x       y       z     vdW  Elec       q    Type
REMARK                         _______ _______ _______ _____ _____    ______ ____
ROOT
ATOM      1  C   UNL     1       2.180   6.048  19.835  0.00  0.00    +0.000 C 
ATOM      2  O   UNL     1       1.600   5.511  20.773  0.00  0.00    +0.000 OA
ATOM      3  N   UNL     1       2.153   7.397  19.510  0.00  0.00    +0.000 N 
ATOM      4  H   UNL     1       2.610   7.637  18.634  0.00  0.00    +0.000 HD
ENDROOT
BRANCH   1  10
ATOM      5  C   UNL     1       3.601   1.593  18.498  0.00  0.00    +0.000 C 
ATOM      6  C   UNL     1       3.657   3.075  18.268  0.00  0.00    +0.000 A 
ATOM      7  C   UNL     1       4.426   3.600  17.223  0.00  0.00    +0.000 A 
ATOM      8  C   UNL     1       4.453   4.981  17.005  0.00  0.00    +0.000 A 
ATOM      9  C   UNL     1       3.719   5.786  17.881  0.00  0.00    +0.000 A 
ATOM     10  C   UNL     1       2.979   5.187  18.901  0.00  0.00    +0.000 A 
ATOM     11  N   UNL     1       2.932   3.846  19.114  0.00  0.00    +0.000 NA
BRANCH   8  12
ATOM     12  C   UNL     1       5.291   5.632  15.922  0.00  0.00    +0.000 C 
BRANCH  12  13
ATOM     13  C   UNL     1       6.799   5.741  16.206  0.00  0.00    +0.000 C 
BRANCH  13  14
ATOM     14  N   UNL     1       7.055   6.507  17.415  0.00  0.00    +0.000 N 
ATOM     15  C   UNL     1       7.814   6.129  18.420  0.00  0.00    +0.000 C 
ATOM     16  C   UNL     1       8.281   7.377  18.672  0.00  0.00    +0.000 C 
ATOM     17  C   UNL     1       7.674   7.804  17.362  0.00  0.00    +0.000 C 
ENDBRANCH  13  14
ENDBRANCH  12  13
ENDBRANCH   8  12
ENDBRANCH   1  10
BRANCH   3  18
ATOM     18  C   UNL     1       1.456   8.409  20.206  0.00  0.00    +0.000 A 
ATOM     19  C   UNL     1       1.392   8.454  21.601  0.00  0.00    +0.000 A 
ATOM     20  C   UNL     1       0.641   9.426  22.254  0.00  0.00    +0.000 A 
ATOM     21  C   UNL     1      -0.059  10.382  21.521  0.00  0.00    +0.000 A 
ATOM     22  C   UNL     1       0.025  10.397  20.119  0.00  0.00    +0.000 A 
ATOM     23  C   UNL     1       0.791   9.405  19.474  0.00  0.00    +0.000 A 
BRANCH  22  24
ATOM     24  C   UNL     1      -0.680  11.478  19.306  0.00  0.00    +0.000 C 
ATOM     25  C   UNL     1       0.276  12.646  19.010  0.00  0.00    +0.000 C 
BRANCH  24  26
ATOM     26  C   UNL     1      -1.275  10.940  17.986  0.00  0.00    +0.000 C 
BRANCH  26  27
ATOM     27  C   UNL     1      -2.738  11.203  17.844  0.00  0.00    +0.000 A 
ATOM     28  N   UNL     1      -3.490  11.837  18.723  0.00  0.00    +0.000 NA
ATOM     29  N   UNL     1      -4.765  11.927  18.220  0.00  0.00    +0.000 NA
ATOM     30  C   UNL     1      -4.768  11.345  17.045  0.00  0.00    +0.000 A 
ATOM     31  N   UNL     1      -3.522  10.876  16.765  0.00  0.00    +0.000 N 
ATOM     32  C   UNL     1      -3.148  10.194  15.556  0.00  0.00    +0.000 C 
ENDBRANCH  26  27
ENDBRANCH  24  26
ENDBRANCH  22  24
ENDBRANCH   3  18
TORSDOF 8
ENDMDL
MODEL 5
REMARK VINA RESULT:      -8.4      1.433      3.569
REMARK  Name = 
REMARK  11 active torsions:
REMARK  status: ('A' for Active; 'I' for Inactive)
REMARK    1  A    between atoms: C_1  and  C_2
REMARK    2  A    between atoms: C_4  and  C_5
REMARK    3  A    between atoms: C_5  and  C_6
REMARK    4  A    between atoms: C_6  and  N_7
REMARK    5  A    between atoms: C_12  and  C_13
REMARK    6  A    between atoms: N_15  and  C_16
REMARK    7  A    between atoms: C_20  and  C_21
REMARK    8  A    between atoms: C_21  and  C_22
REMARK    9  A    between atoms: C_21  and  C_23
REMARK   10  A    between atoms: C_23  and  C_24
REMARK   11  A    between atoms: N_28  and  C_29
REMARK                            x       y       z     vdW  Elec       q    Type
REMARK                         _______ _______ _______ _____ _____    ______ ____
ROOT
ATOM      1  C   UNL     1       1.777   7.551  20.096  0.00  0.00    +0.000 C 
ATOM      2  O   UNL     1       2.143   8.366  19.254  0.00  0.00    +0.000 OA
ATOM      3  N   UNL     1       0.918   7.790  21.159  0.00  0.00    +0.000 N 
ATOM      4  H   UNL     1       0.817   7.017  21.812  0.00  0.00    +0.000 HD
ENDROOT
BRANCH   1  10
ATOM      5  C   UNL     1       1.517   2.919  21.554  0.00  0.00    +0.000 C 
ATOM      6  C   UNL     1       2.202   3.958  20.715  0.00  0.00    +0.000 A 
ATOM      7  C   UNL     1       3.292   3.611  19.910  0.00  0.00    +0.000 A 
ATOM      8  C   UNL     1       3.908   4.583  19.116  0.00  0.00    +0.000 A 
ATOM      9  C   UNL     1       3.411   5.888  19.192  0.00  0.00    +0.000 A 
ATOM     10  C   UNL     1       2.321   6.155  20.022  0.00  0.00    +0.000 A 
ATOM     11  N   UNL     1       1.704   5.217  20.786  0.00  0.00    +0.000 NA
BRANCH   8  12
ATOM     12  C   UNL     1       5.118   4.298  18.247  0.00  0.00    +0.000 C 
BRANCH  12  13
ATOM     13  C   UNL     1       4.826   3.864  16.800  0.00  0.00    +0.000 C 
BRANCH  13  14
ATOM     14  N   UNL     1       5.590   4.652  15.848  0.00  0.00    +0.000 N 
ATOM     15  C   UNL     1       6.883   4.888  15.906  0.00  0.00    +0.000 C 
ATOM     16  C   UNL     1       7.057   4.846  14.561  0.00  0.00    +0.000 C 
ATOM     17  C   UNL     1       5.663   4.283  14.459  0.00  0.00    +0.000 C 
ENDBRANCH  13  14
ENDBRANCH  12  13
ENDBRANCH   8  12
ENDBRANCH   1  10
BRANCH   3  18
ATOM     18  C   UNL     1       0.295   9.020  21.468  0.00  0.00    +0.000 A 
ATOM     19  C   UNL     1      -0.002   9.404  22.777  0.00  0.00    +0.000 A 
ATOM     20  C   UNL     1      -0.676  10.592  23.043  0.00  0.00    +0.000 A 
ATOM     21  C   UNL     1      -1.062  11.428  21.997  0.00  0.00    +0.000 A 
ATOM     22  C   UNL     1      -0.734  11.098  20.672  0.00  0.00    +0.000 A 
ATOM     23  C   UNL     1      -0.050   9.891  20.422  0.00  0.00    +0.000 A 
BRANCH  22  24
ATOM     24  C   UNL     1      -1.089  12.035  19.522  0.00  0.00    +0.000 C 
ATOM     25  C   UNL     1       0.082  12.984  19.212  0.00  0.00    +0.000 C 
BRANCH  24  26
ATOM     26  C   UNL     1      -1.506  11.279  18.241  0.00  0.00    +0.000 C 
BRANCH  26  27
ATOM     27  C   UNL     1      -2.952  11.436  17.903  0.00  0.00    +0.000 A 
ATOM     28  N   UNL     1      -3.888  11.867  18.728  0.00  0.00    +0.000 NA
ATOM     29  N   UNL     1      -5.077  11.923  18.043  0.00  0.00    +0.000 NA
ATOM     30  C   UNL     1      -4.846  11.525  16.816  0.00  0.00    +0.000 A 
ATOM     31  N   UNL     1      -3.529  11.209  16.678  0.00  0.00    +0.000 N 
ATOM     32  C   UNL     1      -2.912  10.750  15.465  0.00  0.00    +0.000 C 
ENDBRANCH  26  27
ENDBRANCH  24  26
ENDBRANCH  22  24
ENDBRANCH   3  18
TORSDOF 8
ENDMDL
MODEL 6
REMARK VINA RESULT:      -8.4      1.732      3.461
REMARK  Name = 
REMARK  11 active torsions:
REMARK  status: ('A' for Active; 'I' for Inactive)
REMARK    1  A    between atoms: C_1  and  C_2
REMARK    2  A    between atoms: C_4  and  C_5
REMARK    3  A    between atoms: C_5  and  C_6
REMARK    4  A    between atoms: C_6  and  N_7
REMARK    5  A    between atoms: C_12  and  C_13
REMARK    6  A    between atoms: N_15  and  C_16
REMARK    7  A    between atoms: C_20  and  C_21
REMARK    8  A    between atoms: C_21  and  C_22
REMARK    9  A    between atoms: C_21  and  C_23
REMARK   10  A    between atoms: C_23  and  C_24
REMARK   11  A    between atoms: N_28  and  C_29
REMARK                            x       y       z     vdW  Elec       q    Type
REMARK                         _______ _______ _______ _____ _____    ______ ____
ROOT
ATOM      1  C   UNL     1       2.084   6.314  19.883  0.00  0.00    +0.000 C 
ATOM      2  O   UNL     1       1.570   5.780  20.861  0.00  0.00    +0.000 OA
ATOM      3  N   UNL     1       2.033   7.662  19.556  0.00  0.00    +0.000 N 
ATOM      4  H   UNL     1       2.429   7.899  18.649  0.00  0.00    +0.000 HD
ENDROOT
BRANCH   1  10
ATOM      5  C   UNL     1       3.163   1.850  18.285  0.00  0.00    +0.000 C 
ATOM      6  C   UNL     1       3.335   3.334  18.144  0.00  0.00    +0.000 A 
ATOM      7  C   UNL     1       4.147   3.859  17.133  0.00  0.00    +0.000 A 
ATOM      8  C   UNL     1       4.283   5.244  16.997  0.00  0.00    +0.000 A 
ATOM      9  C   UNL     1       3.608   6.050  17.919  0.00  0.00    +0.000 A 
ATOM     10  C   UNL     1       2.819   5.451  18.901  0.00  0.00    +0.000 A 
ATOM     11  N   UNL     1       2.667   4.107  19.034  0.00  0.00    +0.000 NA
BRANCH   8  12
ATOM     12  C   UNL     1       5.174   5.890  15.954  0.00  0.00    +0.000 C 
BRANCH  12  13
ATOM     13  C   UNL     1       6.580   5.286  15.797  0.00  0.00    +0.000 C 
BRANCH  13  14
ATOM     14  N   UNL     1       7.468   5.731  16.858  0.00  0.00    +0.000 N 
ATOM     15  C   UNL     1       7.365   6.859  17.527  0.00  0.00    +0.000 C 
ATOM     16  C   UNL     1       7.786   6.323  18.700  0.00  0.00    +0.000 C 
ATOM     17  C   UNL     1       7.635   4.966  18.065  0.00  0.00    +0.000 C 
ENDBRANCH  13  14
ENDBRANCH  12  13
ENDBRANCH   8  12
ENDBRANCH   1  10
BRANCH   3  18
ATOM     18  C   UNL     1       1.383   8.676  20.294  0.00  0.00    +0.000 A 
ATOM     19  C   UNL     1       1.220   8.610  21.680  0.00  0.00    +0.000 A 
ATOM     20  C   UNL     1       0.517   9.592  22.368  0.00  0.00    +0.000 A 
ATOM     21  C   UNL     1      -0.035  10.672  21.680  0.00  0.00    +0.000 A 
ATOM     22  C   UNL     1       0.153  10.797  20.295  0.00  0.00    +0.000 A 
ATOM     23  C   UNL     1       0.870   9.791  19.614  0.00  0.00    +0.000 A 
BRANCH  22  24
ATOM     24  C   UNL     1      -0.386  12.006  19.538  0.00  0.00    +0.000 C 
ATOM     25  C   UNL     1       0.759  12.776  18.858  0.00  0.00    +0.000 C 
BRANCH  24  26
ATOM     26  C   UNL     1      -1.459  11.629  18.493  0.00  0.00    +0.000 C 
BRANCH  26  27
ATOM     27  C   UNL     1      -2.854  11.906  18.948  0.00  0.00    +0.000 A 
ATOM     28  N   UNL     1      -3.187  12.483  20.087  0.00  0.00    +0.000 NA
ATOM     29  N   UNL     1      -4.554  12.611  20.126  0.00  0.00    +0.000 NA
ATOM     30  C   UNL     1      -5.029  12.107  19.013  0.00  0.00    +0.000 A 
ATOM     31  N   UNL     1      -4.004  11.653  18.242  0.00  0.00    +0.000 N 
ATOM     32  C   UNL     1      -4.149  11.051  16.945  0.00  0.00    +0.000 C 
ENDBRANCH  26  27
ENDBRANCH  24  26
ENDBRANCH  22  24
ENDBRANCH   3  18
TORSDOF 8
ENDMDL
MODEL 7
REMARK VINA RESULT:      -8.3      2.179      3.029
REMARK  Name = 
REMARK  11 active torsions:
REMARK  status: ('A' for Active; 'I' for Inactive)
REMARK    1  A    between atoms: C_1  and  C_2
REMARK    2  A    between atoms: C_4  and  C_5
REMARK    3  A    between atoms: C_5  and  C_6
REMARK    4  A    between atoms: C_6  and  N_7
REMARK    5  A    between atoms: C_12  and  C_13
REMARK    6  A    between atoms: N_15  and  C_16
REMARK    7  A    between atoms: C_20  and  C_21
REMARK    8  A    between atoms: C_21  and  C_22
REMARK    9  A    between atoms: C_21  and  C_23
REMARK   10  A    between atoms: C_23  and  C_24
REMARK   11  A    between atoms: N_28  and  C_29
REMARK                            x       y       z     vdW  Elec       q    Type
REMARK                         _______ _______ _______ _____ _____    ______ ____
ROOT
ATOM      1  C   UNL     1       2.828   7.665  17.921  0.00  0.00    +0.000 C 
ATOM      2  O   UNL     1       2.976   8.443  16.983  0.00  0.00    +0.000 OA
ATOM      3  N   UNL     1       2.103   7.898  19.081  0.00  0.00    +0.000 N 
ATOM      4  H   UNL     1       2.185   7.175  19.791  0.00  0.00    +0.000 HD
ENDROOT
BRANCH   1  10
ATOM      5  C   UNL     1       6.984   5.139  17.938  0.00  0.00    +0.000 C 
ATOM      6  C   UNL     1       5.484   5.133  17.863  0.00  0.00    +0.000 A 
ATOM      7  C   UNL     1       4.787   3.926  17.744  0.00  0.00    +0.000 A 
ATOM      8  C   UNL     1       3.390   3.931  17.697  0.00  0.00    +0.000 A 
ATOM      9  C   UNL     1       2.749   5.173  17.742  0.00  0.00    +0.000 A 
ATOM     10  C   UNL     1       3.515   6.333  17.859  0.00  0.00    +0.000 A 
ATOM     11  N   UNL     1       4.872   6.340  17.921  0.00  0.00    +0.000 NA
BRANCH   8  12
ATOM     12  C   UNL     1       2.563   2.671  17.529  0.00  0.00    +0.000 C 
BRANCH  12  13
ATOM     13  C   UNL     1       1.714   2.252  18.741  0.00  0.00    +0.000 C 
BRANCH  13  14
ATOM     14  N   UNL     1       2.061   3.025  19.922  0.00  0.00    +0.000 N 
ATOM     15  C   UNL     1       1.213   3.501  20.808  0.00  0.00    +0.000 C 
ATOM     16  C   UNL     1       2.042   3.302  21.863  0.00  0.00    +0.000 C 
ATOM     17  C   UNL     1       2.914   2.485  20.946  0.00  0.00    +0.000 C 
ENDBRANCH  13  14
ENDBRANCH  12  13
ENDBRANCH   8  12
ENDBRANCH   1  10
BRANCH   3  18
ATOM     18  C   UNL     1       1.391   9.077  19.397  0.00  0.00    +0.000 A 
ATOM     19  C   UNL     1       1.388  10.199  18.566  0.00  0.00    +0.000 A 
ATOM     20  C   UNL     1       0.731  11.367  18.938  0.00  0.00    +0.000 A 
ATOM     21  C   UNL     1       0.054  11.434  20.155  0.00  0.00    +0.000 A 
ATOM     22  C   UNL     1      -0.005  10.308  20.992  0.00  0.00    +0.000 A 
ATOM     23  C   UNL     1       0.665   9.132  20.598  0.00  0.00    +0.000 A 
BRANCH  22  24
ATOM     24  C   UNL     1      -0.798  10.343  22.294  0.00  0.00    +0.000 C 
ATOM     25  C   UNL     1      -0.068   9.558  23.397  0.00  0.00    +0.000 C 
BRANCH  24  26
ATOM     26  C   UNL     1      -1.090  11.781  22.779  0.00  0.00    +0.000 C 
BRANCH  26  27
ATOM     27  C   UNL     1      -2.548  12.101  22.844  0.00  0.00    +0.000 A 
ATOM     28  N   UNL     1      -3.336  11.870  23.877  0.00  0.00    +0.000 NA
ATOM     29  N   UNL     1      -4.590  12.346  23.581  0.00  0.00    +0.000 NA
ATOM     30  C   UNL     1      -4.544  12.855  22.374  0.00  0.00    +0.000 A 
ATOM     31  N   UNL     1      -3.287  12.726  21.870  0.00  0.00    +0.000 N 
ATOM     32  C   UNL     1      -2.864  13.184  20.576  0.00  0.00    +0.000 C 
ENDBRANCH  26  27
ENDBRANCH  24  26
ENDBRANCH  22  24
ENDBRANCH   3  18
TORSDOF 8
ENDMDL
MODEL 8
REMARK VINA RESULT:      -8.2      1.505      2.193
REMARK  Name = 
REMARK  11 active torsions:
REMARK  status: ('A' for Active; 'I' for Inactive)
REMARK    1  A    between atoms: C_1  and  C_2
REMARK    2  A    between atoms: C_4  and  C_5
REMARK    3  A    between atoms: C_5  and  C_6
REMARK    4  A    between atoms: C_6  and  N_7
REMARK    5  A    between atoms: C_12  and  C_13
REMARK    6  A    between atoms: N_15  and  C_16
REMARK    7  A    between atoms: C_20  and  C_21
REMARK    8  A    between atoms: C_21  and  C_22
REMARK    9  A    between atoms: C_21  and  C_23
REMARK   10  A    between atoms: C_23  and  C_24
REMARK   11  A    between atoms: N_28  and  C_29
REMARK                            x       y       z     vdW  Elec       q    Type
REMARK                         _______ _______ _______ _____ _____    ______ ____
ROOT
ATOM      1  C   UNL     1       1.946   8.020  18.836  0.00  0.00    +0.000 C 
ATOM      2  O   UNL     1       1.801   8.041  20.054  0.00  0.00    +0.000 OA
ATOM      3  N   UNL     1       1.421   8.927  17.925  0.00  0.00    +0.000 N 
ATOM      4  H   UNL     1       1.561   8.683  16.948  0.00  0.00    +0.000 HD
ENDROOT
BRANCH   1  10
ATOM      5  C   UNL     1       6.000   6.535  16.599  0.00  0.00    +0.000 C 
ATOM      6  C   UNL     1       4.654   6.190  17.166  0.00  0.00    +0.000 A 
ATOM      7  C   UNL     1       4.182   4.874  17.117  0.00  0.00    +0.000 A 
ATOM      8  C   UNL     1       2.936   4.561  17.667  0.00  0.00    +0.000 A 
ATOM      9  C   UNL     1       2.195   5.609  18.222  0.00  0.00    +0.000 A 
ATOM     10  C   UNL     1       2.733   6.896  18.229  0.00  0.00    +0.000 A 
ATOM     11  N   UNL     1       3.949   7.210  17.712  0.00  0.00    +0.000 NA
BRANCH   8  12
ATOM     12  C   UNL     1       2.336   3.169  17.620  0.00  0.00    +0.000 C 
BRANCH  12  13
ATOM     13  C   UNL     1       1.142   2.915  18.557  0.00  0.00    +0.000 C 
BRANCH  13  14
ATOM     14  N   UNL     1       1.584   2.463  19.866  0.00  0.00    +0.000 N 
ATOM     15  C   UNL     1       2.834   2.361  20.264  0.00  0.00    +0.000 C 
ATOM     16  C   UNL     1       2.568   2.740  21.539  0.00  0.00    +0.000 C 
ATOM     17  C   UNL     1       1.199   3.155  21.066  0.00  0.00    +0.000 C 
ENDBRANCH  13  14
ENDBRANCH  12  13
ENDBRANCH   8  12
ENDBRANCH   1  10
BRANCH   3  18
ATOM     18  C   UNL     1       0.624  10.052  18.233  0.00  0.00    +0.000 A 
ATOM     19  C   UNL     1       1.045  11.053  19.112  0.00  0.00    +0.000 A 
ATOM     20  C   UNL     1       0.209  12.114  19.446  0.00  0.00    +0.000 A 
ATOM     21  C   UNL     1      -1.070  12.198  18.898  0.00  0.00    +0.000 A 
ATOM     22  C   UNL     1      -1.506  11.237  17.972  0.00  0.00    +0.000 A 
ATOM     23  C   UNL     1      -0.645  10.170  17.645  0.00  0.00    +0.000 A 
BRANCH  22  24
ATOM     24  C   UNL     1      -2.875  11.353  17.311  0.00  0.00    +0.000 C 
ATOM     25  C   UNL     1      -2.905  10.578  15.982  0.00  0.00    +0.000 C 
BRANCH  24  26
ATOM     26  C   UNL     1      -4.023  10.872  18.226  0.00  0.00    +0.000 C 
BRANCH  26  27
ATOM     27  C   UNL     1      -4.740  11.986  18.915  0.00  0.00    +0.000 A 
ATOM     28  N   UNL     1      -4.435  12.473  20.103  0.00  0.00    +0.000 NA
ATOM     29  N   UNL     1      -5.284  13.519  20.375  0.00  0.00    +0.000 NA
ATOM     30  C   UNL     1      -6.091  13.649  19.350  0.00  0.00    +0.000 A 
ATOM     31  N   UNL     1      -5.790  12.712  18.410  0.00  0.00    +0.000 N 
ATOM     32  C   UNL     1      -6.460  12.565  17.147  0.00  0.00    +0.000 C 
ENDBRANCH  26  27
ENDBRANCH  24  26
ENDBRANCH  22  24
ENDBRANCH   3  18
TORSDOF 8
ENDMDL
MODEL 9
REMARK VINA RESULT:      -8.1      3.549      4.838
REMARK  Name = 
REMARK  11 active torsions:
REMARK  status: ('A' for Active; 'I' for Inactive)
REMARK    1  A    between atoms: C_1  and  C_2
REMARK    2  A    between atoms: C_4  and  C_5
REMARK    3  A    between atoms: C_5  and  C_6
REMARK    4  A    between atoms: C_6  and  N_7
REMARK    5  A    between atoms: C_12  and  C_13
REMARK    6  A    between atoms: N_15  and  C_16
REMARK    7  A    between atoms: C_20  and  C_21
REMARK    8  A    between atoms: C_21  and  C_22
REMARK    9  A    between atoms: C_21  and  C_23
REMARK   10  A    between atoms: C_23  and  C_24
REMARK   11  A    between atoms: N_28  and  C_29
REMARK                            x       y       z     vdW  Elec       q    Type
REMARK                         _______ _______ _______ _____ _____    ______ ____
ROOT
ATOM      1  C   UNL     1       2.062   8.000  18.812  0.00  0.00    +0.000 C 
ATOM      2  O   UNL     1       1.891   8.002  20.027  0.00  0.00    +0.000 OA
ATOM      3  N   UNL     1       1.574   8.932  17.906  0.00  0.00    +0.000 N 
ATOM      4  H   UNL     1       1.731   8.703  16.928  0.00  0.00    +0.000 HD
ENDROOT
BRANCH   1  10
ATOM      5  C   UNL     1       6.156   6.465  16.684  0.00  0.00    +0.000 C 
ATOM      6  C   UNL     1       4.781   6.143  17.190  0.00  0.00    +0.000 A 
ATOM      7  C   UNL     1       4.276   4.842  17.086  0.00  0.00    +0.000 A 
ATOM      8  C   UNL     1       3.002   4.548  17.580  0.00  0.00    +0.000 A 
ATOM      9  C   UNL     1       2.269   5.601  18.138  0.00  0.00    +0.000 A 
ATOM     10  C   UNL     1       2.841   6.872  18.202  0.00  0.00    +0.000 A 
ATOM     11  N   UNL     1       4.084   7.166  17.739  0.00  0.00    +0.000 NA
BRANCH   8  12
ATOM     12  C   UNL     1       2.367   3.176  17.471  0.00  0.00    +0.000 C 
BRANCH  12  13
ATOM     13  C   UNL     1       2.923   2.096  18.415  0.00  0.00    +0.000 C 
BRANCH  13  14
ATOM     14  N   UNL     1       2.268   2.139  19.712  0.00  0.00    +0.000 N 
ATOM     15  C   UNL     1       2.708   2.775  20.775  0.00  0.00    +0.000 C 
ATOM     16  C   UNL     1       1.470   3.129  21.203  0.00  0.00    +0.000 C 
ATOM     17  C   UNL     1       0.945   2.681  19.865  0.00  0.00    +0.000 C 
ENDBRANCH  13  14
ENDBRANCH  12  13
ENDBRANCH   8  12
ENDBRANCH   1  10
BRANCH   3  18
ATOM     18  C   UNL     1       0.792  10.067  18.217  0.00  0.00    +0.000 A 
ATOM     19  C   UNL     1      -0.605  10.045  18.198  0.00  0.00    +0.000 A 
ATOM     20  C   UNL     1      -1.345  11.197  18.444  0.00  0.00    +0.000 A 
ATOM     21  C   UNL     1      -0.698  12.400  18.723  0.00  0.00    +0.000 A 
ATOM     22  C   UNL     1       0.703  12.446  18.800  0.00  0.00    +0.000 A 
ATOM     23  C   UNL     1       1.437  11.269  18.549  0.00  0.00    +0.000 A 
BRANCH  22  24
ATOM     24  C   UNL     1       1.423  13.738  19.171  0.00  0.00    +0.000 C 
ATOM     25  C   UNL     1       1.219  14.067  20.660  0.00  0.00    +0.000 C 
BRANCH  24  26
ATOM     26  C   UNL     1       2.933  13.697  18.844  0.00  0.00    +0.000 C 
BRANCH  26  27
ATOM     27  C   UNL     1       3.572  15.046  18.820  0.00  0.00    +0.000 A 
ATOM     28  N   UNL     1       3.330  15.991  17.931  0.00  0.00    +0.000 NA
ATOM     29  N   UNL     1       4.066  17.102  18.266  0.00  0.00    +0.000 NA
ATOM     30  C   UNL     1       4.745  16.813  19.350  0.00  0.00    +0.000 A 
ATOM     31  N   UNL     1       4.469  15.538  19.735  0.00  0.00    +0.000 N 
ATOM     32  C   UNL     1       5.022  14.886  20.891  0.00  0.00    +0.000 C 
ENDBRANCH  26  27
ENDBRANCH  24  26
ENDBRANCH  22  24
ENDBRANCH   3  18
TORSDOF 8
ENDMDL
