MODEL 1
REMARK VINA RESULT:      -8.7      0.000      0.000
REMARK  Name = 
REMARK  3 active torsions:
REMARK  status: ('A' for Active; 'I' for Inactive)
REMARK    1  A    between atoms: C_2  and  C_3
REMARK    2  A    between atoms: C_3  and  N_4
REMARK    3  A    between atoms: N_19  and  C_20
REMARK                            x       y       z     vdW  Elec       q    Type
REMARK                         _______ _______ _______ _____ _____    ______ ____
ROOT
ATOM      1  N   UNL     1       1.305   8.861  20.035  0.00  0.00    +0.000 N 
ATOM      2  C   UNL     1       1.514   9.046  18.717  0.00  0.00    +0.000 C 
ATOM      3  O   UNL     1       2.224   8.368  17.992  0.00  0.00    +0.000 OA
ATOM      4  N   UNL     1       0.714  10.086  18.279  0.00  0.00    +0.000 N 
ATOM      5  C   UNL     1      -0.201  10.549  19.306  0.00  0.00    +0.000 C 
ATOM      6  C   UNL     1       0.245  11.917  19.895  0.00  0.00    +0.000 C 
ATOM      7  C   UNL     1      -0.919  12.717  20.515  0.00  0.00    +0.000 C 
ATOM      8  C   UNL     1      -1.990  13.026  19.466  0.00  0.00    +0.000 C 
ATOM      9  C   UNL     1      -2.357  11.765  18.750  0.00  0.00    +0.000 A 
ATOM     10  S   UNL     1      -3.784  11.671  17.828  0.00  0.00    +0.000 S 
ATOM     11  C   UNL     1      -3.445  10.059  17.381  0.00  0.00    +0.000 A 
ATOM     12  C   UNL     1      -2.276   9.596  17.952  0.00  0.00    +0.000 A 
ATOM     13  C   UNL     1      -1.588  10.608  18.703  0.00  0.00    +0.000 A 
ATOM     14  C   UNL     1       0.097   9.464  20.354  0.00  0.00    +0.000 C 
ATOM     15  O   UNL     1      -0.582   9.216  21.346  0.00  0.00    +0.000 OA
ATOM     16  H   UNL     1       0.546  10.212  17.289  0.00  0.00    +0.000 HD
ENDROOT
BRANCH   1  17
ATOM     17  C   UNL     1       1.817   7.780  20.859  0.00  0.00    +0.000 C 
BRANCH  17  19
ATOM     18  O   UNL     1       1.014   5.566  20.401  0.00  0.00    +0.000 OA
ATOM     19  C   UNL     1       2.009   6.294  20.468  0.00  0.00    +0.000 C 
ATOM     20  N   UNL     1       3.267   5.929  20.017  0.00  0.00    +0.000 N 
ATOM     21  H   UNL     1       4.061   6.348  20.500  0.00  0.00    +0.000 HD
BRANCH  20  22
ATOM     22  C   UNL     1       3.530   4.878  19.067  0.00  0.00    +0.000 A 
ATOM     23  C   UNL     1       3.078   3.573  19.336  0.00  0.00    +0.000 A 
ATOM     24  C   UNL     1       3.298   2.518  18.441  0.00  0.00    +0.000 A 
ATOM     25  C   UNL     1       3.971   2.749  17.251  0.00  0.00    +0.000 A 
ATOM     26  C   UNL     1       4.409   4.037  16.925  0.00  0.00    +0.000 A 
ATOM     27  C   UNL     1       5.067   4.227  15.697  0.00  0.00    +0.000 A 
ATOM     28  C   UNL     1       5.507   5.488  15.314  0.00  0.00    +0.000 A 
ATOM     29  C   UNL     1       5.298   6.569  16.159  0.00  0.00    +0.000 A 
ATOM     30  C   UNL     1       4.652   6.395  17.392  0.00  0.00    +0.000 A 
ATOM     31  C   UNL     1       4.186   5.129  17.820  0.00  0.00    +0.000 A 
ENDBRANCH  20  22
ENDBRANCH  17  19
ENDBRANCH   1  17
TORSDOF 3
ENDMDL
MODEL 2
REMARK VINA RESULT:      -8.6      5.766      8.519
REMARK  Name = 
REMARK  3 active torsions:
REMARK  status: ('A' for Active; 'I' for Inactive)
REMARK    1  A    between atoms: C_2  and  C_3
REMARK    2  A    between atoms: C_3  and  N_4
REMARK    3  A    between atoms: N_19  and  C_20
REMARK                            x       y       z     vdW  Elec       q    Type
REMARK                         _______ _______ _______ _____ _____    ______ ____
ROOT
ATOM      1  N   UNL     1       6.178   6.756  17.816  0.00  0.00    +0.000 N 
ATOM      2  C   UNL     1       5.527   6.556  16.654  0.00  0.00    +0.000 C 
ATOM      3  O   UNL     1       5.952   6.790  15.534  0.00  0.00    +0.000 OA
ATOM      4  N   UNL     1       4.314   5.946  16.920  0.00  0.00    +0.000 N 
ATOM      5  C   UNL     1       4.179   5.572  18.316  0.00  0.00    +0.000 C 
ATOM      6  C   UNL     1       3.201   6.519  19.069  0.00  0.00    +0.000 C 
ATOM      7  C   UNL     1       2.573   5.868  20.318  0.00  0.00    +0.000 C 
ATOM      8  C   UNL     1       1.765   4.625  19.938  0.00  0.00    +0.000 C 
ATOM      9  C   UNL     1       2.604   3.735  19.078  0.00  0.00    +0.000 A 
ATOM     10  S   UNL     1       2.173   2.109  18.826  0.00  0.00    +0.000 S 
ATOM     11  C   UNL     1       3.518   1.862  17.805  0.00  0.00    +0.000 A 
ATOM     12  C   UNL     1       4.296   2.996  17.684  0.00  0.00    +0.000 A 
ATOM     13  C   UNL     1       3.735   4.127  18.370  0.00  0.00    +0.000 A 
ATOM     14  C   UNL     1       5.609   5.917  18.763  0.00  0.00    +0.000 C 
ATOM     15  O   UNL     1       6.138   5.567  19.813  0.00  0.00    +0.000 OA
ATOM     16  H   UNL     1       3.800   5.497  16.172  0.00  0.00    +0.000 HD
ENDROOT
BRANCH   1  17
ATOM     17  C   UNL     1       7.543   7.223  17.986  0.00  0.00    +0.000 C 
BRANCH  17  19
ATOM     18  O   UNL     1       7.404   9.558  17.454  0.00  0.00    +0.000 OA
ATOM     19  C   UNL     1       8.048   8.686  18.044  0.00  0.00    +0.000 C 
ATOM     20  N   UNL     1       9.081   8.951  18.929  0.00  0.00    +0.000 N 
ATOM     21  H   UNL     1       9.812   8.246  18.996  0.00  0.00    +0.000 HD
BRANCH  20  22
ATOM     22  C   UNL     1       9.289  10.210  19.600  0.00  0.00    +0.000 A 
ATOM     23  C   UNL     1       8.813  10.382  20.912  0.00  0.00    +0.000 A 
ATOM     24  C   UNL     1       8.999  11.581  21.612  0.00  0.00    +0.000 A 
ATOM     25  C   UNL     1       9.673  12.634  21.014  0.00  0.00    +0.000 A 
ATOM     26  C   UNL     1      10.194  12.497  19.723  0.00  0.00    +0.000 A 
ATOM     27  C   UNL     1      10.891  13.584  19.166  0.00  0.00    +0.000 A 
ATOM     28  C   UNL     1      11.446  13.497  17.895  0.00  0.00    +0.000 A 
ATOM     29  C   UNL     1      11.303  12.323  17.168  0.00  0.00    +0.000 A 
ATOM     30  C   UNL     1      10.603  11.233  17.705  0.00  0.00    +0.000 A 
ATOM     31  C   UNL     1      10.025  11.279  18.996  0.00  0.00    +0.000 A 
ENDBRANCH  20  22
ENDBRANCH  17  19
ENDBRANCH   1  17
TORSDOF 3
ENDMDL
MODEL 3
REMARK VINA RESULT:      -8.6      2.799      8.296
REMARK  Name = 
REMARK  3 active torsions:
REMARK  status: ('A' for Active; 'I' for Inactive)
REMARK    1  A    between atoms: C_2  and  C_3
REMARK    2  A    between atoms: C_3  and  N_4
REMARK    3  A    between atoms: N_19  and  C_20
REMARK                            x       y       z     vdW  Elec       q    Type
REMARK                         _______ _______ _______ _____ _____    ______ ____
ROOT
ATOM      1  N   UNL     1       2.486   7.976  18.958  0.00  0.00    +0.000 N 
ATOM      2  C   UNL     1       2.008   7.491  20.121  0.00  0.00    +0.000 C 
ATOM      3  O   UNL     1       1.196   8.032  20.853  0.00  0.00    +0.000 OA
ATOM      4  N   UNL     1       2.515   6.219  20.317  0.00  0.00    +0.000 N 
ATOM      5  C   UNL     1       3.263   5.740  19.169  0.00  0.00    +0.000 C 
ATOM      6  C   UNL     1       4.794   5.756  19.437  0.00  0.00    +0.000 C 
ATOM      7  C   UNL     1       5.573   4.758  18.556  0.00  0.00    +0.000 C 
ATOM      8  C   UNL     1       5.105   3.324  18.811  0.00  0.00    +0.000 C 
ATOM      9  C   UNL     1       3.613   3.268  18.719  0.00  0.00    +0.000 A 
ATOM     10  S   UNL     1       2.807   1.781  18.540  0.00  0.00    +0.000 S 
ATOM     11  C   UNL     1       1.285   2.552  18.546  0.00  0.00    +0.000 A 
ATOM     12  C   UNL     1       1.396   3.924  18.654  0.00  0.00    +0.000 A 
ATOM     13  C   UNL     1       2.755   4.357  18.827  0.00  0.00    +0.000 A 
ATOM     14  C   UNL     1       2.938   6.898  18.211  0.00  0.00    +0.000 C 
ATOM     15  O   UNL     1       3.112   6.897  16.997  0.00  0.00    +0.000 OA
ATOM     16  H   UNL     1       2.086   5.603  20.997  0.00  0.00    +0.000 HD
ENDROOT
BRANCH   1  17
ATOM     17  C   UNL     1       2.089   9.205  18.293  0.00  0.00    +0.000 C 
BRANCH  17  19
ATOM     18  O   UNL     1       1.496  11.498  18.672  0.00  0.00    +0.000 OA
ATOM     19  C   UNL     1       1.161  10.321  18.832  0.00  0.00    +0.000 C 
ATOM     20  N   UNL     1      -0.090   9.925  19.278  0.00  0.00    +0.000 N 
ATOM     21  H   UNL     1      -0.129   9.051  19.799  0.00  0.00    +0.000 HD
BRANCH  20  22
ATOM     22  C   UNL     1      -1.278  10.739  19.229  0.00  0.00    +0.000 A 
ATOM     23  C   UNL     1      -1.555  11.626  20.285  0.00  0.00    +0.000 A 
ATOM     24  C   UNL     1      -2.690  12.446  20.281  0.00  0.00    +0.000 A 
ATOM     25  C   UNL     1      -3.573  12.400  19.212  0.00  0.00    +0.000 A 
ATOM     26  C   UNL     1      -3.322  11.558  18.124  0.00  0.00    +0.000 A 
ATOM     27  C   UNL     1      -4.233  11.563  17.053  0.00  0.00    +0.000 A 
ATOM     28  C   UNL     1      -4.023  10.760  15.938  0.00  0.00    +0.000 A 
ATOM     29  C   UNL     1      -2.903   9.942  15.887  0.00  0.00    +0.000 A 
ATOM     30  C   UNL     1      -1.990   9.919  16.951  0.00  0.00    +0.000 A 
ATOM     31  C   UNL     1      -2.164  10.721  18.104  0.00  0.00    +0.000 A 
ENDBRANCH  20  22
ENDBRANCH  17  19
ENDBRANCH   1  17
TORSDOF 3
ENDMDL
MODEL 4
REMARK VINA RESULT:      -8.5      2.622      3.700
REMARK  Name = 
REMARK  3 active torsions:
REMARK  status: ('A' for Active; 'I' for Inactive)
REMARK    1  A    between atoms: C_2  and  C_3
REMARK    2  A    between atoms: C_3  and  N_4
REMARK    3  A    between atoms: N_19  and  C_20
REMARK                            x       y       z     vdW  Elec       q    Type
REMARK                         _______ _______ _______ _____ _____    ______ ____
ROOT
ATOM      1  N   UNL     1       0.381  10.920  19.546  0.00  0.00    +0.000 N 
ATOM      2  C   UNL     1      -0.471  11.261  18.560  0.00  0.00    +0.000 C 
ATOM      3  O   UNL     1      -1.468  10.647  18.218  0.00  0.00    +0.000 OA
ATOM      4  N   UNL     1      -0.091  12.487  18.044  0.00  0.00    +0.000 N 
ATOM      5  C   UNL     1       0.987  13.095  18.804  0.00  0.00    +0.000 C 
ATOM      6  C   UNL     1       2.340  13.014  18.042  0.00  0.00    +0.000 C 
ATOM      7  C   UNL     1       3.344  14.101  18.475  0.00  0.00    +0.000 C 
ATOM      8  C   UNL     1       2.782  15.500  18.211  0.00  0.00    +0.000 C 
ATOM      9  C   UNL     1       1.407  15.597  18.791  0.00  0.00    +0.000 A 
ATOM     10  S   UNL     1       0.671  17.110  19.039  0.00  0.00    +0.000 S 
ATOM     11  C   UNL     1      -0.746  16.375  19.643  0.00  0.00    +0.000 A 
ATOM     12  C   UNL     1      -0.643  14.999  19.680  0.00  0.00    +0.000 A 
ATOM     13  C   UNL     1       0.589  14.520  19.118  0.00  0.00    +0.000 A 
ATOM     14  C   UNL     1       1.031  12.076  19.954  0.00  0.00    +0.000 C 
ATOM     15  O   UNL     1       1.602  12.229  21.029  0.00  0.00    +0.000 OA
ATOM     16  H   UNL     1      -0.738  13.019  17.476  0.00  0.00    +0.000 HD
ENDROOT
BRANCH   1  17
ATOM     17  C   UNL     1       0.261   9.795  20.457  0.00  0.00    +0.000 C 
BRANCH  17  19
ATOM     18  O   UNL     1       1.479   8.325  21.910  0.00  0.00    +0.000 OA
ATOM     19  C   UNL     1       1.305   8.687  20.743  0.00  0.00    +0.000 C 
ATOM     20  N   UNL     1       1.830   8.030  19.642  0.00  0.00    +0.000 N 
ATOM     21  H   UNL     1       2.032   8.605  18.825  0.00  0.00    +0.000 HD
BRANCH  20  22
ATOM     22  C   UNL     1       2.281   6.662  19.636  0.00  0.00    +0.000 A 
ATOM     23  C   UNL     1       1.751   5.754  20.571  0.00  0.00    +0.000 A 
ATOM     24  C   UNL     1       2.148   4.411  20.600  0.00  0.00    +0.000 A 
ATOM     25  C   UNL     1       3.082   3.945  19.687  0.00  0.00    +0.000 A 
ATOM     26  C   UNL     1       3.610   4.803  18.717  0.00  0.00    +0.000 A 
ATOM     27  C   UNL     1       4.537   4.280  17.797  0.00  0.00    +0.000 A 
ATOM     28  C   UNL     1       5.080   5.082  16.801  0.00  0.00    +0.000 A 
ATOM     29  C   UNL     1       4.705   6.416  16.720  0.00  0.00    +0.000 A 
ATOM     30  C   UNL     1       3.790   6.956  17.635  0.00  0.00    +0.000 A 
ATOM     31  C   UNL     1       3.211   6.174  18.663  0.00  0.00    +0.000 A 
ENDBRANCH  20  22
ENDBRANCH  17  19
ENDBRANCH   1  17
TORSDOF 3
ENDMDL
MODEL 5
REMARK VINA RESULT:      -8.2      1.740      2.686
REMARK  Name = 
REMARK  3 active torsions:
REMARK  status: ('A' for Active; 'I' for Inactive)
REMARK    1  A    between atoms: C_2  and  C_3
REMARK    2  A    between atoms: C_3  and  N_4
REMARK    3  A    between atoms: N_19  and  C_20
REMARK                            x       y       z     vdW  Elec       q    Type
REMARK                         _______ _______ _______ _____ _____    ______ ____
ROOT
ATOM      1  N   UNL     1       1.037  10.199  19.633  0.00  0.00    +0.000 N 
ATOM      2  C   UNL     1       1.185  11.037  18.588  0.00  0.00    +0.000 C 
ATOM      3  O   UNL     1       2.114  11.054  17.798  0.00  0.00    +0.000 OA
ATOM      4  N   UNL     1       0.056  11.831  18.489  0.00  0.00    +0.000 N 
ATOM      5  C   UNL     1      -0.986  11.427  19.416  0.00  0.00    +0.000 C 
ATOM      6  C   UNL     1      -1.108  12.421  20.606  0.00  0.00    +0.000 C 
ATOM      7  C   UNL     1      -2.501  12.402  21.268  0.00  0.00    +0.000 C 
ATOM      8  C   UNL     1      -3.588  12.794  20.264  0.00  0.00    +0.000 C 
ATOM      9  C   UNL     1      -3.432  11.974  19.023  0.00  0.00    +0.000 A 
ATOM     10  S   UNL     1      -4.696  11.859  17.891  0.00  0.00    +0.000 S 
ATOM     11  C   UNL     1      -3.758  10.859  16.875  0.00  0.00    +0.000 A 
ATOM     12  C   UNL     1      -2.512  10.597  17.409  0.00  0.00    +0.000 A 
ATOM     13  C   UNL     1      -2.277  11.301  18.638  0.00  0.00    +0.000 A 
ATOM     14  C   UNL     1      -0.316  10.146  19.937  0.00  0.00    +0.000 C 
ATOM     15  O   UNL     1      -0.867   9.254  20.575  0.00  0.00    +0.000 OA
ATOM     16  H   UNL     1      -0.128  12.343  17.636  0.00  0.00    +0.000 HD
ENDROOT
BRANCH   1  17
ATOM     17  C   UNL     1       1.908   9.095  20.000  0.00  0.00    +0.000 C 
BRANCH  17  19
ATOM     18  O   UNL     1       2.039   7.715  18.043  0.00  0.00    +0.000 OA
ATOM     19  C   UNL     1       2.078   7.737  19.277  0.00  0.00    +0.000 C 
ATOM     20  N   UNL     1       2.469   6.662  20.059  0.00  0.00    +0.000 N 
ATOM     21  H   UNL     1       2.051   6.601  20.986  0.00  0.00    +0.000 HD
BRANCH  20  22
ATOM     22  C   UNL     1       3.255   5.547  19.595  0.00  0.00    +0.000 A 
ATOM     23  C   UNL     1       4.647   5.692  19.451  0.00  0.00    +0.000 A 
ATOM     24  C   UNL     1       5.457   4.637  19.014  0.00  0.00    +0.000 A 
ATOM     25  C   UNL     1       4.890   3.407  18.717  0.00  0.00    +0.000 A 
ATOM     26  C   UNL     1       3.515   3.205  18.877  0.00  0.00    +0.000 A 
ATOM     27  C   UNL     1       2.989   1.934  18.585  0.00  0.00    +0.000 A 
ATOM     28  C   UNL     1       1.633   1.672  18.744  0.00  0.00    +0.000 A 
ATOM     29  C   UNL     1       0.792   2.681  19.191  0.00  0.00    +0.000 A 
ATOM     30  C   UNL     1       1.299   3.957  19.477  0.00  0.00    +0.000 A 
ATOM     31  C   UNL     1       2.672   4.266  19.331  0.00  0.00    +0.000 A 
ENDBRANCH  20  22
ENDBRANCH  17  19
ENDBRANCH   1  17
TORSDOF 3
ENDMDL
MODEL 6
REMARK VINA RESULT:      -8.1      1.398      2.582
REMARK  Name = 
REMARK  3 active torsions:
REMARK  status: ('A' for Active; 'I' for Inactive)
REMARK    1  A    between atoms: C_2  and  C_3
REMARK    2  A    between atoms: C_3  and  N_4
REMARK    3  A    between atoms: N_19  and  C_20
REMARK                            x       y       z     vdW  Elec       q    Type
REMARK                         _______ _______ _______ _____ _____    ______ ____
ROOT
ATOM      1  N   UNL     1       0.846   8.662  21.048  0.00  0.00    +0.000 N 
ATOM      2  C   UNL     1       0.202   9.366  21.999  0.00  0.00    +0.000 C 
ATOM      3  O   UNL     1       0.289   9.205  23.206  0.00  0.00    +0.000 OA
ATOM      4  N   UNL     1      -0.517  10.381  21.394  0.00  0.00    +0.000 N 
ATOM      5  C   UNL     1      -0.244  10.478  19.972  0.00  0.00    +0.000 C 
ATOM      6  C   UNL     1      -1.427   9.931  19.124  0.00  0.00    +0.000 C 
ATOM      7  C   UNL     1      -1.472  10.519  17.699  0.00  0.00    +0.000 C 
ATOM      8  C   UNL     1      -1.636  12.040  17.740  0.00  0.00    +0.000 C 
ATOM      9  C   UNL     1      -0.616  12.622  18.666  0.00  0.00    +0.000 A 
ATOM     10  S   UNL     1      -0.252  14.283  18.628  0.00  0.00    +0.000 S 
ATOM     11  C   UNL     1       0.875  14.112  19.898  0.00  0.00    +0.000 A 
ATOM     12  C   UNL     1       0.989  12.803  20.321  0.00  0.00    +0.000 A 
ATOM     13  C   UNL     1       0.069  11.924  19.655  0.00  0.00    +0.000 A 
ATOM     14  C   UNL     1       0.898   9.451  19.908  0.00  0.00    +0.000 C 
ATOM     15  O   UNL     1       1.683   9.304  18.977  0.00  0.00    +0.000 OA
ATOM     16  H   UNL     1      -0.862  11.155  21.947  0.00  0.00    +0.000 HD
ENDROOT
BRANCH   1  17
ATOM     17  C   UNL     1       1.832   7.614  21.251  0.00  0.00    +0.000 C 
BRANCH  17  19
ATOM     18  O   UNL     1       0.747   5.703  20.290  0.00  0.00    +0.000 OA
ATOM     19  C   UNL     1       1.818   6.172  20.687  0.00  0.00    +0.000 C 
ATOM     20  N   UNL     1       3.050   5.576  20.474  0.00  0.00    +0.000 N 
ATOM     21  H   UNL     1       3.765   5.750  21.180  0.00  0.00    +0.000 HD
BRANCH  20  22
ATOM     22  C   UNL     1       3.328   4.596  19.455  0.00  0.00    +0.000 A 
ATOM     23  C   UNL     1       2.910   3.266  19.641  0.00  0.00    +0.000 A 
ATOM     24  C   UNL     1       3.145   2.278  18.677  0.00  0.00    +0.000 A 
ATOM     25  C   UNL     1       3.801   2.603  17.499  0.00  0.00    +0.000 A 
ATOM     26  C   UNL     1       4.206   3.919  17.256  0.00  0.00    +0.000 A 
ATOM     27  C   UNL     1       4.847   4.205  16.037  0.00  0.00    +0.000 A 
ATOM     28  C   UNL     1       5.253   5.499  15.734  0.00  0.00    +0.000 A 
ATOM     29  C   UNL     1       5.027   6.517  16.650  0.00  0.00    +0.000 A 
ATOM     30  C   UNL     1       4.397   6.247  17.874  0.00  0.00    +0.000 A 
ATOM     31  C   UNL     1       3.966   4.944  18.222  0.00  0.00    +0.000 A 
ENDBRANCH  20  22
ENDBRANCH  17  19
ENDBRANCH   1  17
TORSDOF 3
ENDMDL
MODEL 7
REMARK VINA RESULT:      -8.1      1.698      2.980
REMARK  Name = 
REMARK  3 active torsions:
REMARK  status: ('A' for Active; 'I' for Inactive)
REMARK    1  A    between atoms: C_2  and  C_3
REMARK    2  A    between atoms: C_3  and  N_4
REMARK    3  A    between atoms: N_19  and  C_20
REMARK                            x       y       z     vdW  Elec       q    Type
REMARK                         _______ _______ _______ _____ _____    ______ ____
ROOT
ATOM      1  N   UNL     1       0.922  10.863  19.771  0.00  0.00    +0.000 N 
ATOM      2  C   UNL     1       0.875  11.967  19.001  0.00  0.00    +0.000 C 
ATOM      3  O   UNL     1       1.666  12.275  18.125  0.00  0.00    +0.000 OA
ATOM      4  N   UNL     1      -0.280  12.668  19.296  0.00  0.00    +0.000 N 
ATOM      5  C   UNL     1      -1.149  11.944  20.206  0.00  0.00    +0.000 C 
ATOM      6  C   UNL     1      -1.114  12.554  21.636  0.00  0.00    +0.000 C 
ATOM      7  C   UNL     1      -2.383  12.245  22.456  0.00  0.00    +0.000 C 
ATOM      8  C   UNL     1      -3.628  12.817  21.772  0.00  0.00    +0.000 C 
ATOM      9  C   UNL     1      -3.643  12.390  20.339  0.00  0.00    +0.000 A 
ATOM     10  S   UNL     1      -5.066  12.497  19.414  0.00  0.00    +0.000 S 
ATOM     11  C   UNL     1      -4.268  11.895  18.031  0.00  0.00    +0.000 A 
ATOM     12  C   UNL     1      -2.945  11.590  18.284  0.00  0.00    +0.000 A 
ATOM     13  C   UNL     1      -2.542  11.941  19.617  0.00  0.00    +0.000 A 
ATOM     14  C   UNL     1      -0.363  10.623  20.237  0.00  0.00    +0.000 C 
ATOM     15  O   UNL     1      -0.776   9.550  20.663  0.00  0.00    +0.000 OA
ATOM     16  H   UNL     1      -0.614  13.382  18.660  0.00  0.00    +0.000 HD
ENDROOT
BRANCH   1  17
ATOM     17  C   UNL     1       1.876   9.770  19.678  0.00  0.00    +0.000 C 
BRANCH  17  19
ATOM     18  O   UNL     1       1.841   8.976  17.415  0.00  0.00    +0.000 OA
ATOM     19  C   UNL     1       1.946   8.658  18.603  0.00  0.00    +0.000 C 
ATOM     20  N   UNL     1       2.330   7.399  19.037  0.00  0.00    +0.000 N 
ATOM     21  H   UNL     1       1.960   7.098  19.938  0.00  0.00    +0.000 HD
BRANCH  20  22
ATOM     22  C   UNL     1       3.039   6.432  18.238  0.00  0.00    +0.000 A 
ATOM     23  C   UNL     1       4.152   6.841  17.482  0.00  0.00    +0.000 A 
ATOM     24  C   UNL     1       4.882   5.939  16.698  0.00  0.00    +0.000 A 
ATOM     25  C   UNL     1       4.515   4.602  16.659  0.00  0.00    +0.000 A 
ATOM     26  C   UNL     1       3.437   4.143  17.421  0.00  0.00    +0.000 A 
ATOM     27  C   UNL     1       3.117   2.774  17.368  0.00  0.00    +0.000 A 
ATOM     28  C   UNL     1       2.067   2.260  18.120  0.00  0.00    +0.000 A 
ATOM     29  C   UNL     1       1.325   3.111  18.925  0.00  0.00    +0.000 A 
ATOM     30  C   UNL     1       1.624   4.480  18.983  0.00  0.00    +0.000 A 
ATOM     31  C   UNL     1       2.685   5.045  18.236  0.00  0.00    +0.000 A 
ENDBRANCH  20  22
ENDBRANCH  17  19
ENDBRANCH   1  17
TORSDOF 3
ENDMDL
MODEL 8
REMARK VINA RESULT:      -8.1      2.091      3.497
REMARK  Name = 
REMARK  3 active torsions:
REMARK  status: ('A' for Active; 'I' for Inactive)
REMARK    1  A    between atoms: C_2  and  C_3
REMARK    2  A    between atoms: C_3  and  N_4
REMARK    3  A    between atoms: N_19  and  C_20
REMARK                            x       y       z     vdW  Elec       q    Type
REMARK                         _______ _______ _______ _____ _____    ______ ____
ROOT
ATOM      1  N   UNL     1       0.384  10.810  18.974  0.00  0.00    +0.000 N 
ATOM      2  C   UNL     1      -0.759  10.824  18.262  0.00  0.00    +0.000 C 
ATOM      3  O   UNL     1      -1.232   9.893  17.631  0.00  0.00    +0.000 OA
ATOM      4  N   UNL     1      -1.377  12.049  18.432  0.00  0.00    +0.000 N 
ATOM      5  C   UNL     1      -0.708  12.872  19.424  0.00  0.00    +0.000 C 
ATOM      6  C   UNL     1       0.094  14.028  18.761  0.00  0.00    +0.000 C 
ATOM      7  C   UNL     1       0.318  15.226  19.705  0.00  0.00    +0.000 C 
ATOM      8  C   UNL     1      -1.017  15.827  20.152  0.00  0.00    +0.000 C 
ATOM      9  C   UNL     1      -1.902  14.736  20.663  0.00  0.00    +0.000 A 
ATOM     10  S   UNL     1      -3.271  15.096  21.606  0.00  0.00    +0.000 S 
ATOM     11  C   UNL     1      -3.682  13.444  21.725  0.00  0.00    +0.000 A 
ATOM     12  C   UNL     1      -2.770  12.633  21.079  0.00  0.00    +0.000 A 
ATOM     13  C   UNL     1      -1.755  13.380  20.390  0.00  0.00    +0.000 A 
ATOM     14  C   UNL     1       0.299  11.822  19.920  0.00  0.00    +0.000 C 
ATOM     15  O   UNL     1       0.968  11.895  20.946  0.00  0.00    +0.000 OA
ATOM     16  H   UNL     1      -2.352  12.163  18.182  0.00  0.00    +0.000 HD
ENDROOT
BRANCH   1  17
ATOM     17  C   UNL     1       1.259   9.673  19.205  0.00  0.00    +0.000 C 
BRANCH  17  19
ATOM     18  O   UNL     1       2.201   9.099  17.074  0.00  0.00    +0.000 OA
ATOM     19  C   UNL     1       1.807   8.668  18.162  0.00  0.00    +0.000 C 
ATOM     20  N   UNL     1       2.009   7.369  18.598  0.00  0.00    +0.000 N 
ATOM     21  H   UNL     1       1.304   6.987  19.227  0.00  0.00    +0.000 HD
BRANCH  20  22
ATOM     22  C   UNL     1       3.015   6.474  18.086  0.00  0.00    +0.000 A 
ATOM     23  C   UNL     1       4.255   6.992  17.668  0.00  0.00    +0.000 A 
ATOM     24  C   UNL     1       5.270   6.164  17.174  0.00  0.00    +0.000 A 
ATOM     25  C   UNL     1       5.069   4.794  17.093  0.00  0.00    +0.000 A 
ATOM     26  C   UNL     1       3.866   4.230  17.528  0.00  0.00    +0.000 A 
ATOM     27  C   UNL     1       3.716   2.834  17.448  0.00  0.00    +0.000 A 
ATOM     28  C   UNL     1       2.549   2.219  17.884  0.00  0.00    +0.000 A 
ATOM     29  C   UNL     1       1.520   2.994  18.398  0.00  0.00    +0.000 A 
ATOM     30  C   UNL     1       1.649   4.389  18.476  0.00  0.00    +0.000 A 
ATOM     31  C   UNL     1       2.821   5.056  18.046  0.00  0.00    +0.000 A 
ENDBRANCH  20  22
ENDBRANCH  17  19
ENDBRANCH   1  17
TORSDOF 3
ENDMDL
MODEL 9
REMARK VINA RESULT:      -8.0      3.046      8.031
REMARK  Name = 
REMARK  3 active torsions:
REMARK  status: ('A' for Active; 'I' for Inactive)
REMARK    1  A    between atoms: C_2  and  C_3
REMARK    2  A    between atoms: C_3  and  N_4
REMARK    3  A    between atoms: N_19  and  C_20
REMARK                            x       y       z     vdW  Elec       q    Type
REMARK                         _______ _______ _______ _____ _____    ______ ____
ROOT
ATOM      1  N   UNL     1       3.864   4.587  20.106  0.00  0.00    +0.000 N 
ATOM      2  C   UNL     1       4.386   3.366  19.879  0.00  0.00    +0.000 C 
ATOM      3  O   UNL     1       3.968   2.306  20.315  0.00  0.00    +0.000 OA
ATOM      4  N   UNL     1       5.433   3.487  18.984  0.00  0.00    +0.000 N 
ATOM      5  C   UNL     1       5.551   4.832  18.451  0.00  0.00    +0.000 C 
ATOM      6  C   UNL     1       6.763   5.587  19.067  0.00  0.00    +0.000 C 
ATOM      7  C   UNL     1       7.287   6.725  18.168  0.00  0.00    +0.000 C 
ATOM      8  C   UNL     1       7.758   6.182  16.817  0.00  0.00    +0.000 C 
ATOM      9  C   UNL     1       6.688   5.315  16.234  0.00  0.00    +0.000 A 
ATOM     10  S   UNL     1       6.709   4.894  14.586  0.00  0.00    +0.000 S 
ATOM     11  C   UNL     1       5.291   3.960  14.758  0.00  0.00    +0.000 A 
ATOM     12  C   UNL     1       4.797   3.995  16.047  0.00  0.00    +0.000 A 
ATOM     13  C   UNL     1       5.644   4.730  16.944  0.00  0.00    +0.000 A 
ATOM     14  C   UNL     1       4.269   5.414  19.068  0.00  0.00    +0.000 C 
ATOM     15  O   UNL     1       3.729   6.467  18.745  0.00  0.00    +0.000 OA
ATOM     16  H   UNL     1       5.786   2.668  18.505  0.00  0.00    +0.000 HD
ENDROOT
BRANCH   1  17
ATOM     17  C   UNL     1       2.658   4.899  20.854  0.00  0.00    +0.000 C 
BRANCH  17  19
ATOM     18  O   UNL     1       0.455   5.688  20.322  0.00  0.00    +0.000 OA
ATOM     19  C   UNL     1       1.621   6.013  20.566  0.00  0.00    +0.000 C 
ATOM     20  N   UNL     1       2.029   7.316  20.803  0.00  0.00    +0.000 N 
ATOM     21  H   UNL     1       2.986   7.546  20.539  0.00  0.00    +0.000 HD
BRANCH  20  22
ATOM     22  C   UNL     1       1.159   8.392  21.204  0.00  0.00    +0.000 A 
ATOM     23  C   UNL     1       0.934   8.627  22.573  0.00  0.00    +0.000 A 
ATOM     24  C   UNL     1       0.107   9.666  23.017  0.00  0.00    +0.000 A 
ATOM     25  C   UNL     1      -0.511  10.499  22.096  0.00  0.00    +0.000 A 
ATOM     26  C   UNL     1      -0.291  10.325  20.726  0.00  0.00    +0.000 A 
ATOM     27  C   UNL     1      -0.921  11.209  19.832  0.00  0.00    +0.000 A 
ATOM     28  C   UNL     1      -0.722  11.094  18.461  0.00  0.00    +0.000 A 
ATOM     29  C   UNL     1       0.103  10.090  17.973  0.00  0.00    +0.000 A 
ATOM     30  C   UNL     1       0.731   9.195  18.851  0.00  0.00    +0.000 A 
ATOM     31  C   UNL     1       0.558   9.277  20.253  0.00  0.00    +0.000 A 
ENDBRANCH  20  22
ENDBRANCH  17  19
ENDBRANCH   1  17
TORSDOF 3
ENDMDL
