MODEL 1
REMARK VINA RESULT:      -9.4      0.000      0.000
REMARK  Name = 
REMARK  7 active torsions:
REMARK  status: ('A' for Active; 'I' for Inactive)
REMARK    1  A    between atoms: C_1  and  C_2
REMARK    2  A    between atoms: C_4  and  C_5
REMARK    3  A    between atoms: C_7  and  N_8
REMARK    4  A    between atoms: C_10  and  C_11
REMARK    5  A    between atoms: C_13  and  N_14
REMARK    6  A    between atoms: C_15  and  C_17
REMARK    7  A    between atoms: N_26  and  C_27
REMARK                            x       y       z     vdW  Elec       q    Type
REMARK                         _______ _______ _______ _____ _____    ______ ____
ROOT
ATOM      1  N   UNL     1       2.452   6.778  18.011  0.00  0.00    +0.000 N 
ATOM      2  C   UNL     1       2.002   8.102  18.395  0.00  0.00    +0.000 C 
ATOM      3  O   UNL     1       2.168   8.942  17.524  0.00  0.00    +0.000 OA
ATOM      4  H   UNL     1       2.827   6.657  17.093  0.00  0.00    +0.000 HD
ENDROOT
BRANCH   2   5
ATOM      5  C   UNL     1       1.435   8.489  19.838  0.00  0.00    +0.000 A 
ATOM      6  C   UNL     1       1.674   7.996  21.167  0.00  0.00    +0.000 A 
ATOM      7  C   UNL     1       1.299   9.078  22.020  0.00  0.00    +0.000 A 
ATOM      8  C   UNL     1       0.279  10.078  21.829  0.00  0.00    +0.000 A 
ATOM      9  C   UNL     1      -0.101  10.397  20.562  0.00  0.00    +0.000 A 
ATOM     10  C   UNL     1       0.507   9.666  19.617  0.00  0.00    +0.000 A 
ATOM     11  O   UNL     1       0.117  10.136  18.331  0.00  0.00    +0.000 OA
ATOM     12  C   UNL     1      -0.882  11.168  18.575  0.00  0.00    +0.000 A 
ATOM     13  O   UNL     1      -1.527  11.762  17.699  0.00  0.00    +0.000 OA
ATOM     14  N   UNL     1      -0.972  11.331  19.940  0.00  0.00    +0.000 N 
ATOM     15  C   UNL     1      -1.987  12.108  20.678  0.00  0.00    +0.000 C 
ENDBRANCH   2   5
BRANCH   1  21
ATOM     16  N   UNL     1       3.411   4.656  18.969  0.00  0.00    +0.000 N 
ATOM     17  N   UNL     1       3.108   3.596  19.755  0.00  0.00    +0.000 NA
ATOM     18  C   UNL     1       1.888   3.858  20.229  0.00  0.00    +0.000 A 
ATOM     19  C   UNL     1       1.209   2.938  21.200  0.00  0.00    +0.000 C 
ATOM     20  C   UNL     1       1.374   5.072  19.660  0.00  0.00    +0.000 A 
ATOM     21  C   UNL     1       2.378   5.600  18.848  0.00  0.00    +0.000 A 
BRANCH  16  28
ATOM     22  C   UNL     1       8.185   5.881  19.219  0.00  0.00    +0.000 C 
ATOM     23  C   UNL     1       7.014   5.334  18.454  0.00  0.00    +0.000 A 
ATOM     24  C   UNL     1       7.175   4.851  17.145  0.00  0.00    +0.000 A 
ATOM     25  C   UNL     1       6.083   4.340  16.431  0.00  0.00    +0.000 A 
ATOM     26  C   UNL     1       6.217   3.853  15.019  0.00  0.00    +0.000 C 
ATOM     27  C   UNL     1       4.829   4.289  17.047  0.00  0.00    +0.000 A 
ATOM     28  C   UNL     1       4.668   4.774  18.350  0.00  0.00    +0.000 A 
ATOM     29  C   UNL     1       5.745   5.314  19.051  0.00  0.00    +0.000 A 
ENDBRANCH  16  28
ENDBRANCH   1  21
TORSDOF 3
ENDMDL
MODEL 2
REMARK VINA RESULT:      -9.4      0.100      1.638
REMARK  Name = 
REMARK  7 active torsions:
REMARK  status: ('A' for Active; 'I' for Inactive)
REMARK    1  A    between atoms: C_1  and  C_2
REMARK    2  A    between atoms: C_4  and  C_5
REMARK    3  A    between atoms: C_7  and  N_8
REMARK    4  A    between atoms: C_10  and  C_11
REMARK    5  A    between atoms: C_13  and  N_14
REMARK    6  A    between atoms: C_15  and  C_17
REMARK    7  A    between atoms: N_26  and  C_27
REMARK                            x       y       z     vdW  Elec       q    Type
REMARK                         _______ _______ _______ _____ _____    ______ ____
ROOT
ATOM      1  N   UNL     1       2.490   6.715  18.052  0.00  0.00    +0.000 N 
ATOM      2  C   UNL     1       2.042   8.044  18.421  0.00  0.00    +0.000 C 
ATOM      3  O   UNL     1       2.210   8.875  17.541  0.00  0.00    +0.000 OA
ATOM      4  H   UNL     1       2.865   6.583  17.135  0.00  0.00    +0.000 HD
ENDROOT
BRANCH   2   5
ATOM      5  C   UNL     1       1.477   8.449  19.860  0.00  0.00    +0.000 A 
ATOM      6  C   UNL     1       1.719   7.974  21.195  0.00  0.00    +0.000 A 
ATOM      7  C   UNL     1       1.341   9.066  22.034  0.00  0.00    +0.000 A 
ATOM      8  C   UNL     1       0.317  10.060  21.831  0.00  0.00    +0.000 A 
ATOM      9  C   UNL     1      -0.066  10.360  20.560  0.00  0.00    +0.000 A 
ATOM     10  C   UNL     1       0.544   9.619  19.624  0.00  0.00    +0.000 A 
ATOM     11  O   UNL     1       0.150  10.070  18.333  0.00  0.00    +0.000 OA
ATOM     12  C   UNL     1      -0.852  11.102  18.565  0.00  0.00    +0.000 A 
ATOM     13  O   UNL     1      -1.500  11.682  17.682  0.00  0.00    +0.000 OA
ATOM     14  N   UNL     1      -0.940  11.283  19.928  0.00  0.00    +0.000 N 
ATOM     15  C   UNL     1      -1.957  12.066  20.657  0.00  0.00    +0.000 C 
ENDBRANCH   2   5
BRANCH   1  21
ATOM     16  N   UNL     1       3.427   4.580  19.002  0.00  0.00    +0.000 N 
ATOM     17  N   UNL     1       3.122   3.534  19.806  0.00  0.00    +0.000 NA
ATOM     18  C   UNL     1       1.922   3.829  20.312  0.00  0.00    +0.000 A 
ATOM     19  C   UNL     1       1.251   2.933  21.310  0.00  0.00    +0.000 C 
ATOM     20  C   UNL     1       1.420   5.049  19.747  0.00  0.00    +0.000 A 
ATOM     21  C   UNL     1       2.413   5.546  18.901  0.00  0.00    +0.000 A 
BRANCH  16  28
ATOM     22  C   UNL     1       6.163   3.872  14.957  0.00  0.00    +0.000 C 
ATOM     23  C   UNL     1       6.022   4.358  16.371  0.00  0.00    +0.000 A 
ATOM     24  C   UNL     1       7.097   4.981  17.026  0.00  0.00    +0.000 A 
ATOM     25  C   UNL     1       6.965   5.435  18.345  0.00  0.00    +0.000 A 
ATOM     26  C   UNL     1       8.106   6.070  19.082  0.00  0.00    +0.000 C 
ATOM     27  C   UNL     1       5.738   5.288  18.998  0.00  0.00    +0.000 A 
ATOM     28  C   UNL     1       4.668   4.663  18.347  0.00  0.00    +0.000 A 
ATOM     29  C   UNL     1       4.806   4.179  17.047  0.00  0.00    +0.000 A 
ENDBRANCH  16  28
ENDBRANCH   1  21
TORSDOF 3
ENDMDL
MODEL 3
REMARK VINA RESULT:      -8.6      2.463      5.198
REMARK  Name = 
REMARK  7 active torsions:
REMARK  status: ('A' for Active; 'I' for Inactive)
REMARK    1  A    between atoms: C_1  and  C_2
REMARK    2  A    between atoms: C_4  and  C_5
REMARK    3  A    between atoms: C_7  and  N_8
REMARK    4  A    between atoms: C_10  and  C_11
REMARK    5  A    between atoms: C_13  and  N_14
REMARK    6  A    between atoms: C_15  and  C_17
REMARK    7  A    between atoms: N_26  and  C_27
REMARK                            x       y       z     vdW  Elec       q    Type
REMARK                         _______ _______ _______ _____ _____    ______ ____
ROOT
ATOM      1  N   UNL     1       4.234   3.728  16.457  0.00  0.00    +0.000 N 
ATOM      2  C   UNL     1       2.991   3.403  17.130  0.00  0.00    +0.000 C 
ATOM      3  O   UNL     1       2.136   2.957  16.381  0.00  0.00    +0.000 OA
ATOM      4  H   UNL     1       4.298   3.548  15.476  0.00  0.00    +0.000 HD
ENDROOT
BRANCH   2   5
ATOM      5  C   UNL     1       2.692   3.680  18.675  0.00  0.00    +0.000 A 
ATOM      6  C   UNL     1       2.611   2.842  19.840  0.00  0.00    +0.000 A 
ATOM      7  C   UNL     1       2.851   3.730  20.933  0.00  0.00    +0.000 A 
ATOM      8  C   UNL     1       2.517   5.126  21.064  0.00  0.00    +0.000 A 
ATOM      9  C   UNL     1       2.384   5.879  19.938  0.00  0.00    +0.000 A 
ATOM     10  C   UNL     1       2.530   5.182  18.803  0.00  0.00    +0.000 A 
ATOM     11  O   UNL     1       2.468   6.068  17.691  0.00  0.00    +0.000 OA
ATOM     12  C   UNL     1       2.163   7.379  18.250  0.00  0.00    +0.000 A 
ATOM     13  O   UNL     1       1.944   8.405  17.589  0.00  0.00    +0.000 OA
ATOM     14  N   UNL     1       2.150   7.243  19.620  0.00  0.00    +0.000 N 
ATOM     15  C   UNL     1       1.687   8.237  20.608  0.00  0.00    +0.000 C 
ENDBRANCH   2   5
BRANCH   1  21
ATOM     16  N   UNL     1       6.595   4.602  16.423  0.00  0.00    +0.000 N 
ATOM     17  N   UNL     1       7.594   5.037  17.226  0.00  0.00    +0.000 NA
ATOM     18  C   UNL     1       7.060   5.071  18.449  0.00  0.00    +0.000 A 
ATOM     19  C   UNL     1       7.841   5.562  19.632  0.00  0.00    +0.000 C 
ATOM     20  C   UNL     1       5.717   4.565  18.430  0.00  0.00    +0.000 A 
ATOM     21  C   UNL     1       5.410   4.272  17.100  0.00  0.00    +0.000 A 
BRANCH  16  28
ATOM     22  C   UNL     1       5.188   2.735  12.078  0.00  0.00    +0.000 C 
ATOM     23  C   UNL     1       6.074   3.638  12.887  0.00  0.00    +0.000 A 
ATOM     24  C   UNL     1       7.017   4.467  12.259  0.00  0.00    +0.000 A 
ATOM     25  C   UNL     1       7.844   5.311  13.014  0.00  0.00    +0.000 A 
ATOM     26  C   UNL     1       8.886   6.179  12.375  0.00  0.00    +0.000 C 
ATOM     27  C   UNL     1       7.700   5.340  14.404  0.00  0.00    +0.000 A 
ATOM     28  C   UNL     1       6.762   4.511  15.030  0.00  0.00    +0.000 A 
ATOM     29  C   UNL     1       5.963   3.646  14.285  0.00  0.00    +0.000 A 
ENDBRANCH  16  28
ENDBRANCH   1  21
TORSDOF 3
ENDMDL
MODEL 4
REMARK VINA RESULT:      -8.6      2.468      5.040
REMARK  Name = 
REMARK  7 active torsions:
REMARK  status: ('A' for Active; 'I' for Inactive)
REMARK    1  A    between atoms: C_1  and  C_2
REMARK    2  A    between atoms: C_4  and  C_5
REMARK    3  A    between atoms: C_7  and  N_8
REMARK    4  A    between atoms: C_10  and  C_11
REMARK    5  A    between atoms: C_13  and  N_14
REMARK    6  A    between atoms: C_15  and  C_17
REMARK    7  A    between atoms: N_26  and  C_27
REMARK                            x       y       z     vdW  Elec       q    Type
REMARK                         _______ _______ _______ _____ _____    ______ ____
ROOT
ATOM      1  N   UNL     1       4.216   3.773  16.430  0.00  0.00    +0.000 N 
ATOM      2  C   UNL     1       2.978   3.443  17.108  0.00  0.00    +0.000 C 
ATOM      3  O   UNL     1       2.114   3.011  16.359  0.00  0.00    +0.000 OA
ATOM      4  H   UNL     1       4.271   3.608  15.446  0.00  0.00    +0.000 HD
ENDROOT
BRANCH   2   5
ATOM      5  C   UNL     1       2.692   3.698  18.660  0.00  0.00    +0.000 A 
ATOM      6  C   UNL     1       2.633   2.845  19.815  0.00  0.00    +0.000 A 
ATOM      7  C   UNL     1       2.875   3.721  20.916  0.00  0.00    +0.000 A 
ATOM      8  C   UNL     1       2.527   5.111  21.068  0.00  0.00    +0.000 A 
ATOM      9  C   UNL     1       2.374   5.877  19.953  0.00  0.00    +0.000 A 
ATOM     10  C   UNL     1       2.515   5.195  18.808  0.00  0.00    +0.000 A 
ATOM     11  O   UNL     1       2.432   6.095  17.708  0.00  0.00    +0.000 OA
ATOM     12  C   UNL     1       2.118   7.395  18.286  0.00  0.00    +0.000 A 
ATOM     13  O   UNL     1       1.881   8.427  17.641  0.00  0.00    +0.000 OA
ATOM     14  N   UNL     1       2.121   7.242  19.655  0.00  0.00    +0.000 N 
ATOM     15  C   UNL     1       1.659   8.219  20.660  0.00  0.00    +0.000 C 
ENDBRANCH   2   5
BRANCH   1  21
ATOM     16  N   UNL     1       6.568   4.669  16.385  0.00  0.00    +0.000 N 
ATOM     17  N   UNL     1       7.579   5.082  17.186  0.00  0.00    +0.000 NA
ATOM     18  C   UNL     1       7.067   5.066  18.419  0.00  0.00    +0.000 A 
ATOM     19  C   UNL     1       7.866   5.519  19.605  0.00  0.00    +0.000 C 
ATOM     20  C   UNL     1       5.729   4.549  18.405  0.00  0.00    +0.000 A 
ATOM     21  C   UNL     1       5.399   4.304  17.072  0.00  0.00    +0.000 A 
BRANCH  16  28
ATOM     22  C   UNL     1       8.868   6.195  12.295  0.00  0.00    +0.000 C 
ATOM     23  C   UNL     1       7.840   5.336  12.973  0.00  0.00    +0.000 A 
ATOM     24  C   UNL     1       7.071   4.421  12.236  0.00  0.00    +0.000 A 
ATOM     25  C   UNL     1       6.111   3.619  12.869  0.00  0.00    +0.000 A 
ATOM     26  C   UNL     1       5.249   2.661  12.102  0.00  0.00    +0.000 C 
ATOM     27  C   UNL     1       5.946   3.717  14.253  0.00  0.00    +0.000 A 
ATOM     28  C   UNL     1       6.710   4.632  14.987  0.00  0.00    +0.000 A 
ATOM     29  C   UNL     1       7.641   5.455  14.356  0.00  0.00    +0.000 A 
ENDBRANCH  16  28
ENDBRANCH   1  21
TORSDOF 3
ENDMDL
MODEL 5
REMARK VINA RESULT:      -8.3      5.704      8.608
REMARK  Name = 
REMARK  7 active torsions:
REMARK  status: ('A' for Active; 'I' for Inactive)
REMARK    1  A    between atoms: C_1  and  C_2
REMARK    2  A    between atoms: C_4  and  C_5
REMARK    3  A    between atoms: C_7  and  N_8
REMARK    4  A    between atoms: C_10  and  C_11
REMARK    5  A    between atoms: C_13  and  N_14
REMARK    6  A    between atoms: C_15  and  C_17
REMARK    7  A    between atoms: N_26  and  C_27
REMARK                            x       y       z     vdW  Elec       q    Type
REMARK                         _______ _______ _______ _____ _____    ______ ____
ROOT
ATOM      1  N   UNL     1      -0.941  13.718  19.253  0.00  0.00    +0.000 N 
ATOM      2  C   UNL     1      -1.236  14.800  20.172  0.00  0.00    +0.000 C 
ATOM      3  O   UNL     1      -1.492  15.856  19.613  0.00  0.00    +0.000 OA
ATOM      4  H   UNL     1      -0.990  13.907  18.273  0.00  0.00    +0.000 HD
ENDROOT
BRANCH   2   5
ATOM      5  C   UNL     1      -1.146  14.694  21.764  0.00  0.00    +0.000 A 
ATOM      6  C   UNL     1      -0.173  15.111  22.736  0.00  0.00    +0.000 A 
ATOM      7  C   UNL     1      -0.910  15.214  23.955  0.00  0.00    +0.000 A 
ATOM      8  C   UNL     1      -2.044  14.446  24.401  0.00  0.00    +0.000 A 
ATOM      9  C   UNL     1      -2.855  13.868  23.473  0.00  0.00    +0.000 A 
ATOM     10  C   UNL     1      -2.441  14.048  22.210  0.00  0.00    +0.000 A 
ATOM     11  O   UNL     1      -3.398  13.492  21.316  0.00  0.00    +0.000 OA
ATOM     12  C   UNL     1      -4.401  12.853  22.158  0.00  0.00    +0.000 A 
ATOM     13  O   UNL     1      -5.359  12.183  21.747  0.00  0.00    +0.000 OA
ATOM     14  N   UNL     1      -4.064  13.125  23.466  0.00  0.00    +0.000 N 
ATOM     15  C   UNL     1      -4.654  12.525  24.679  0.00  0.00    +0.000 C 
ENDBRANCH   2   5
BRANCH   1  21
ATOM     16  N   UNL     1      -1.279  11.224  19.181  0.00  0.00    +0.000 N 
ATOM     17  N   UNL     1      -0.843  10.062  19.721  0.00  0.00    +0.000 NA
ATOM     18  C   UNL     1       0.185  10.411  20.499  0.00  0.00    +0.000 A 
ATOM     19  C   UNL     1       0.990   9.385  21.240  0.00  0.00    +0.000 C 
ATOM     20  C   UNL     1       0.346  11.837  20.516  0.00  0.00    +0.000 A 
ATOM     21  C   UNL     1      -0.604  12.366  19.642  0.00  0.00    +0.000 A 
BRANCH  16  28
ATOM     22  C   UNL     1      -2.949  10.152  14.663  0.00  0.00    +0.000 C 
ATOM     23  C   UNL     1      -3.172  10.705  16.042  0.00  0.00    +0.000 A 
ATOM     24  C   UNL     1      -4.438  11.168  16.433  0.00  0.00    +0.000 A 
ATOM     25  C   UNL     1      -4.646  11.683  17.720  0.00  0.00    +0.000 A 
ATOM     26  C   UNL     1      -5.977  12.220  18.153  0.00  0.00    +0.000 C 
ATOM     27  C   UNL     1      -3.582  11.706  18.625  0.00  0.00    +0.000 A 
ATOM     28  C   UNL     1      -2.318  11.247  18.234  0.00  0.00    +0.000 A 
ATOM     29  C   UNL     1      -2.100  10.767  16.944  0.00  0.00    +0.000 A 
ENDBRANCH  16  28
ENDBRANCH   1  21
TORSDOF 3
ENDMDL
MODEL 6
REMARK VINA RESULT:      -8.3      2.622      8.515
REMARK  Name = 
REMARK  7 active torsions:
REMARK  status: ('A' for Active; 'I' for Inactive)
REMARK    1  A    between atoms: C_1  and  C_2
REMARK    2  A    between atoms: C_4  and  C_5
REMARK    3  A    between atoms: C_7  and  N_8
REMARK    4  A    between atoms: C_10  and  C_11
REMARK    5  A    between atoms: C_13  and  N_14
REMARK    6  A    between atoms: C_15  and  C_17
REMARK    7  A    between atoms: N_26  and  C_27
REMARK                            x       y       z     vdW  Elec       q    Type
REMARK                         _______ _______ _______ _____ _____    ______ ____
ROOT
ATOM      1  N   UNL     1       0.269  10.567  20.905  0.00  0.00    +0.000 N 
ATOM      2  C   UNL     1       0.527   9.184  20.556  0.00  0.00    +0.000 C 
ATOM      3  O   UNL     1       0.095   8.387  21.375  0.00  0.00    +0.000 OA
ATOM      4  H   UNL     1      -0.241  10.752  21.744  0.00  0.00    +0.000 HD
ENDROOT
BRANCH   2   5
ATOM      5  C   UNL     1       1.378   8.706  19.290  0.00  0.00    +0.000 A 
ATOM      6  C   UNL     1       1.698   9.304  18.022  0.00  0.00    +0.000 A 
ATOM      7  C   UNL     1       2.885   8.631  17.603  0.00  0.00    +0.000 A 
ATOM      8  C   UNL     1       3.298   7.272  17.848  0.00  0.00    +0.000 A 
ATOM      9  C   UNL     1       2.823   6.628  18.948  0.00  0.00    +0.000 A 
ATOM     10  C   UNL     1       1.949   7.353  19.661  0.00  0.00    +0.000 A 
ATOM     11  O   UNL     1       1.584   6.634  20.834  0.00  0.00    +0.000 OA
ATOM     12  C   UNL     1       2.244   5.340  20.724  0.00  0.00    +0.000 A 
ATOM     13  O   UNL     1       2.104   4.396  21.515  0.00  0.00    +0.000 OA
ATOM     14  N   UNL     1       3.017   5.374  19.585  0.00  0.00    +0.000 N 
ATOM     15  C   UNL     1       3.705   4.237  18.942  0.00  0.00    +0.000 C 
ENDBRANCH   2   5
BRANCH   1  21
ATOM     16  N   UNL     1      -0.104  12.270  19.089  0.00  0.00    +0.000 N 
ATOM     17  N   UNL     1       0.489  13.298  18.437  0.00  0.00    +0.000 NA
ATOM     18  C   UNL     1       1.646  13.486  19.076  0.00  0.00    +0.000 A 
ATOM     19  C   UNL     1       2.585  14.589  18.688  0.00  0.00    +0.000 C 
ATOM     20  C   UNL     1       1.825  12.497  20.101  0.00  0.00    +0.000 A 
ATOM     21  C   UNL     1       0.672  11.712  20.118  0.00  0.00    +0.000 A 
BRANCH  16  28
ATOM     22  C   UNL     1      -4.984  12.401  19.814  0.00  0.00    +0.000 C 
ATOM     23  C   UNL     1      -3.788  11.901  19.056  0.00  0.00    +0.000 A 
ATOM     24  C   UNL     1      -3.946  11.064  17.939  0.00  0.00    +0.000 A 
ATOM     25  C   UNL     1      -2.830  10.598  17.231  0.00  0.00    +0.000 A 
ATOM     26  C   UNL     1      -2.966   9.672  16.059  0.00  0.00    +0.000 C 
ATOM     27  C   UNL     1      -1.552  10.999  17.630  0.00  0.00    +0.000 A 
ATOM     28  C   UNL     1      -1.395  11.832  18.744  0.00  0.00    +0.000 A 
ATOM     29  C   UNL     1      -2.500  12.269  19.472  0.00  0.00    +0.000 A 
ENDBRANCH  16  28
ENDBRANCH   1  21
TORSDOF 3
ENDMDL
MODEL 7
REMARK VINA RESULT:      -8.3      2.862      7.993
REMARK  Name = 
REMARK  7 active torsions:
REMARK  status: ('A' for Active; 'I' for Inactive)
REMARK    1  A    between atoms: C_1  and  C_2
REMARK    2  A    between atoms: C_4  and  C_5
REMARK    3  A    between atoms: C_7  and  N_8
REMARK    4  A    between atoms: C_10  and  C_11
REMARK    5  A    between atoms: C_13  and  N_14
REMARK    6  A    between atoms: C_15  and  C_17
REMARK    7  A    between atoms: N_26  and  C_27
REMARK                            x       y       z     vdW  Elec       q    Type
REMARK                         _______ _______ _______ _____ _____    ______ ____
ROOT
ATOM      1  N   UNL     1      -0.174   9.996  20.516  0.00  0.00    +0.000 N 
ATOM      2  C   UNL     1       0.960   9.093  20.558  0.00  0.00    +0.000 C 
ATOM      3  O   UNL     1       1.352   8.859  21.691  0.00  0.00    +0.000 OA
ATOM      4  H   UNL     1      -0.545  10.325  21.384  0.00  0.00    +0.000 HD
ENDROOT
BRANCH   2   5
ATOM      5  C   UNL     1       1.717   8.520  19.272  0.00  0.00    +0.000 A 
ATOM      6  C   UNL     1       2.090   9.082  18.003  0.00  0.00    +0.000 A 
ATOM      7  C   UNL     1       3.171   8.263  17.556  0.00  0.00    +0.000 A 
ATOM      8  C   UNL     1       3.406   6.860  17.783  0.00  0.00    +0.000 A 
ATOM      9  C   UNL     1       2.870   6.273  18.888  0.00  0.00    +0.000 A 
ATOM     10  C   UNL     1       2.112   7.100  19.623  0.00  0.00    +0.000 A 
ATOM     11  O   UNL     1       1.677   6.424  20.798  0.00  0.00    +0.000 OA
ATOM     12  C   UNL     1       2.158   5.056  20.666  0.00  0.00    +0.000 A 
ATOM     13  O   UNL     1       1.910   4.130  21.453  0.00  0.00    +0.000 OA
ATOM     14  N   UNL     1       2.909   4.998  19.512  0.00  0.00    +0.000 N 
ATOM     15  C   UNL     1       3.429   3.787  18.849  0.00  0.00    +0.000 C 
ENDBRANCH   2   5
BRANCH   1  21
ATOM     16  N   UNL     1      -0.672  11.721  18.751  0.00  0.00    +0.000 N 
ATOM     17  N   UNL     1      -1.435  11.953  17.657  0.00  0.00    +0.000 NA
ATOM     18  C   UNL     1      -2.066  10.799  17.428  0.00  0.00    +0.000 A 
ATOM     19  C   UNL     1      -2.978  10.624  16.250  0.00  0.00    +0.000 C 
ATOM     20  C   UNL     1      -1.760   9.843  18.454  0.00  0.00    +0.000 A 
ATOM     21  C   UNL     1      -0.836  10.443  19.310  0.00  0.00    +0.000 A 
BRANCH  16  28
ATOM     22  C   UNL     1       0.501  15.005  22.242  0.00  0.00    +0.000 C 
ATOM     23  C   UNL     1       0.820  14.288  20.962  0.00  0.00    +0.000 A 
ATOM     24  C   UNL     1       2.037  14.514  20.297  0.00  0.00    +0.000 A 
ATOM     25  C   UNL     1       2.336  13.844  19.103  0.00  0.00    +0.000 A 
ATOM     26  C   UNL     1       3.609  14.094  18.352  0.00  0.00    +0.000 C 
ATOM     27  C   UNL     1       1.420  12.921  18.592  0.00  0.00    +0.000 A 
ATOM     28  C   UNL     1       0.206  12.697  19.252  0.00  0.00    +0.000 A 
ATOM     29  C   UNL     1      -0.110  13.388  20.421  0.00  0.00    +0.000 A 
ENDBRANCH  16  28
ENDBRANCH   1  21
TORSDOF 3
ENDMDL
MODEL 8
REMARK VINA RESULT:      -8.3      2.897      8.086
REMARK  Name = 
REMARK  7 active torsions:
REMARK  status: ('A' for Active; 'I' for Inactive)
REMARK    1  A    between atoms: C_1  and  C_2
REMARK    2  A    between atoms: C_4  and  C_5
REMARK    3  A    between atoms: C_7  and  N_8
REMARK    4  A    between atoms: C_10  and  C_11
REMARK    5  A    between atoms: C_13  and  N_14
REMARK    6  A    between atoms: C_15  and  C_17
REMARK    7  A    between atoms: N_26  and  C_27
REMARK                            x       y       z     vdW  Elec       q    Type
REMARK                         _______ _______ _______ _____ _____    ______ ____
ROOT
ATOM      1  N   UNL     1      -0.106   9.933  20.558  0.00  0.00    +0.000 N 
ATOM      2  C   UNL     1       1.000   8.995  20.589  0.00  0.00    +0.000 C 
ATOM      3  O   UNL     1       1.383   8.735  21.719  0.00  0.00    +0.000 OA
ATOM      4  H   UNL     1      -0.467  10.263  21.429  0.00  0.00    +0.000 HD
ENDROOT
BRANCH   2   5
ATOM      5  C   UNL     1       1.740   8.416  19.297  0.00  0.00    +0.000 A 
ATOM      6  C   UNL     1       2.102   8.973  18.022  0.00  0.00    +0.000 A 
ATOM      7  C   UNL     1       3.174   8.148  17.566  0.00  0.00    +0.000 A 
ATOM      8  C   UNL     1       3.406   6.744  17.795  0.00  0.00    +0.000 A 
ATOM      9  C   UNL     1       2.879   6.163  18.907  0.00  0.00    +0.000 A 
ATOM     10  C   UNL     1       2.133   6.994  19.647  0.00  0.00    +0.000 A 
ATOM     11  O   UNL     1       1.708   6.324  20.829  0.00  0.00    +0.000 OA
ATOM     12  C   UNL     1       2.182   4.953  20.696  0.00  0.00    +0.000 A 
ATOM     13  O   UNL     1       1.938   4.031  21.488  0.00  0.00    +0.000 OA
ATOM     14  N   UNL     1       2.920   4.890  19.534  0.00  0.00    +0.000 N 
ATOM     15  C   UNL     1       3.428   3.674  18.869  0.00  0.00    +0.000 C 
ENDBRANCH   2   5
BRANCH   1  21
ATOM     16  N   UNL     1      -0.552  11.696  18.816  0.00  0.00    +0.000 N 
ATOM     17  N   UNL     1      -1.305  11.965  17.724  0.00  0.00    +0.000 NA
ATOM     18  C   UNL     1      -1.968  10.832  17.478  0.00  0.00    +0.000 A 
ATOM     19  C   UNL     1      -2.881  10.699  16.295  0.00  0.00    +0.000 C 
ATOM     20  C   UNL     1      -1.691   9.853  18.490  0.00  0.00    +0.000 A 
ATOM     21  C   UNL     1      -0.753  10.416  19.356  0.00  0.00    +0.000 A 
BRANCH  16  28
ATOM     22  C   UNL     1       3.672  14.214  18.413  0.00  0.00    +0.000 C 
ATOM     23  C   UNL     1       2.397  13.910  19.145  0.00  0.00    +0.000 A 
ATOM     24  C   UNL     1       2.046  14.624  20.302  0.00  0.00    +0.000 A 
ATOM     25  C   UNL     1       0.855  14.341  20.985  0.00  0.00    +0.000 A 
ATOM     26  C   UNL     1       0.474  15.061  22.243  0.00  0.00    +0.000 C 
ATOM     27  C   UNL     1       0.001  13.355  20.485  0.00  0.00    +0.000 A 
ATOM     28  C   UNL     1       0.352  12.640  19.333  0.00  0.00    +0.000 A 
ATOM     29  C   UNL     1       1.552  12.896  18.672  0.00  0.00    +0.000 A 
ENDBRANCH  16  28
ENDBRANCH   1  21
TORSDOF 3
ENDMDL
MODEL 9
REMARK VINA RESULT:      -8.2      5.522      8.383
REMARK  Name = 
REMARK  7 active torsions:
REMARK  status: ('A' for Active; 'I' for Inactive)
REMARK    1  A    between atoms: C_1  and  C_2
REMARK    2  A    between atoms: C_4  and  C_5
REMARK    3  A    between atoms: C_7  and  N_8
REMARK    4  A    between atoms: C_10  and  C_11
REMARK    5  A    between atoms: C_13  and  N_14
REMARK    6  A    between atoms: C_15  and  C_17
REMARK    7  A    between atoms: N_26  and  C_27
REMARK                            x       y       z     vdW  Elec       q    Type
REMARK                         _______ _______ _______ _____ _____    ______ ____
ROOT
ATOM      1  N   UNL     1      -0.835  13.502  19.010  0.00  0.00    +0.000 N 
ATOM      2  C   UNL     1      -1.072  14.621  19.902  0.00  0.00    +0.000 C 
ATOM      3  O   UNL     1      -1.317  15.665  19.316  0.00  0.00    +0.000 OA
ATOM      4  H   UNL     1      -0.909  13.662  18.027  0.00  0.00    +0.000 HD
ENDROOT
BRANCH   2   5
ATOM      5  C   UNL     1      -0.936  14.564  21.493  0.00  0.00    +0.000 A 
ATOM      6  C   UNL     1       0.081  14.977  22.421  0.00  0.00    +0.000 A 
ATOM      7  C   UNL     1      -0.614  15.145  23.657  0.00  0.00    +0.000 A 
ATOM      8  C   UNL     1      -1.760  14.433  24.164  0.00  0.00    +0.000 A 
ATOM      9  C   UNL     1      -2.618  13.855  23.280  0.00  0.00    +0.000 A 
ATOM     10  C   UNL     1      -2.239  13.979  22.000  0.00  0.00    +0.000 A 
ATOM     11  O   UNL     1      -3.242  13.429  21.154  0.00  0.00    +0.000 OA
ATOM     12  C   UNL     1      -4.239  12.854  22.047  0.00  0.00    +0.000 A 
ATOM     13  O   UNL     1      -5.233  12.205  21.687  0.00  0.00    +0.000 OA
ATOM     14  N   UNL     1      -3.853  13.156  23.334  0.00  0.00    +0.000 N 
ATOM     15  C   UNL     1      -4.425  12.617  24.583  0.00  0.00    +0.000 C 
ENDBRANCH   2   5
BRANCH   1  21
ATOM     16  N   UNL     1      -1.252  11.020  19.044  0.00  0.00    +0.000 N 
ATOM     17  N   UNL     1      -0.827   9.863  19.607  0.00  0.00    +0.000 NA
ATOM     18  C   UNL     1       0.244  10.206  20.326  0.00  0.00    +0.000 A 
ATOM     19  C   UNL     1       1.049   9.182  21.069  0.00  0.00    +0.000 C 
ATOM     20  C   UNL     1       0.449  11.626  20.285  0.00  0.00    +0.000 A 
ATOM     21  C   UNL     1      -0.522  12.154  19.433  0.00  0.00    +0.000 A 
BRANCH  16  28
ATOM     22  C   UNL     1      -5.899  12.306  17.995  0.00  0.00    +0.000 C 
ATOM     23  C   UNL     1      -4.591  11.689  17.591  0.00  0.00    +0.000 A 
ATOM     24  C   UNL     1      -4.396  11.209  16.286  0.00  0.00    +0.000 A 
ATOM     25  C   UNL     1      -3.175  10.634  15.909  0.00  0.00    +0.000 A 
ATOM     26  C   UNL     1      -2.952  10.079  14.534  0.00  0.00    +0.000 C 
ATOM     27  C   UNL     1      -2.136  10.568  16.841  0.00  0.00    +0.000 A 
ATOM     28  C   UNL     1      -2.331  11.043  18.143  0.00  0.00    +0.000 A 
ATOM     29  C   UNL     1      -3.555  11.584  18.531  0.00  0.00    +0.000 A 
ENDBRANCH  16  28
ENDBRANCH   1  21
TORSDOF 3
ENDMDL
