MODEL 1
REMARK VINA RESULT:      -7.9      0.000      0.000
REMARK  Name = 
REMARK  2 active torsions:
REMARK  status: ('A' for Active; 'I' for Inactive)
REMARK    1  A    between atoms: C_7  and  C_8
REMARK    2  A    between atoms: C_12  and  C_13
REMARK                            x       y       z     vdW  Elec       q    Type
REMARK                         _______ _______ _______ _____ _____    ______ ____
ROOT
ATOM      1  C   UNL     1       1.752  10.158  18.366  0.00  0.00    +0.000 C 
ATOM      2  O   UNL     1       2.565  10.499  17.508  0.00  0.00    +0.000 OA
ATOM      3  N   UNL     1       0.742  11.002  18.815  0.00  0.00    +0.000 N 
ATOM      4  C   UNL     1      -0.298  10.700  19.772  0.00  0.00    +0.000 C 
ATOM      5  C   UNL     1      -1.401  11.734  19.563  0.00  0.00    +0.000 C 
ATOM      6  C   UNL     1      -0.751  12.865  18.722  0.00  0.00    +0.000 C 
ATOM      7  C   UNL     1      -0.626  14.260  19.323  0.00  0.00    +0.000 C 
ATOM      8  C   UNL     1       0.674  14.247  20.104  0.00  0.00    +0.000 C 
ATOM      9  C   UNL     1       1.590  13.279  19.361  0.00  0.00    +0.000 C 
ATOM     10  C   UNL     1       0.697  12.410  18.456  0.00  0.00    +0.000 C 
ENDROOT
BRANCH   1  17
ATOM     11  O   UNL     1       2.912   2.743  20.374  0.00  0.00    +0.000 OA
ATOM     12  C   UNL     1       2.889   3.875  19.893  0.00  0.00    +0.000 C 
ATOM     13  C   UNL     1       3.683   4.248  18.666  0.00  0.00    +0.000 C 
ATOM     14  C   UNL     1       2.973   5.293  17.822  0.00  0.00    +0.000 C 
ATOM     15  C   UNL     1       2.464   6.420  18.672  0.00  0.00    +0.000 A 
ATOM     16  C   UNL     1       2.263   7.687  18.120  0.00  0.00    +0.000 A 
ATOM     17  C   UNL     1       1.844   8.763  18.910  0.00  0.00    +0.000 A 
ATOM     18  C   UNL     1       1.467   8.515  20.236  0.00  0.00    +0.000 A 
ATOM     19  C   UNL     1       1.574   7.224  20.772  0.00  0.00    +0.000 A 
ATOM     20  C   UNL     1       2.101   6.191  19.998  0.00  0.00    +0.000 A 
ATOM     21  N   UNL     1       2.233   4.904  20.528  0.00  0.00    +0.000 N 
ATOM     22  H   UNL     1       1.819   4.676  21.419  0.00  0.00    +0.000 HD
ENDBRANCH   1  17
BRANCH   5  23
ATOM     23  C   UNL     1      -2.153  12.132  20.817  0.00  0.00    +0.000 A 
ATOM     24  C   UNL     1      -3.441  12.695  20.798  0.00  0.00    +0.000 A 
ATOM     25  C   UNL     1      -4.125  12.974  21.980  0.00  0.00    +0.000 A 
ATOM     26  C   UNL     1      -3.533  12.696  23.206  0.00  0.00    +0.000 A 
ATOM     27  C   UNL     1      -2.247  12.163  23.247  0.00  0.00    +0.000 A 
ATOM     28  C   UNL     1      -1.561  11.887  22.065  0.00  0.00    +0.000 A 
ENDBRANCH   5  23
TORSDOF 2
ENDMDL
MODEL 2
REMARK VINA RESULT:      -7.8      1.880      2.943
REMARK  Name = 
REMARK  2 active torsions:
REMARK  status: ('A' for Active; 'I' for Inactive)
REMARK    1  A    between atoms: C_7  and  C_8
REMARK    2  A    between atoms: C_12  and  C_13
REMARK                            x       y       z     vdW  Elec       q    Type
REMARK                         _______ _______ _______ _____ _____    ______ ____
ROOT
ATOM      1  C   UNL     1       0.678  12.377  20.302  0.00  0.00    +0.000 C 
ATOM      2  O   UNL     1       1.536  13.114  19.818  0.00  0.00    +0.000 OA
ATOM      3  N   UNL     1      -0.538  12.857  20.776  0.00  0.00    +0.000 N 
ATOM      4  C   UNL     1      -1.639  12.091  21.314  0.00  0.00    +0.000 C 
ATOM      5  C   UNL     1      -2.876  12.980  21.232  0.00  0.00    +0.000 C 
ATOM      6  C   UNL     1      -2.335  14.417  20.997  0.00  0.00    +0.000 C 
ATOM      7  C   UNL     1      -2.587  15.488  22.051  0.00  0.00    +0.000 C 
ATOM      8  C   UNL     1      -1.454  15.345  23.049  0.00  0.00    +0.000 C 
ATOM      9  C   UNL     1      -0.257  14.849  22.244  0.00  0.00    +0.000 C 
ATOM     10  C   UNL     1      -0.802  14.280  20.921  0.00  0.00    +0.000 C 
ENDROOT
BRANCH   1  17
ATOM     11  O   UNL     1       2.622   4.890  19.569  0.00  0.00    +0.000 OA
ATOM     12  C   UNL     1       2.439   6.105  19.491  0.00  0.00    +0.000 C 
ATOM     13  C   UNL     1       2.941   6.924  18.328  0.00  0.00    +0.000 C 
ATOM     14  C   UNL     1       2.017   8.088  18.009  0.00  0.00    +0.000 C 
ATOM     15  C   UNL     1       1.635   8.834  19.253  0.00  0.00    +0.000 A 
ATOM     16  C   UNL     1       1.257  10.176  19.185  0.00  0.00    +0.000 A 
ATOM     17  C   UNL     1       0.955  10.904  20.341  0.00  0.00    +0.000 A 
ATOM     18  C   UNL     1       0.874  10.220  21.562  0.00  0.00    +0.000 A 
ATOM     19  C   UNL     1       1.159   8.848  21.625  0.00  0.00    +0.000 A 
ATOM     20  C   UNL     1       1.569   8.170  20.477  0.00  0.00    +0.000 A 
ATOM     21  N   UNL     1       1.876   6.807  20.531  0.00  0.00    +0.000 N 
ATOM     22  H   UNL     1       1.668   6.271  21.360  0.00  0.00    +0.000 HD
ENDBRANCH   1  17
BRANCH   5  23
ATOM     23  C   UNL     1      -3.885  12.782  22.344  0.00  0.00    +0.000 A 
ATOM     24  C   UNL     1      -3.526  12.439  23.660  0.00  0.00    +0.000 A 
ATOM     25  C   UNL     1      -4.484  12.343  24.668  0.00  0.00    +0.000 A 
ATOM     26  C   UNL     1      -5.821  12.586  24.380  0.00  0.00    +0.000 A 
ATOM     27  C   UNL     1      -6.201  12.901  23.078  0.00  0.00    +0.000 A 
ATOM     28  C   UNL     1      -5.244  12.993  22.068  0.00  0.00    +0.000 A 
ENDBRANCH   5  23
TORSDOF 2
ENDMDL
MODEL 3
REMARK VINA RESULT:      -7.7      2.037      3.301
REMARK  Name = 
REMARK  2 active torsions:
REMARK  status: ('A' for Active; 'I' for Inactive)
REMARK    1  A    between atoms: C_7  and  C_8
REMARK    2  A    between atoms: C_12  and  C_13
REMARK                            x       y       z     vdW  Elec       q    Type
REMARK                         _______ _______ _______ _____ _____    ______ ____
ROOT
ATOM      1  C   UNL     1       1.452   9.099  21.401  0.00  0.00    +0.000 C 
ATOM      2  O   UNL     1       2.176   9.267  22.382  0.00  0.00    +0.000 OA
ATOM      3  N   UNL     1       0.457  10.002  21.045  0.00  0.00    +0.000 N 
ATOM      4  C   UNL     1      -0.416   9.942  19.894  0.00  0.00    +0.000 C 
ATOM      5  C   UNL     1      -0.964  11.351  19.684  0.00  0.00    +0.000 C 
ATOM      6  C   UNL     1      -0.673  12.107  21.008  0.00  0.00    +0.000 C 
ATOM      7  C   UNL     1      -1.840  12.614  21.847  0.00  0.00    +0.000 C 
ATOM      8  C   UNL     1      -2.238  11.447  22.731  0.00  0.00    +0.000 C 
ATOM      9  C   UNL     1      -0.951  10.669  22.987  0.00  0.00    +0.000 C 
ATOM     10  C   UNL     1       0.065  11.100  21.913  0.00  0.00    +0.000 C 
ENDROOT
BRANCH   1  17
ATOM     11  O   UNL     1       2.017   2.318  17.651  0.00  0.00    +0.000 OA
ATOM     12  C   UNL     1       1.771   3.282  18.376  0.00  0.00    +0.000 C 
ATOM     13  C   UNL     1       0.848   3.182  19.565  0.00  0.00    +0.000 C 
ATOM     14  C   UNL     1       1.269   4.107  20.694  0.00  0.00    +0.000 C 
ATOM     15  C   UNL     1       1.574   5.484  20.181  0.00  0.00    +0.000 A 
ATOM     16  C   UNL     1       1.468   6.592  21.025  0.00  0.00    +0.000 A 
ATOM     17  C   UNL     1       1.691   7.889  20.549  0.00  0.00    +0.000 A 
ATOM     18  C   UNL     1       2.187   8.050  19.248  0.00  0.00    +0.000 A 
ATOM     19  C   UNL     1       2.388   6.933  18.424  0.00  0.00    +0.000 A 
ATOM     20  C   UNL     1       2.051   5.660  18.884  0.00  0.00    +0.000 A 
ATOM     21  N   UNL     1       2.227   4.541  18.064  0.00  0.00    +0.000 N 
ATOM     22  H   UNL     1       2.729   4.622  17.193  0.00  0.00    +0.000 HD
ENDBRANCH   1  17
BRANCH   5  23
ATOM     23  C   UNL     1      -2.373  11.416  19.131  0.00  0.00    +0.000 A 
ATOM     24  C   UNL     1      -3.332  12.347  19.568  0.00  0.00    +0.000 A 
ATOM     25  C   UNL     1      -4.591  12.419  18.976  0.00  0.00    +0.000 A 
ATOM     26  C   UNL     1      -4.918  11.559  17.934  0.00  0.00    +0.000 A 
ATOM     27  C   UNL     1      -3.993  10.612  17.504  0.00  0.00    +0.000 A 
ATOM     28  C   UNL     1      -2.734  10.536  18.099  0.00  0.00    +0.000 A 
ENDBRANCH   5  23
TORSDOF 2
ENDMDL
MODEL 4
REMARK VINA RESULT:      -7.7      2.660      5.141
REMARK  Name = 
REMARK  2 active torsions:
REMARK  status: ('A' for Active; 'I' for Inactive)
REMARK    1  A    between atoms: C_7  and  C_8
REMARK    2  A    between atoms: C_12  and  C_13
REMARK                            x       y       z     vdW  Elec       q    Type
REMARK                         _______ _______ _______ _____ _____    ______ ____
ROOT
ATOM      1  C   UNL     1      -0.090  12.013  20.623  0.00  0.00    +0.000 C 
ATOM      2  O   UNL     1      -1.293  12.117  20.855  0.00  0.00    +0.000 OA
ATOM      3  N   UNL     1       0.747  13.118  20.510  0.00  0.00    +0.000 N 
ATOM      4  C   UNL     1       2.176  13.123  20.293  0.00  0.00    +0.000 C 
ATOM      5  C   UNL     1       2.681  14.497  20.723  0.00  0.00    +0.000 C 
ATOM      6  C   UNL     1       1.416  15.393  20.808  0.00  0.00    +0.000 C 
ATOM      7  C   UNL     1       1.287  16.589  19.873  0.00  0.00    +0.000 C 
ATOM      8  C   UNL     1       0.676  16.040  18.597  0.00  0.00    +0.000 C 
ATOM      9  C   UNL     1      -0.214  14.880  19.035  0.00  0.00    +0.000 C 
ATOM     10  C   UNL     1       0.228  14.475  20.453  0.00  0.00    +0.000 C 
ENDROOT
BRANCH   1  17
ATOM     11  O   UNL     1       3.306   5.207  19.040  0.00  0.00    +0.000 OA
ATOM     12  C   UNL     1       2.871   6.357  19.095  0.00  0.00    +0.000 C 
ATOM     13  C   UNL     1       3.114   7.365  18.000  0.00  0.00    +0.000 C 
ATOM     14  C   UNL     1       1.950   8.330  17.844  0.00  0.00    +0.000 C 
ATOM     15  C   UNL     1       1.507   8.863  19.175  0.00  0.00    +0.000 A 
ATOM     16  C   UNL     1       0.856  10.095  19.261  0.00  0.00    +0.000 A 
ATOM     17  C   UNL     1       0.488  10.635  20.499  0.00  0.00    +0.000 A 
ATOM     18  C   UNL     1       0.632   9.843  21.646  0.00  0.00    +0.000 A 
ATOM     19  C   UNL     1       1.198   8.563  21.555  0.00  0.00    +0.000 A 
ATOM     20  C   UNL     1       1.661   8.092  20.326  0.00  0.00    +0.000 A 
ATOM     21  N   UNL     1       2.246   6.826  20.226  0.00  0.00    +0.000 N 
ATOM     22  H   UNL     1       2.210   6.186  21.005  0.00  0.00    +0.000 HD
ENDBRANCH   1  17
BRANCH   5  23
ATOM     23  C   UNL     1       3.863  15.022  19.933  0.00  0.00    +0.000 A 
ATOM     24  C   UNL     1       4.799  15.931  20.457  0.00  0.00    +0.000 A 
ATOM     25  C   UNL     1       5.914  16.326  19.719  0.00  0.00    +0.000 A 
ATOM     26  C   UNL     1       6.113  15.821  18.440  0.00  0.00    +0.000 A 
ATOM     27  C   UNL     1       5.184  14.941  17.892  0.00  0.00    +0.000 A 
ATOM     28  C   UNL     1       4.066  14.548  18.628  0.00  0.00    +0.000 A 
ENDBRANCH   5  23
TORSDOF 2
ENDMDL
MODEL 5
REMARK VINA RESULT:      -7.5      2.468      7.992
REMARK  Name = 
REMARK  2 active torsions:
REMARK  status: ('A' for Active; 'I' for Inactive)
REMARK    1  A    between atoms: C_7  and  C_8
REMARK    2  A    between atoms: C_12  and  C_13
REMARK                            x       y       z     vdW  Elec       q    Type
REMARK                         _______ _______ _______ _____ _____    ______ ____
ROOT
ATOM      1  C   UNL     1       1.935   9.425  18.039  0.00  0.00    +0.000 C 
ATOM      2  O   UNL     1       2.717  10.175  17.456  0.00  0.00    +0.000 OA
ATOM      3  N   UNL     1       2.324   8.190  18.547  0.00  0.00    +0.000 N 
ATOM      4  C   UNL     1       1.517   7.250  19.291  0.00  0.00    +0.000 C 
ATOM      5  C   UNL     1       2.483   6.321  20.020  0.00  0.00    +0.000 C 
ATOM      6  C   UNL     1       3.858   6.534  19.330  0.00  0.00    +0.000 C 
ATOM      7  C   UNL     1       4.509   5.368  18.597  0.00  0.00    +0.000 C 
ATOM      8  C   UNL     1       3.928   5.397  17.196  0.00  0.00    +0.000 C 
ATOM      9  C   UNL     1       3.643   6.867  16.900  0.00  0.00    +0.000 C 
ATOM     10  C   UNL     1       3.623   7.608  18.250  0.00  0.00    +0.000 C 
ENDROOT
BRANCH   1  17
ATOM     11  O   UNL     1      -4.964  12.588  19.700  0.00  0.00    +0.000 OA
ATOM     12  C   UNL     1      -3.785  12.260  19.567  0.00  0.00    +0.000 C 
ATOM     13  C   UNL     1      -2.664  12.969  20.284  0.00  0.00    +0.000 C 
ATOM     14  C   UNL     1      -1.523  12.027  20.632  0.00  0.00    +0.000 C 
ATOM     15  C   UNL     1      -1.148  11.174  19.456  0.00  0.00    +0.000 A 
ATOM     16  C   UNL     1       0.138  10.640  19.351  0.00  0.00    +0.000 A 
ATOM     17  C   UNL     1       0.524   9.892  18.233  0.00  0.00    +0.000 A 
ATOM     18  C   UNL     1      -0.453   9.540  17.293  0.00  0.00    +0.000 A 
ATOM     19  C   UNL     1      -1.773   9.992  17.440  0.00  0.00    +0.000 A 
ATOM     20  C   UNL     1      -2.106  10.832  18.503  0.00  0.00    +0.000 A 
ATOM     21  N   UNL     1      -3.413  11.306  18.650  0.00  0.00    +0.000 N 
ATOM     22  H   UNL     1      -4.156  10.934  18.077  0.00  0.00    +0.000 HD
ENDBRANCH   1  17
BRANCH   5  23
ATOM     23  C   UNL     1       1.997   4.897  20.196  0.00  0.00    +0.000 A 
ATOM     24  C   UNL     1       1.275   4.201  19.210  0.00  0.00    +0.000 A 
ATOM     25  C   UNL     1       0.915   2.866  19.386  0.00  0.00    +0.000 A 
ATOM     26  C   UNL     1       1.269   2.200  20.553  0.00  0.00    +0.000 A 
ATOM     27  C   UNL     1       1.960   2.879  21.553  0.00  0.00    +0.000 A 
ATOM     28  C   UNL     1       2.317   4.216  21.379  0.00  0.00    +0.000 A 
ENDBRANCH   5  23
TORSDOF 2
ENDMDL
MODEL 6
REMARK VINA RESULT:      -7.4      1.120      1.672
REMARK  Name = 
REMARK  2 active torsions:
REMARK  status: ('A' for Active; 'I' for Inactive)
REMARK    1  A    between atoms: C_7  and  C_8
REMARK    2  A    between atoms: C_12  and  C_13
REMARK                            x       y       z     vdW  Elec       q    Type
REMARK                         _______ _______ _______ _____ _____    ______ ____
ROOT
ATOM      1  C   UNL     1       1.153  11.327  19.141  0.00  0.00    +0.000 C 
ATOM      2  O   UNL     1       1.975  11.876  18.408  0.00  0.00    +0.000 OA
ATOM      3  N   UNL     1       0.026  11.984  19.622  0.00  0.00    +0.000 N 
ATOM      4  C   UNL     1      -1.032  11.435  20.440  0.00  0.00    +0.000 C 
ATOM      5  C   UNL     1      -2.231  12.367  20.292  0.00  0.00    +0.000 C 
ATOM      6  C   UNL     1      -1.664  13.673  19.674  0.00  0.00    +0.000 C 
ATOM      7  C   UNL     1      -1.739  14.968  20.474  0.00  0.00    +0.000 C 
ATOM      8  C   UNL     1      -0.499  14.975  21.347  0.00  0.00    +0.000 C 
ATOM      9  C   UNL     1       0.568  14.230  20.551  0.00  0.00    +0.000 C 
ATOM     10  C   UNL     1      -0.158  13.417  19.463  0.00  0.00    +0.000 C 
ENDROOT
BRANCH   1  17
ATOM     11  O   UNL     1       3.003   3.848  20.142  0.00  0.00    +0.000 OA
ATOM     12  C   UNL     1       2.879   5.030  19.823  0.00  0.00    +0.000 C 
ATOM     13  C   UNL     1       3.669   5.650  18.699  0.00  0.00    +0.000 C 
ATOM     14  C   UNL     1       2.883   6.733  17.978  0.00  0.00    +0.000 C 
ATOM     15  C   UNL     1       2.234   7.671  18.952  0.00  0.00    +0.000 A 
ATOM     16  C   UNL     1       1.922   8.978  18.575  0.00  0.00    +0.000 A 
ATOM     17  C   UNL     1       1.370   9.884  19.487  0.00  0.00    +0.000 A 
ATOM     18  C   UNL     1       0.978   9.412  20.747  0.00  0.00    +0.000 A 
ATOM     19  C   UNL     1       1.200   8.074  21.102  0.00  0.00    +0.000 A 
ATOM     20  C   UNL     1       1.855   7.219  20.215  0.00  0.00    +0.000 A 
ATOM     21  N   UNL     1       2.101   5.888  20.565  0.00  0.00    +0.000 N 
ATOM     22  H   UNL     1       1.685   5.495  21.396  0.00  0.00    +0.000 HD
ENDBRANCH   1  17
BRANCH   5  23
ATOM     23  C   UNL     1      -3.104  12.492  21.524  0.00  0.00    +0.000 A 
ATOM     24  C   UNL     1      -2.628  12.285  22.831  0.00  0.00    +0.000 A 
ATOM     25  C   UNL     1      -3.448  12.487  23.939  0.00  0.00    +0.000 A 
ATOM     26  C   UNL     1      -4.763  12.901  23.762  0.00  0.00    +0.000 A 
ATOM     27  C   UNL     1      -5.262  13.086  22.476  0.00  0.00    +0.000 A 
ATOM     28  C   UNL     1      -4.443  12.879  21.366  0.00  0.00    +0.000 A 
ENDBRANCH   5  23
TORSDOF 2
ENDMDL
MODEL 7
REMARK VINA RESULT:      -7.4      6.781     10.348
REMARK  Name = 
REMARK  2 active torsions:
REMARK  status: ('A' for Active; 'I' for Inactive)
REMARK    1  A    between atoms: C_7  and  C_8
REMARK    2  A    between atoms: C_12  and  C_13
REMARK                            x       y       z     vdW  Elec       q    Type
REMARK                         _______ _______ _______ _____ _____    ______ ____
ROOT
ATOM      1  C   UNL     1       5.926  16.587  19.327  0.00  0.00    +0.000 C 
ATOM      2  O   UNL     1       5.688  17.786  19.461  0.00  0.00    +0.000 OA
ATOM      3  N   UNL     1       7.203  16.058  19.482  0.00  0.00    +0.000 N 
ATOM      4  C   UNL     1       7.597  14.669  19.403  0.00  0.00    +0.000 C 
ATOM      5  C   UNL     1       8.946  14.554  20.106  0.00  0.00    +0.000 C 
ATOM      6  C   UNL     1       9.473  16.009  20.225  0.00  0.00    +0.000 C 
ATOM      7  C   UNL     1      10.756  16.397  19.500  0.00  0.00    +0.000 C 
ATOM      8  C   UNL     1      10.325  16.786  18.098  0.00  0.00    +0.000 C 
ATOM      9  C   UNL     1       8.923  17.368  18.247  0.00  0.00    +0.000 C 
ATOM     10  C   UNL     1       8.378  16.904  19.610  0.00  0.00    +0.000 C 
ENDROOT
BRANCH   1  17
ATOM     11  O   UNL     1      -0.271  11.930  18.795  0.00  0.00    +0.000 OA
ATOM     12  C   UNL     1       0.643  12.698  19.100  0.00  0.00    +0.000 C 
ATOM     13  C   UNL     1       0.831  13.209  20.505  0.00  0.00    +0.000 C 
ATOM     14  C   UNL     1       2.298  13.426  20.842  0.00  0.00    +0.000 C 
ATOM     15  C   UNL     1       3.000  14.171  19.745  0.00  0.00    +0.000 A 
ATOM     16  C   UNL     1       4.145  14.922  20.022  0.00  0.00    +0.000 A 
ATOM     17  C   UNL     1       4.779  15.670  19.024  0.00  0.00    +0.000 A 
ATOM     18  C   UNL     1       4.347  15.523  17.699  0.00  0.00    +0.000 A 
ATOM     19  C   UNL     1       3.257  14.694  17.398  0.00  0.00    +0.000 A 
ATOM     20  C   UNL     1       2.570  14.048  18.426  0.00  0.00    +0.000 A 
ATOM     21  N   UNL     1       1.469  13.235  18.141  0.00  0.00    +0.000 N 
ATOM     22  H   UNL     1       1.248  12.993  17.186  0.00  0.00    +0.000 HD
ENDBRANCH   1  17
BRANCH   5  23
ATOM     23  C   UNL     1       9.882  13.511  19.531  0.00  0.00    +0.000 A 
ATOM     24  C   UNL     1       9.872  13.125  18.179  0.00  0.00    +0.000 A 
ATOM     25  C   UNL     1      10.804  12.217  17.679  0.00  0.00    +0.000 A 
ATOM     26  C   UNL     1      11.766  11.676  18.522  0.00  0.00    +0.000 A 
ATOM     27  C   UNL     1      11.778  12.024  19.871  0.00  0.00    +0.000 A 
ATOM     28  C   UNL     1      10.843  12.929  20.372  0.00  0.00    +0.000 A 
ENDBRANCH   5  23
TORSDOF 2
ENDMDL
MODEL 8
REMARK VINA RESULT:      -7.3      2.247      4.550
REMARK  Name = 
REMARK  2 active torsions:
REMARK  status: ('A' for Active; 'I' for Inactive)
REMARK    1  A    between atoms: C_7  and  C_8
REMARK    2  A    between atoms: C_12  and  C_13
REMARK                            x       y       z     vdW  Elec       q    Type
REMARK                         _______ _______ _______ _____ _____    ______ ____
ROOT
ATOM      1  C   UNL     1       0.227  10.404  19.614  0.00  0.00    +0.000 C 
ATOM      2  O   UNL     1      -0.960  10.137  19.796  0.00  0.00    +0.000 OA
ATOM      3  N   UNL     1       0.741  11.683  19.796  0.00  0.00    +0.000 N 
ATOM      4  C   UNL     1       2.116  12.107  19.665  0.00  0.00    +0.000 C 
ATOM      5  C   UNL     1       2.242  13.429  20.417  0.00  0.00    +0.000 C 
ATOM      6  C   UNL     1       0.786  13.922  20.628  0.00  0.00    +0.000 C 
ATOM      7  C   UNL     1       0.340  15.226  19.977  0.00  0.00    +0.000 C 
ATOM      8  C   UNL     1      -0.111  14.844  18.579  0.00  0.00    +0.000 C 
ATOM      9  C   UNL     1      -0.660  13.426  18.698  0.00  0.00    +0.000 C 
ATOM     10  C   UNL     1      -0.119  12.836  20.014  0.00  0.00    +0.000 C 
ENDROOT
BRANCH   1  17
ATOM     11  O   UNL     1       4.497   4.043  18.322  0.00  0.00    +0.000 OA
ATOM     12  C   UNL     1       3.705   4.916  18.678  0.00  0.00    +0.000 C 
ATOM     13  C   UNL     1       2.696   4.692  19.775  0.00  0.00    +0.000 C 
ATOM     14  C   UNL     1       2.419   5.961  20.564  0.00  0.00    +0.000 C 
ATOM     15  C   UNL     1       2.184   7.126  19.650  0.00  0.00    +0.000 A 
ATOM     16  C   UNL     1       1.426   8.219  20.078  0.00  0.00    +0.000 A 
ATOM     17  C   UNL     1       1.147   9.288  19.219  0.00  0.00    +0.000 A 
ATOM     18  C   UNL     1       1.780   9.328  17.970  0.00  0.00    +0.000 A 
ATOM     19  C   UNL     1       2.621   8.280  17.569  0.00  0.00    +0.000 A 
ATOM     20  C   UNL     1       2.793   7.170  18.397  0.00  0.00    +0.000 A 
ATOM     21  N   UNL     1       3.612   6.109  18.000  0.00  0.00    +0.000 N 
ATOM     22  H   UNL     1       4.197   6.196  17.182  0.00  0.00    +0.000 HD
ENDBRANCH   1  17
BRANCH   5  23
ATOM     23  C   UNL     1       3.239  14.408  19.831  0.00  0.00    +0.000 A 
ATOM     24  C   UNL     1       3.906  15.381  20.595  0.00  0.00    +0.000 A 
ATOM     25  C   UNL     1       4.872  16.210  20.026  0.00  0.00    +0.000 A 
ATOM     26  C   UNL     1       5.190  16.081  18.679  0.00  0.00    +0.000 A 
ATOM     27  C   UNL     1       4.522  15.142  17.898  0.00  0.00    +0.000 A 
ATOM     28  C   UNL     1       3.552  14.316  18.466  0.00  0.00    +0.000 A 
ENDBRANCH   5  23
TORSDOF 2
ENDMDL
MODEL 9
REMARK VINA RESULT:      -7.3      6.234      9.758
REMARK  Name = 
REMARK  2 active torsions:
REMARK  status: ('A' for Active; 'I' for Inactive)
REMARK    1  A    between atoms: C_7  and  C_8
REMARK    2  A    between atoms: C_12  and  C_13
REMARK                            x       y       z     vdW  Elec       q    Type
REMARK                         _______ _______ _______ _____ _____    ______ ____
ROOT
ATOM      1  C   UNL     1      -6.354  13.227  22.311  0.00  0.00    +0.000 C 
ATOM      2  O   UNL     1      -7.496  13.294  22.764  0.00  0.00    +0.000 OA
ATOM      3  N   UNL     1      -6.083  12.731  21.040  0.00  0.00    +0.000 N 
ATOM      4  C   UNL     1      -4.800  12.651  20.380  0.00  0.00    +0.000 C 
ATOM      5  C   UNL     1      -5.081  12.508  18.887  0.00  0.00    +0.000 C 
ATOM      6  C   UNL     1      -6.577  12.107  18.787  0.00  0.00    +0.000 C 
ATOM      7  C   UNL     1      -6.945  10.751  18.198  0.00  0.00    +0.000 C 
ATOM      8  C   UNL     1      -6.878   9.776  19.358  0.00  0.00    +0.000 C 
ATOM      9  C   UNL     1      -7.260  10.582  20.595  0.00  0.00    +0.000 C 
ATOM     10  C   UNL     1      -7.100  12.071  20.237  0.00  0.00    +0.000 C 
ENDROOT
BRANCH   1  17
ATOM     11  O   UNL     1      -0.944  16.846  26.552  0.00  0.00    +0.000 OA
ATOM     12  C   UNL     1      -1.897  16.484  25.863  0.00  0.00    +0.000 C 
ATOM     13  C   UNL     1      -2.905  17.457  25.304  0.00  0.00    +0.000 C 
ATOM     14  C   UNL     1      -3.446  17.006  23.957  0.00  0.00    +0.000 C 
ATOM     15  C   UNL     1      -3.841  15.559  23.989  0.00  0.00    +0.000 A 
ATOM     16  C   UNL     1      -4.805  15.070  23.105  0.00  0.00    +0.000 A 
ATOM     17  C   UNL     1      -5.228  13.737  23.159  0.00  0.00    +0.000 A 
ATOM     18  C   UNL     1      -4.549  12.852  24.007  0.00  0.00    +0.000 A 
ATOM     19  C   UNL     1      -3.513  13.315  24.831  0.00  0.00    +0.000 A 
ATOM     20  C   UNL     1      -3.186  14.672  24.841  0.00  0.00    +0.000 A 
ATOM     21  N   UNL     1      -2.170  15.150  25.673  0.00  0.00    +0.000 N 
ATOM     22  H   UNL     1      -1.569  14.505  26.165  0.00  0.00    +0.000 HD
ENDBRANCH   1  17
BRANCH   5  23
ATOM     23  C   UNL     1      -4.075  11.672  18.122  0.00  0.00    +0.000 A 
ATOM     24  C   UNL     1      -2.985  11.026  18.732  0.00  0.00    +0.000 A 
ATOM     25  C   UNL     1      -2.130  10.204  18.000  0.00  0.00    +0.000 A 
ATOM     26  C   UNL     1      -2.348  10.012  16.641  0.00  0.00    +0.000 A 
ATOM     27  C   UNL     1      -3.406  10.664  16.012  0.00  0.00    +0.000 A 
ATOM     28  C   UNL     1      -4.259  11.490  16.743  0.00  0.00    +0.000 A 
ENDBRANCH   5  23
TORSDOF 2
ENDMDL
