MODEL 1
REMARK VINA RESULT:      -9.7      0.000      0.000
REMARK  Name = 
REMARK  2 active torsions:
REMARK  status: ('A' for Active; 'I' for Inactive)
REMARK    1  A    between atoms: C_1  and  C_2
REMARK    2  A    between atoms: C_7  and  C_8
REMARK                            x       y       z     vdW  Elec       q    Type
REMARK                         _______ _______ _______ _____ _____    ______ ____
ROOT
ATOM      1  C   UNL     1       2.917   7.664  17.825  0.00  0.00    +0.000 C 
ATOM      2  O   UNL     1       3.072   8.052  16.663  0.00  0.00    +0.000 OA
ATOM      3  N   UNL     1       3.569   6.513  18.308  0.00  0.00    +0.000 N 
ATOM      4  C   UNL     1       4.514   5.849  17.395  0.00  0.00    +0.000 C 
ATOM      5  C   UNL     1       4.182   4.391  17.180  0.00  0.00    +0.000 C 
ATOM      6  S   UNL     1       4.145   3.530  18.725  0.00  0.00    +0.000 S 
ATOM      7  O   UNL     1       5.467   3.639  19.318  0.00  0.00    +0.000 OA
ATOM      8  O   UNL     1       3.593   2.216  18.464  0.00  0.00    +0.000 OA
ATOM      9  C   UNL     1       2.987   4.522  19.737  0.00  0.00    +0.000 C 
ATOM     10  C   UNL     1       2.965   3.984  21.184  0.00  0.00    +0.000 C 
ATOM     11  C   UNL     1       2.263   2.623  21.310  0.00  0.00    +0.000 C 
ATOM     12  C   UNL     1       0.874   2.575  20.670  0.00  0.00    +0.000 C 
ATOM     13  C   UNL     1       0.826   3.152  19.262  0.00  0.00    +0.000 C 
ATOM     14  C   UNL     1       1.535   4.491  19.212  0.00  0.00    +0.000 C 
ATOM     15  C   UNL     1       3.565   5.970  19.686  0.00  0.00    +0.000 C 
ENDROOT
BRANCH   1  22
ATOM     16  C   UNL     1      -1.702  11.488  22.994  0.00  0.00    +0.000 C 
ATOM     17  C   UNL     1      -0.720  10.627  22.266  0.00  0.00    +0.000 A 
ATOM     18  C   UNL     1       0.021   9.664  22.937  0.00  0.00    +0.000 A 
ATOM     19  C   UNL     1       0.877   8.865  22.195  0.00  0.00    +0.000 A 
ATOM     20  C   UNL     1       0.974   9.059  20.810  0.00  0.00    +0.000 A 
ATOM     21  C   UNL     1       1.809   8.262  20.020  0.00  0.00    +0.000 A 
ATOM     22  C   UNL     1       2.004   8.489  18.664  0.00  0.00    +0.000 A 
ATOM     23  C   UNL     1       1.222   9.471  18.062  0.00  0.00    +0.000 A 
ATOM     24  C   UNL     1       0.338  10.242  18.836  0.00  0.00    +0.000 A 
ATOM     25  C   UNL     1       0.214  10.070  20.212  0.00  0.00    +0.000 A 
ATOM     26  N   UNL     1      -0.624  10.835  20.928  0.00  0.00    +0.000 NA
ENDBRANCH   1  22
TORSDOF 1
ENDMDL
MODEL 2
REMARK VINA RESULT:      -8.7      0.809      1.518
REMARK  Name = 
REMARK  2 active torsions:
REMARK  status: ('A' for Active; 'I' for Inactive)
REMARK    1  A    between atoms: C_1  and  C_2
REMARK    2  A    between atoms: C_7  and  C_8
REMARK                            x       y       z     vdW  Elec       q    Type
REMARK                         _______ _______ _______ _____ _____    ______ ____
ROOT
ATOM      1  C   UNL     1       2.612   7.869  18.192  0.00  0.00    +0.000 C 
ATOM      2  O   UNL     1       2.625   8.405  17.079  0.00  0.00    +0.000 OA
ATOM      3  N   UNL     1       3.365   6.710  18.458  0.00  0.00    +0.000 N 
ATOM      4  C   UNL     1       4.239   6.220  17.380  0.00  0.00    +0.000 C 
ATOM      5  C   UNL     1       3.955   4.781  17.015  0.00  0.00    +0.000 C 
ATOM      6  S   UNL     1       4.122   3.739  18.435  0.00  0.00    +0.000 S 
ATOM      7  O   UNL     1       5.492   3.854  18.903  0.00  0.00    +0.000 OA
ATOM      8  O   UNL     1       3.608   2.435  18.065  0.00  0.00    +0.000 OA
ATOM      9  C   UNL     1       3.031   4.529  19.673  0.00  0.00    +0.000 C 
ATOM     10  C   UNL     1       3.188   3.819  21.036  0.00  0.00    +0.000 C 
ATOM     11  C   UNL     1       2.568   2.413  21.056  0.00  0.00    +0.000 C 
ATOM     12  C   UNL     1       1.124   2.360  20.556  0.00  0.00    +0.000 C 
ATOM     13  C   UNL     1       0.900   3.099  19.244  0.00  0.00    +0.000 C 
ATOM     14  C   UNL     1       1.535   4.474  19.295  0.00  0.00    +0.000 C 
ATOM     15  C   UNL     1       3.532   6.005  19.750  0.00  0.00    +0.000 C 
ENDROOT
BRANCH   1  22
ATOM     16  C   UNL     1      -2.061  12.069  23.011  0.00  0.00    +0.000 C 
ATOM     17  C   UNL     1      -1.269  11.476  21.889  0.00  0.00    +0.000 A 
ATOM     18  C   UNL     1      -1.222  12.090  20.645  0.00  0.00    +0.000 A 
ATOM     19  C   UNL     1      -0.428  11.516  19.663  0.00  0.00    +0.000 A 
ATOM     20  C   UNL     1       0.284  10.343  19.951  0.00  0.00    +0.000 A 
ATOM     21  C   UNL     1       1.113   9.742  18.998  0.00  0.00    +0.000 A 
ATOM     22  C   UNL     1       1.755   8.530  19.215  0.00  0.00    +0.000 A 
ATOM     23  C   UNL     1       1.661   7.978  20.491  0.00  0.00    +0.000 A 
ATOM     24  C   UNL     1       0.876   8.602  21.475  0.00  0.00    +0.000 A 
ATOM     25  C   UNL     1       0.162   9.770  21.222  0.00  0.00    +0.000 A 
ATOM     26  N   UNL     1      -0.596  10.332  22.176  0.00  0.00    +0.000 NA
ENDBRANCH   1  22
TORSDOF 1
ENDMDL
MODEL 3
REMARK VINA RESULT:      -8.3      2.426      4.372
REMARK  Name = 
REMARK  2 active torsions:
REMARK  status: ('A' for Active; 'I' for Inactive)
REMARK    1  A    between atoms: C_1  and  C_2
REMARK    2  A    between atoms: C_7  and  C_8
REMARK                            x       y       z     vdW  Elec       q    Type
REMARK                         _______ _______ _______ _____ _____    ______ ____
ROOT
ATOM      1  C   UNL     1       2.674   4.970  18.035  0.00  0.00    +0.000 C 
ATOM      2  O   UNL     1       2.083   3.886  18.073  0.00  0.00    +0.000 OA
ATOM      3  N   UNL     1       3.783   5.171  17.192  0.00  0.00    +0.000 N 
ATOM      4  C   UNL     1       4.148   4.065  16.292  0.00  0.00    +0.000 C 
ATOM      5  C   UNL     1       5.583   3.626  16.466  0.00  0.00    +0.000 C 
ATOM      6  S   UNL     1       6.681   4.989  16.206  0.00  0.00    +0.000 S 
ATOM      7  O   UNL     1       6.484   5.456  14.845  0.00  0.00    +0.000 OA
ATOM      8  O   UNL     1       8.000   4.554  16.620  0.00  0.00    +0.000 OA
ATOM      9  C   UNL     1       6.044   6.272  17.344  0.00  0.00    +0.000 C 
ATOM     10  C   UNL     1       6.809   7.596  17.121  0.00  0.00    +0.000 C 
ATOM     11  C   UNL     1       8.258   7.545  17.629  0.00  0.00    +0.000 C 
ATOM     12  C   UNL     1       8.398   7.050  19.069  0.00  0.00    +0.000 C 
ATOM     13  C   UNL     1       7.612   5.780  19.361  0.00  0.00    +0.000 C 
ATOM     14  C   UNL     1       6.196   5.899  18.834  0.00  0.00    +0.000 C 
ATOM     15  C   UNL     1       4.539   6.423  16.959  0.00  0.00    +0.000 C 
ENDROOT
BRANCH   1  22
ATOM     16  C   UNL     1      -0.059  11.195  22.092  0.00  0.00    +0.000 C 
ATOM     17  C   UNL     1       0.441  10.208  21.086  0.00  0.00    +0.000 A 
ATOM     18  C   UNL     1       0.679  10.585  19.771  0.00  0.00    +0.000 A 
ATOM     19  C   UNL     1       1.190   9.633  18.902  0.00  0.00    +0.000 A 
ATOM     20  C   UNL     1       1.437   8.334  19.369  0.00  0.00    +0.000 A 
ATOM     21  C   UNL     1       1.971   7.349  18.532  0.00  0.00    +0.000 A 
ATOM     22  C   UNL     1       2.136   6.030  18.932  0.00  0.00    +0.000 A 
ATOM     23  C   UNL     1       1.878   5.731  20.268  0.00  0.00    +0.000 A 
ATOM     24  C   UNL     1       1.393   6.726  21.134  0.00  0.00    +0.000 A 
ATOM     25  C   UNL     1       1.144   8.026  20.701  0.00  0.00    +0.000 A 
ATOM     26  N   UNL     1       0.661   8.949  21.547  0.00  0.00    +0.000 NA
ENDBRANCH   1  22
TORSDOF 1
ENDMDL
MODEL 4
REMARK VINA RESULT:      -7.8      4.579      8.565
REMARK  Name = 
REMARK  2 active torsions:
REMARK  status: ('A' for Active; 'I' for Inactive)
REMARK    1  A    between atoms: C_1  and  C_2
REMARK    2  A    between atoms: C_7  and  C_8
REMARK                            x       y       z     vdW  Elec       q    Type
REMARK                         _______ _______ _______ _____ _____    ______ ____
ROOT
ATOM      1  C   UNL     1      -0.315  10.932  19.350  0.00  0.00    +0.000 C 
ATOM      2  O   UNL     1      -1.375  10.752  18.743  0.00  0.00    +0.000 OA
ATOM      3  N   UNL     1       0.014  12.187  19.897  0.00  0.00    +0.000 N 
ATOM      4  C   UNL     1      -1.002  13.247  19.795  0.00  0.00    +0.000 C 
ATOM      5  C   UNL     1      -0.475  14.488  19.112  0.00  0.00    +0.000 C 
ATOM      6  S   UNL     1       0.945  15.108  19.966  0.00  0.00    +0.000 S 
ATOM      7  O   UNL     1       0.531  15.442  21.318  0.00  0.00    +0.000 OA
ATOM      8  O   UNL     1       1.525  16.139  19.129  0.00  0.00    +0.000 OA
ATOM      9  C   UNL     1       2.054  13.655  20.055  0.00  0.00    +0.000 C 
ATOM     10  C   UNL     1       3.289  13.993  20.920  0.00  0.00    +0.000 C 
ATOM     11  C   UNL     1       4.255  14.972  20.233  0.00  0.00    +0.000 C 
ATOM     12  C   UNL     1       4.655  14.561  18.815  0.00  0.00    +0.000 C 
ATOM     13  C   UNL     1       3.480  14.157  17.937  0.00  0.00    +0.000 C 
ATOM     14  C   UNL     1       2.571  13.194  18.676  0.00  0.00    +0.000 C 
ATOM     15  C   UNL     1       1.189  12.543  20.725  0.00  0.00    +0.000 C 
ENDROOT
BRANCH   1  22
ATOM     16  C   UNL     1       4.640   4.765  19.033  0.00  0.00    +0.000 C 
ATOM     17  C   UNL     1       3.826   6.002  18.822  0.00  0.00    +0.000 A 
ATOM     18  C   UNL     1       3.901   6.713  17.633  0.00  0.00    +0.000 A 
ATOM     19  C   UNL     1       3.082   7.822  17.482  0.00  0.00    +0.000 A 
ATOM     20  C   UNL     1       2.224   8.192  18.527  0.00  0.00    +0.000 A 
ATOM     21  C   UNL     1       1.366   9.290  18.410  0.00  0.00    +0.000 A 
ATOM     22  C   UNL     1       0.576   9.743  19.458  0.00  0.00    +0.000 A 
ATOM     23  C   UNL     1       0.553   8.974  20.619  0.00  0.00    +0.000 A 
ATOM     24  C   UNL     1       1.369   7.835  20.728  0.00  0.00    +0.000 A 
ATOM     25  C   UNL     1       2.227   7.439  19.706  0.00  0.00    +0.000 A 
ATOM     26  N   UNL     1       3.010   6.358  19.847  0.00  0.00    +0.000 NA
ENDBRANCH   1  22
TORSDOF 1
ENDMDL
MODEL 5
REMARK VINA RESULT:      -7.7      5.342      9.043
REMARK  Name = 
REMARK  2 active torsions:
REMARK  status: ('A' for Active; 'I' for Inactive)
REMARK    1  A    between atoms: C_1  and  C_2
REMARK    2  A    between atoms: C_7  and  C_8
REMARK                            x       y       z     vdW  Elec       q    Type
REMARK                         _______ _______ _______ _____ _____    ______ ____
ROOT
ATOM      1  C   UNL     1      -0.235  12.659  19.155  0.00  0.00    +0.000 C 
ATOM      2  O   UNL     1      -1.259  12.674  18.466  0.00  0.00    +0.000 OA
ATOM      3  N   UNL     1       0.343  13.849  19.636  0.00  0.00    +0.000 N 
ATOM      4  C   UNL     1      -0.378  15.102  19.358  0.00  0.00    +0.000 C 
ATOM      5  C   UNL     1       0.480  16.116  18.638  0.00  0.00    +0.000 C 
ATOM      6  S   UNL     1       1.940  16.467  19.575  0.00  0.00    +0.000 S 
ATOM      7  O   UNL     1       1.519  17.015  20.852  0.00  0.00    +0.000 OA
ATOM      8  O   UNL     1       2.812  17.250  18.722  0.00  0.00    +0.000 OA
ATOM      9  C   UNL     1       2.659  14.811  19.877  0.00  0.00    +0.000 C 
ATOM     10  C   UNL     1       3.871  14.934  20.828  0.00  0.00    +0.000 C 
ATOM     11  C   UNL     1       5.091  15.590  20.164  0.00  0.00    +0.000 C 
ATOM     12  C   UNL     1       5.486  14.965  18.825  0.00  0.00    +0.000 C 
ATOM     13  C   UNL     1       4.317  14.764  17.872  0.00  0.00    +0.000 C 
ATOM     14  C   UNL     1       3.152  14.113  18.591  0.00  0.00    +0.000 C 
ATOM     15  C   UNL     1       1.504  14.000  20.543  0.00  0.00    +0.000 C 
ENDROOT
BRANCH   1  22
ATOM     16  C   UNL     1       3.043   5.477  19.752  0.00  0.00    +0.000 C 
ATOM     17  C   UNL     1       2.561   6.840  19.367  0.00  0.00    +0.000 A 
ATOM     18  C   UNL     1       2.814   7.356  18.104  0.00  0.00    +0.000 A 
ATOM     19  C   UNL     1       2.295   8.604  17.793  0.00  0.00    +0.000 A 
ATOM     20  C   UNL     1       1.551   9.300  18.756  0.00  0.00    +0.000 A 
ATOM     21  C   UNL     1       0.992  10.552  18.478  0.00  0.00    +0.000 A 
ATOM     22  C   UNL     1       0.334  11.312  19.436  0.00  0.00    +0.000 A 
ATOM     23  C   UNL     1       0.117  10.723  20.680  0.00  0.00    +0.000 A 
ATOM     24  C   UNL     1       0.626   9.442  20.953  0.00  0.00    +0.000 A 
ATOM     25  C   UNL     1       1.364   8.723  20.016  0.00  0.00    +0.000 A 
ATOM     26  N   UNL     1       1.854   7.510  20.313  0.00  0.00    +0.000 NA
ENDBRANCH   1  22
TORSDOF 1
ENDMDL
MODEL 6
REMARK VINA RESULT:      -7.6      4.099      8.319
REMARK  Name = 
REMARK  2 active torsions:
REMARK  status: ('A' for Active; 'I' for Inactive)
REMARK    1  A    between atoms: C_1  and  C_2
REMARK    2  A    between atoms: C_7  and  C_8
REMARK                            x       y       z     vdW  Elec       q    Type
REMARK                         _______ _______ _______ _____ _____    ______ ____
ROOT
ATOM      1  C   UNL     1       0.042   8.954  21.331  0.00  0.00    +0.000 C 
ATOM      2  O   UNL     1      -0.756   8.113  21.757  0.00  0.00    +0.000 OA
ATOM      3  N   UNL     1       0.042  10.276  21.814  0.00  0.00    +0.000 N 
ATOM      4  C   UNL     1      -0.888  10.586  22.913  0.00  0.00    +0.000 C 
ATOM      5  C   UNL     1      -1.813  11.733  22.580  0.00  0.00    +0.000 C 
ATOM      6  S   UNL     1      -0.881  13.179  22.167  0.00  0.00    +0.000 S 
ATOM      7  O   UNL     1      -0.080  13.529  23.326  0.00  0.00    +0.000 OA
ATOM      8  O   UNL     1      -1.819  14.148  21.636  0.00  0.00    +0.000 OA
ATOM      9  C   UNL     1       0.248  12.594  20.851  0.00  0.00    +0.000 C 
ATOM     10  C   UNL     1       1.249  13.713  20.486  0.00  0.00    +0.000 C 
ATOM     11  C   UNL     1       0.597  14.876  19.722  0.00  0.00    +0.000 C 
ATOM     12  C   UNL     1      -0.229  14.442  18.510  0.00  0.00    +0.000 C 
ATOM     13  C   UNL     1      -1.189  13.297  18.799  0.00  0.00    +0.000 C 
ATOM     14  C   UNL     1      -0.482  12.188  19.553  0.00  0.00    +0.000 C 
ATOM     15  C   UNL     1       0.983  11.371  21.482  0.00  0.00    +0.000 C 
ENDROOT
BRANCH   1  22
ATOM     16  C   UNL     1       5.317   5.731  16.383  0.00  0.00    +0.000 C 
ATOM     17  C   UNL     1       4.365   6.086  17.482  0.00  0.00    +0.000 A 
ATOM     18  C   UNL     1       4.247   5.287  18.610  0.00  0.00    +0.000 A 
ATOM     19  C   UNL     1       3.384   5.700  19.614  0.00  0.00    +0.000 A 
ATOM     20  C   UNL     1       2.660   6.890  19.455  0.00  0.00    +0.000 A 
ATOM     21  C   UNL     1       1.795   7.354  20.451  0.00  0.00    +0.000 A 
ATOM     22  C   UNL     1       0.989   8.474  20.287  0.00  0.00    +0.000 A 
ATOM     23  C   UNL     1       1.169   9.224  19.127  0.00  0.00    +0.000 A 
ATOM     24  C   UNL     1       2.076   8.798  18.143  0.00  0.00    +0.000 A 
ATOM     25  C   UNL     1       2.814   7.625  18.275  0.00  0.00    +0.000 A 
ATOM     26  N   UNL     1       3.658   7.233  17.308  0.00  0.00    +0.000 NA
ENDBRANCH   1  22
TORSDOF 1
ENDMDL
MODEL 7
REMARK VINA RESULT:      -7.5      4.558      8.451
REMARK  Name = 
REMARK  2 active torsions:
REMARK  status: ('A' for Active; 'I' for Inactive)
REMARK    1  A    between atoms: C_1  and  C_2
REMARK    2  A    between atoms: C_7  and  C_8
REMARK                            x       y       z     vdW  Elec       q    Type
REMARK                         _______ _______ _______ _____ _____    ______ ____
ROOT
ATOM      1  C   UNL     1      -0.283  10.772  19.408  0.00  0.00    +0.000 C 
ATOM      2  O   UNL     1      -1.424  10.602  18.966  0.00  0.00    +0.000 OA
ATOM      3  N   UNL     1       0.062  11.938  20.118  0.00  0.00    +0.000 N 
ATOM      4  C   UNL     1      -1.019  12.900  20.390  0.00  0.00    +0.000 C 
ATOM      5  C   UNL     1      -0.704  14.284  19.874  0.00  0.00    +0.000 C 
ATOM      6  S   UNL     1       0.808  14.877  20.577  0.00  0.00    +0.000 S 
ATOM      7  O   UNL     1       0.628  14.930  22.018  0.00  0.00    +0.000 OA
ATOM      8  O   UNL     1       1.161  16.087  19.863  0.00  0.00    +0.000 OA
ATOM      9  C   UNL     1       2.003  13.542  20.204  0.00  0.00    +0.000 C 
ATOM     10  C   UNL     1       3.351  13.839  20.896  0.00  0.00    +0.000 C 
ATOM     11  C   UNL     1       4.113  15.008  20.252  0.00  0.00    +0.000 C 
ATOM     12  C   UNL     1       4.272  14.890  18.735  0.00  0.00    +0.000 C 
ATOM     13  C   UNL     1       2.983  14.537  18.008  0.00  0.00    +0.000 C 
ATOM     14  C   UNL     1       2.286  13.379  18.695  0.00  0.00    +0.000 C 
ATOM     15  C   UNL     1       1.344  12.254  20.789  0.00  0.00    +0.000 C 
ENDROOT
BRANCH   1  22
ATOM     16  C   UNL     1       4.619   4.584  18.816  0.00  0.00    +0.000 C 
ATOM     17  C   UNL     1       3.584   5.603  19.171  0.00  0.00    +0.000 A 
ATOM     18  C   UNL     1       2.822   5.476  20.323  0.00  0.00    +0.000 A 
ATOM     19  C   UNL     1       1.915   6.483  20.620  0.00  0.00    +0.000 A 
ATOM     20  C   UNL     1       1.790   7.577  19.752  0.00  0.00    +0.000 A 
ATOM     21  C   UNL     1       0.904   8.624  20.023  0.00  0.00    +0.000 A 
ATOM     22  C   UNL     1       0.684   9.672  19.140  0.00  0.00    +0.000 A 
ATOM     23  C   UNL     1       1.490   9.731  18.006  0.00  0.00    +0.000 A 
ATOM     24  C   UNL     1       2.425   8.713  17.750  0.00  0.00    +0.000 A 
ATOM     25  C   UNL     1       2.576   7.617  18.595  0.00  0.00    +0.000 A 
ATOM     26  N   UNL     1       3.462   6.650  18.314  0.00  0.00    +0.000 NA
ENDBRANCH   1  22
TORSDOF 1
ENDMDL
MODEL 8
REMARK VINA RESULT:      -7.2      2.188      3.837
REMARK  Name = 
REMARK  2 active torsions:
REMARK  status: ('A' for Active; 'I' for Inactive)
REMARK    1  A    between atoms: C_1  and  C_2
REMARK    2  A    between atoms: C_7  and  C_8
REMARK                            x       y       z     vdW  Elec       q    Type
REMARK                         _______ _______ _______ _____ _____    ______ ____
ROOT
ATOM      1  C   UNL     1       1.557   6.523  20.205  0.00  0.00    +0.000 C 
ATOM      2  O   UNL     1       0.992   6.392  21.296  0.00  0.00    +0.000 OA
ATOM      3  N   UNL     1       2.061   5.412  19.502  0.00  0.00    +0.000 N 
ATOM      4  C   UNL     1       1.801   4.082  20.079  0.00  0.00    +0.000 C 
ATOM      5  C   UNL     1       3.069   3.293  20.305  0.00  0.00    +0.000 C 
ATOM      6  S   UNL     1       3.966   3.117  18.790  0.00  0.00    +0.000 S 
ATOM      7  O   UNL     1       3.114   2.400  17.858  0.00  0.00    +0.000 OA
ATOM      8  O   UNL     1       5.264   2.567  19.129  0.00  0.00    +0.000 OA
ATOM      9  C   UNL     1       4.136   4.839  18.195  0.00  0.00    +0.000 C 
ATOM     10  C   UNL     1       4.768   4.844  16.785  0.00  0.00    +0.000 C 
ATOM     11  C   UNL     1       6.257   4.462  16.793  0.00  0.00    +0.000 C 
ATOM     12  C   UNL     1       7.101   5.255  17.792  0.00  0.00    +0.000 C 
ATOM     13  C   UNL     1       6.491   5.334  19.184  0.00  0.00    +0.000 C 
ATOM     14  C   UNL     1       5.026   5.716  19.102  0.00  0.00    +0.000 C 
ATOM     15  C   UNL     1       2.675   5.384  18.155  0.00  0.00    +0.000 C 
ENDROOT
BRANCH   1  22
ATOM     16  C   UNL     1       1.687  14.202  18.285  0.00  0.00    +0.000 C 
ATOM     17  C   UNL     1       1.570  12.853  18.921  0.00  0.00    +0.000 A 
ATOM     18  C   UNL     1       1.060  12.710  20.203  0.00  0.00    +0.000 A 
ATOM     19  C   UNL     1       0.931  11.427  20.714  0.00  0.00    +0.000 A 
ATOM     20  C   UNL     1       1.326  10.331  19.934  0.00  0.00    +0.000 A 
ATOM     21  C   UNL     1       1.195   9.020  20.401  0.00  0.00    +0.000 A 
ATOM     22  C   UNL     1       1.665   7.918  19.698  0.00  0.00    +0.000 A 
ATOM     23  C   UNL     1       2.162   8.145  18.416  0.00  0.00    +0.000 A 
ATOM     24  C   UNL     1       2.247   9.454  17.912  0.00  0.00    +0.000 A 
ATOM     25  C   UNL     1       1.858  10.562  18.660  0.00  0.00    +0.000 A 
ATOM     26  N   UNL     1       1.971  11.802  18.160  0.00  0.00    +0.000 NA
ENDBRANCH   1  22
TORSDOF 1
ENDMDL
MODEL 9
REMARK VINA RESULT:      -7.2      3.780      7.866
REMARK  Name = 
REMARK  2 active torsions:
REMARK  status: ('A' for Active; 'I' for Inactive)
REMARK    1  A    between atoms: C_1  and  C_2
REMARK    2  A    between atoms: C_7  and  C_8
REMARK                            x       y       z     vdW  Elec       q    Type
REMARK                         _______ _______ _______ _____ _____    ______ ____
ROOT
ATOM      1  C   UNL     1       0.772   9.396  20.964  0.00  0.00    +0.000 C 
ATOM      2  O   UNL     1       0.797   9.137  22.171  0.00  0.00    +0.000 OA
ATOM      3  N   UNL     1       0.118  10.541  20.472  0.00  0.00    +0.000 N 
ATOM      4  C   UNL     1      -0.453  11.463  21.467  0.00  0.00    +0.000 C 
ATOM      5  C   UNL     1      -1.927  11.711  21.245  0.00  0.00    +0.000 C 
ATOM      6  S   UNL     1      -2.210  12.345  19.618  0.00  0.00    +0.000 S 
ATOM      7  O   UNL     1      -1.490  13.601  19.507  0.00  0.00    +0.000 OA
ATOM      8  O   UNL     1      -3.643  12.329  19.401  0.00  0.00    +0.000 OA
ATOM      9  C   UNL     1      -1.385  11.121  18.536  0.00  0.00    +0.000 C 
ATOM     10  C   UNL     1      -1.407  11.618  17.073  0.00  0.00    +0.000 C 
ATOM     11  C   UNL     1      -2.808  11.568  16.443  0.00  0.00    +0.000 C 
ATOM     12  C   UNL     1      -3.511  10.218  16.589  0.00  0.00    +0.000 C 
ATOM     13  C   UNL     1      -3.465   9.651  18.001  0.00  0.00    +0.000 C 
ATOM     14  C   UNL     1      -2.058   9.731  18.560  0.00  0.00    +0.000 C 
ATOM     15  C   UNL     1       0.075  11.041  19.078  0.00  0.00    +0.000 C 
ENDROOT
BRANCH   1  22
ATOM     16  C   UNL     1       4.505   3.644  17.006  0.00  0.00    +0.000 C 
ATOM     17  C   UNL     1       3.757   4.514  17.965  0.00  0.00    +0.000 A 
ATOM     18  C   UNL     1       3.388   4.044  19.217  0.00  0.00    +0.000 A 
ATOM     19  C   UNL     1       2.741   4.919  20.078  0.00  0.00    +0.000 A 
ATOM     20  C   UNL     1       2.473   6.229  19.656  0.00  0.00    +0.000 A 
ATOM     21  C   UNL     1       1.842   7.150  20.498  0.00  0.00    +0.000 A 
ATOM     22  C   UNL     1       1.474   8.423  20.081  0.00  0.00    +0.000 A 
ATOM     23  C   UNL     1       1.883   8.821  18.811  0.00  0.00    +0.000 A 
ATOM     24  C   UNL     1       2.568   7.923  17.975  0.00  0.00    +0.000 A 
ATOM     25  C   UNL     1       2.853   6.618  18.367  0.00  0.00    +0.000 A 
ATOM     26  N   UNL     1       3.490   5.776  17.539  0.00  0.00    +0.000 NA
ENDBRANCH   1  22
TORSDOF 1
ENDMDL
