MODEL 1
REMARK VINA RESULT:      -8.3      0.000      0.000
REMARK  Name = 
REMARK  5 active torsions:
REMARK  status: ('A' for Active; 'I' for Inactive)
REMARK    1  A    between atoms: C_1  and  C_2
REMARK    2  A    between atoms: C_5  and  C_6
REMARK    3  A    between atoms: C_10  and  C_11
REMARK    4  A    between atoms: N_13  and  C_14
REMARK    5  A    between atoms: N_18  and  C_19
REMARK                            x       y       z     vdW  Elec       q    Type
REMARK                         _______ _______ _______ _____ _____    ______ ____
ROOT
ATOM      1  C   UNL     1       6.785   4.565  16.655  0.00  0.00    +0.000 C 
ATOM      2  O   UNL     1       7.683   4.850  17.435  0.00  0.00    +0.000 OA
ATOM      3  N   UNL     1       5.543   4.119  17.064  0.00  0.00    +0.000 N 
ATOM      4  H   UNL     1       4.835   3.902  16.373  0.00  0.00    +0.000 HD
ENDROOT
BRANCH   1   9
ATOM      5  C   UNL     1       6.293   3.972  12.949  0.00  0.00    +0.000 A 
ATOM      6  C   UNL     1       7.338   4.742  12.413  0.00  0.00    +0.000 A 
ATOM      7  C   UNL     1       8.215   5.441  13.245  0.00  0.00    +0.000 A 
ATOM      8  C   UNL     1       8.056   5.387  14.630  0.00  0.00    +0.000 A 
ATOM      9  C   UNL     1       7.014   4.634  15.184  0.00  0.00    +0.000 A 
ATOM     10  C   UNL     1       6.147   3.917  14.343  0.00  0.00    +0.000 A 
BRANCH   5  15
ATOM     11  C   UNL     1       2.682   3.566   9.794  0.00  0.00    +0.000 C 
ATOM     12  C   UNL     1       3.793   3.105  10.642  0.00  0.00    +0.000 A 
ATOM     13  N   UNL     1       4.373   1.926  10.695  0.00  0.00    +0.000 NA
ATOM     14  N   UNL     1       5.404   2.045  11.602  0.00  0.00    +0.000 NA
ATOM     15  C   UNL     1       5.381   3.288  12.041  0.00  0.00    +0.000 A 
ATOM     16  O   UNL     1       4.367   4.022  11.480  0.00  0.00    +0.000 OA
ENDBRANCH   5  15
ENDBRANCH   1   9
BRANCH   3  17
ATOM     17  C   UNL     1       5.205   3.971  18.481  0.00  0.00    +0.000 C 
ATOM     18  C   UNL     1       3.922   3.165  18.656  0.00  0.00    +0.000 C 
ATOM     19  C   UNL     1       2.842   4.220  18.571  0.00  0.00    +0.000 C 
ATOM     20  O   UNL     1       1.657   3.968  18.425  0.00  0.00    +0.000 OA
ATOM     21  N   UNL     1       3.444   5.459  18.820  0.00  0.00    +0.000 N 
ATOM     22  C   UNL     1       4.843   5.299  19.145  0.00  0.00    +0.000 C 
BRANCH  21  23
ATOM     23  C   UNL     1       2.693   6.613  19.144  0.00  0.00    +0.000 A 
ATOM     24  C   UNL     1       2.567   7.682  18.248  0.00  0.00    +0.000 A 
ATOM     25  F   UNL     1       3.176   7.654  17.053  0.00  0.00    +0.000 F 
ATOM     26  C   UNL     1       1.872   8.843  18.590  0.00  0.00    +0.000 A 
ATOM     27  C   UNL     1       1.244   8.937  19.829  0.00  0.00    +0.000 A 
ATOM     28  C   UNL     1       1.324   7.870  20.722  0.00  0.00    +0.000 A 
ATOM     29  C   UNL     1       2.054   6.729  20.385  0.00  0.00    +0.000 A 
ATOM     30  F   UNL     1       2.052   5.700  21.248  0.00  0.00    +0.000 F 
ENDBRANCH  21  23
ENDBRANCH   3  17
TORSDOF 4
ENDMDL
MODEL 2
REMARK VINA RESULT:      -8.2      0.192      1.547
REMARK  Name = 
REMARK  5 active torsions:
REMARK  status: ('A' for Active; 'I' for Inactive)
REMARK    1  A    between atoms: C_1  and  C_2
REMARK    2  A    between atoms: C_5  and  C_6
REMARK    3  A    between atoms: C_10  and  C_11
REMARK    4  A    between atoms: N_13  and  C_14
REMARK    5  A    between atoms: N_18  and  C_19
REMARK                            x       y       z     vdW  Elec       q    Type
REMARK                         _______ _______ _______ _____ _____    ______ ____
ROOT
ATOM      1  C   UNL     1       6.585   4.475  16.782  0.00  0.00    +0.000 C 
ATOM      2  O   UNL     1       7.457   4.728  17.602  0.00  0.00    +0.000 OA
ATOM      3  N   UNL     1       5.321   4.042  17.132  0.00  0.00    +0.000 N 
ATOM      4  H   UNL     1       4.638   3.853  16.409  0.00  0.00    +0.000 HD
ENDROOT
BRANCH   1   9
ATOM      5  C   UNL     1       6.244   3.951  13.048  0.00  0.00    +0.000 A 
ATOM      6  C   UNL     1       7.308   4.732  12.570  0.00  0.00    +0.000 A 
ATOM      7  C   UNL     1       8.149   5.417  13.448  0.00  0.00    +0.000 A 
ATOM      8  C   UNL     1       7.935   5.337  14.825  0.00  0.00    +0.000 A 
ATOM      9  C   UNL     1       6.873   4.572  15.322  0.00  0.00    +0.000 A 
ATOM     10  C   UNL     1       6.042   3.870  14.435  0.00  0.00    +0.000 A 
BRANCH   5  15
ATOM     11  C   UNL     1       2.719   3.588   9.793  0.00  0.00    +0.000 C 
ATOM     12  C   UNL     1       3.821   3.120  10.649  0.00  0.00    +0.000 A 
ATOM     13  N   UNL     1       4.427   1.953  10.668  0.00  0.00    +0.000 NA
ATOM     14  N   UNL     1       5.434   2.059  11.605  0.00  0.00    +0.000 NA
ATOM     15  C   UNL     1       5.370   3.283  12.092  0.00  0.00    +0.000 A 
ATOM     16  O   UNL     1       4.352   4.016  11.536  0.00  0.00    +0.000 OA
ENDBRANCH   5  15
ENDBRANCH   1   9
BRANCH   3  17
ATOM     17  C   UNL     1       4.925   3.870  18.532  0.00  0.00    +0.000 C 
ATOM     18  C   UNL     1       3.585   3.149  18.636  0.00  0.00    +0.000 C 
ATOM     19  C   UNL     1       2.584   4.279  18.555  0.00  0.00    +0.000 C 
ATOM     20  O   UNL     1       1.389   4.116  18.362  0.00  0.00    +0.000 OA
ATOM     21  N   UNL     1       3.260   5.464  18.868  0.00  0.00    +0.000 N 
ATOM     22  C   UNL     1       4.632   5.197  19.232  0.00  0.00    +0.000 C 
BRANCH  21  23
ATOM     23  C   UNL     1       2.579   6.657  19.209  0.00  0.00    +0.000 A 
ATOM     24  C   UNL     1       1.916   6.797  20.435  0.00  0.00    +0.000 A 
ATOM     25  F   UNL     1       1.890   5.791  21.322  0.00  0.00    +0.000 F 
ATOM     26  C   UNL     1       1.198   7.952  20.748  0.00  0.00    +0.000 A 
ATOM     27  C   UNL     1       1.169   9.016  19.851  0.00  0.00    +0.000 A 
ATOM     28  C   UNL     1       1.852   8.913  18.640  0.00  0.00    +0.000 A 
ATOM     29  C   UNL     1       2.536   7.738  18.321  0.00  0.00    +0.000 A 
ATOM     30  F   UNL     1       3.232   7.705  17.174  0.00  0.00    +0.000 F 
ENDBRANCH  21  23
ENDBRANCH   3  17
TORSDOF 4
ENDMDL
MODEL 3
REMARK VINA RESULT:      -8.1      4.629      7.762
REMARK  Name = 
REMARK  5 active torsions:
REMARK  status: ('A' for Active; 'I' for Inactive)
REMARK    1  A    between atoms: C_1  and  C_2
REMARK    2  A    between atoms: C_5  and  C_6
REMARK    3  A    between atoms: C_10  and  C_11
REMARK    4  A    between atoms: N_13  and  C_14
REMARK    5  A    between atoms: N_18  and  C_19
REMARK                            x       y       z     vdW  Elec       q    Type
REMARK                         _______ _______ _______ _____ _____    ______ ____
ROOT
ATOM      1  C   UNL     1       1.748   8.974  18.408  0.00  0.00    +0.000 C 
ATOM      2  O   UNL     1       2.068   9.294  17.271  0.00  0.00    +0.000 OA
ATOM      3  N   UNL     1       1.002   9.786  19.239  0.00  0.00    +0.000 N 
ATOM      4  H   UNL     1       0.762   9.467  20.169  0.00  0.00    +0.000 HD
ENDROOT
BRANCH   1   9
ATOM      5  C   UNL     1       3.830   5.857  18.933  0.00  0.00    +0.000 A 
ATOM      6  C   UNL     1       3.171   5.275  20.027  0.00  0.00    +0.000 A 
ATOM      7  C   UNL     1       2.043   5.877  20.590  0.00  0.00    +0.000 A 
ATOM      8  C   UNL     1       1.560   7.077  20.068  0.00  0.00    +0.000 A 
ATOM      9  C   UNL     1       2.209   7.679  18.984  0.00  0.00    +0.000 A 
ATOM     10  C   UNL     1       3.331   7.059  18.410  0.00  0.00    +0.000 A 
BRANCH   5  15
ATOM     11  C   UNL     1       6.962   4.457  15.558  0.00  0.00    +0.000 C 
ATOM     12  C   UNL     1       6.414   4.599  16.916  0.00  0.00    +0.000 A 
ATOM     13  N   UNL     1       6.957   4.294  18.075  0.00  0.00    +0.000 NA
ATOM     14  N   UNL     1       6.055   4.693  19.039  0.00  0.00    +0.000 NA
ATOM     15  C   UNL     1       5.024   5.212  18.402  0.00  0.00    +0.000 A 
ATOM     16  O   UNL     1       5.178   5.174  17.039  0.00  0.00    +0.000 OA
ENDBRANCH   5  15
ENDBRANCH   1   9
BRANCH   3  17
ATOM     17  C   UNL     1       0.521  11.100  18.805  0.00  0.00    +0.000 C 
ATOM     18  C   UNL     1       1.361  12.218  19.412  0.00  0.00    +0.000 C 
ATOM     19  C   UNL     1       0.681  12.474  20.738  0.00  0.00    +0.000 C 
ATOM     20  O   UNL     1       1.177  13.130  21.640  0.00  0.00    +0.000 OA
ATOM     21  N   UNL     1      -0.613  11.947  20.656  0.00  0.00    +0.000 N 
ATOM     22  C   UNL     1      -0.876  11.424  19.335  0.00  0.00    +0.000 C 
BRANCH  21  23
ATOM     23  C   UNL     1      -1.630  12.291  21.578  0.00  0.00    +0.000 A 
ATOM     24  C   UNL     1      -2.497  13.366  21.345  0.00  0.00    +0.000 A 
ATOM     25  F   UNL     1      -2.377  14.121  20.243  0.00  0.00    +0.000 F 
ATOM     26  C   UNL     1      -3.463  13.739  22.280  0.00  0.00    +0.000 A 
ATOM     27  C   UNL     1      -3.612  13.007  23.455  0.00  0.00    +0.000 A 
ATOM     28  C   UNL     1      -2.785  11.911  23.690  0.00  0.00    +0.000 A 
ATOM     29  C   UNL     1      -1.797  11.569  22.766  0.00  0.00    +0.000 A 
ATOM     30  F   UNL     1      -1.065  10.468  23.002  0.00  0.00    +0.000 F 
ENDBRANCH  21  23
ENDBRANCH   3  17
TORSDOF 4
ENDMDL
MODEL 4
REMARK VINA RESULT:      -8.0      4.399      7.279
REMARK  Name = 
REMARK  5 active torsions:
REMARK  status: ('A' for Active; 'I' for Inactive)
REMARK    1  A    between atoms: C_1  and  C_2
REMARK    2  A    between atoms: C_5  and  C_6
REMARK    3  A    between atoms: C_10  and  C_11
REMARK    4  A    between atoms: N_13  and  C_14
REMARK    5  A    between atoms: N_18  and  C_19
REMARK                            x       y       z     vdW  Elec       q    Type
REMARK                         _______ _______ _______ _____ _____    ______ ____
ROOT
ATOM      1  C   UNL     1       1.668   9.210  18.120  0.00  0.00    +0.000 C 
ATOM      2  O   UNL     1       0.612   9.155  17.505  0.00  0.00    +0.000 OA
ATOM      3  N   UNL     1       2.231  10.395  18.551  0.00  0.00    +0.000 N 
ATOM      4  H   UNL     1       3.105  10.379  19.061  0.00  0.00    +0.000 HD
ENDROOT
BRANCH   1   9
ATOM      5  C   UNL     1       4.233   6.457  17.704  0.00  0.00    +0.000 A 
ATOM      6  C   UNL     1       3.983   5.683  18.848  0.00  0.00    +0.000 A 
ATOM      7  C   UNL     1       2.976   6.035  19.748  0.00  0.00    +0.000 A 
ATOM      8  C   UNL     1       2.205   7.175  19.522  0.00  0.00    +0.000 A 
ATOM      9  C   UNL     1       2.446   7.967  18.393  0.00  0.00    +0.000 A 
ATOM     10  C   UNL     1       3.446   7.598  17.481  0.00  0.00    +0.000 A 
BRANCH   5  15
ATOM     11  C   UNL     1       6.352   4.064  14.107  0.00  0.00    +0.000 C 
ATOM     12  C   UNL     1       6.255   5.024  15.218  0.00  0.00    +0.000 A 
ATOM     13  N   UNL     1       7.120   5.929  15.620  0.00  0.00    +0.000 NA
ATOM     14  N   UNL     1       6.511   6.610  16.653  0.00  0.00    +0.000 NA
ATOM     15  C   UNL     1       5.318   6.071  16.811  0.00  0.00    +0.000 A 
ATOM     16  O   UNL     1       5.089   5.041  15.935  0.00  0.00    +0.000 OA
ENDBRANCH   5  15
ENDBRANCH   1   9
BRANCH   3  17
ATOM     17  C   UNL     1       1.585  11.688  18.311  0.00  0.00    +0.000 C 
ATOM     18  C   UNL     1       2.316  12.809  19.042  0.00  0.00    +0.000 C 
ATOM     19  C   UNL     1       1.667  12.805  20.408  0.00  0.00    +0.000 C 
ATOM     20  O   UNL     1       2.122  13.391  21.377  0.00  0.00    +0.000 OA
ATOM     21  N   UNL     1       0.440  12.142  20.288  0.00  0.00    +0.000 N 
ATOM     22  C   UNL     1       0.184  11.770  18.916  0.00  0.00    +0.000 C 
BRANCH  21  23
ATOM     23  C   UNL     1      -0.571  12.240  21.274  0.00  0.00    +0.000 A 
ATOM     24  C   UNL     1      -0.690  11.292  22.298  0.00  0.00    +0.000 A 
ATOM     25  F   UNL     1       0.144  10.244  22.366  0.00  0.00    +0.000 F 
ATOM     26  C   UNL     1      -1.721  11.358  23.237  0.00  0.00    +0.000 A 
ATOM     27  C   UNL     1      -2.631  12.410  23.196  0.00  0.00    +0.000 A 
ATOM     28  C   UNL     1      -2.509  13.386  22.208  0.00  0.00    +0.000 A 
ATOM     29  C   UNL     1      -1.497  13.289  21.251  0.00  0.00    +0.000 A 
ATOM     30  F   UNL     1      -1.378  14.283  20.356  0.00  0.00    +0.000 F 
ENDBRANCH  21  23
ENDBRANCH   3  17
TORSDOF 4
ENDMDL
MODEL 5
REMARK VINA RESULT:      -8.0      4.400      7.166
REMARK  Name = 
REMARK  5 active torsions:
REMARK  status: ('A' for Active; 'I' for Inactive)
REMARK    1  A    between atoms: C_1  and  C_2
REMARK    2  A    between atoms: C_5  and  C_6
REMARK    3  A    between atoms: C_10  and  C_11
REMARK    4  A    between atoms: N_13  and  C_14
REMARK    5  A    between atoms: N_18  and  C_19
REMARK                            x       y       z     vdW  Elec       q    Type
REMARK                         _______ _______ _______ _____ _____    ______ ____
ROOT
ATOM      1  C   UNL     1       1.654   9.214  18.109  0.00  0.00    +0.000 C 
ATOM      2  O   UNL     1       0.599   9.160  17.492  0.00  0.00    +0.000 OA
ATOM      3  N   UNL     1       2.217  10.399  18.540  0.00  0.00    +0.000 N 
ATOM      4  H   UNL     1       3.090  10.383  19.052  0.00  0.00    +0.000 HD
ENDROOT
BRANCH   1   9
ATOM      5  C   UNL     1       4.205   6.450  17.688  0.00  0.00    +0.000 A 
ATOM      6  C   UNL     1       3.966   5.686  18.841  0.00  0.00    +0.000 A 
ATOM      7  C   UNL     1       2.970   6.049  19.750  0.00  0.00    +0.000 A 
ATOM      8  C   UNL     1       2.200   7.190  19.523  0.00  0.00    +0.000 A 
ATOM      9  C   UNL     1       2.431   7.972  18.384  0.00  0.00    +0.000 A 
ATOM     10  C   UNL     1       3.420   7.591  17.464  0.00  0.00    +0.000 A 
BRANCH   5  15
ATOM     11  C   UNL     1       6.257   4.075  14.040  0.00  0.00    +0.000 C 
ATOM     12  C   UNL     1       6.187   5.013  15.172  0.00  0.00    +0.000 A 
ATOM     13  N   UNL     1       7.077   5.885  15.592  0.00  0.00    +0.000 NA
ATOM     14  N   UNL     1       6.487   6.561  16.640  0.00  0.00    +0.000 NA
ATOM     15  C   UNL     1       5.279   6.053  16.786  0.00  0.00    +0.000 A 
ATOM     16  O   UNL     1       5.022   5.047  15.889  0.00  0.00    +0.000 OA
ENDBRANCH   5  15
ENDBRANCH   1   9
BRANCH   3  17
ATOM     17  C   UNL     1       1.572  11.692  18.298  0.00  0.00    +0.000 C 
ATOM     18  C   UNL     1       2.291  12.810  19.048  0.00  0.00    +0.000 C 
ATOM     19  C   UNL     1       1.621  12.797  20.403  0.00  0.00    +0.000 C 
ATOM     20  O   UNL     1       2.060  13.378  21.383  0.00  0.00    +0.000 OA
ATOM     21  N   UNL     1       0.397  12.133  20.261  0.00  0.00    +0.000 N 
ATOM     22  C   UNL     1       0.162  11.769  18.883  0.00  0.00    +0.000 C 
BRANCH  21  23
ATOM     23  C   UNL     1      -0.629  12.222  21.232  0.00  0.00    +0.000 A 
ATOM     24  C   UNL     1      -1.548  13.278  21.233  0.00  0.00    +0.000 A 
ATOM     25  F   UNL     1      -1.473  14.256  20.318  0.00  0.00    +0.000 F 
ATOM     26  C   UNL     1      -2.524  13.395  22.224  0.00  0.00    +0.000 A 
ATOM     27  C   UNL     1      -2.629  12.422  23.214  0.00  0.00    +0.000 A 
ATOM     28  C   UNL     1      -1.748  11.342  23.211  0.00  0.00    +0.000 A 
ATOM     29  C   UNL     1      -0.751  11.255  22.238  0.00  0.00    +0.000 A 
ATOM     30  F   UNL     1       0.035  10.167  22.234  0.00  0.00    +0.000 F 
ENDBRANCH  21  23
ENDBRANCH   3  17
TORSDOF 4
ENDMDL
MODEL 6
REMARK VINA RESULT:      -8.0      4.105      6.559
REMARK  Name = 
REMARK  5 active torsions:
REMARK  status: ('A' for Active; 'I' for Inactive)
REMARK    1  A    between atoms: C_1  and  C_2
REMARK    2  A    between atoms: C_5  and  C_6
REMARK    3  A    between atoms: C_10  and  C_11
REMARK    4  A    between atoms: N_13  and  C_14
REMARK    5  A    between atoms: N_18  and  C_19
REMARK                            x       y       z     vdW  Elec       q    Type
REMARK                         _______ _______ _______ _____ _____    ______ ____
ROOT
ATOM      1  C   UNL     1       1.799   6.090  20.255  0.00  0.00    +0.000 C 
ATOM      2  O   UNL     1       1.150   5.374  21.004  0.00  0.00    +0.000 OA
ATOM      3  N   UNL     1       1.850   7.465  20.380  0.00  0.00    +0.000 N 
ATOM      4  H   UNL     1       2.409   8.008  19.734  0.00  0.00    +0.000 HD
ENDROOT
BRANCH   1   9
ATOM      5  C   UNL     1       4.492   5.597  17.640  0.00  0.00    +0.000 A 
ATOM      6  C   UNL     1       4.027   4.443  16.991  0.00  0.00    +0.000 A 
ATOM      7  C   UNL     1       2.836   3.828  17.382  0.00  0.00    +0.000 A 
ATOM      8  C   UNL     1       2.091   4.357  18.437  0.00  0.00    +0.000 A 
ATOM      9  C   UNL     1       2.543   5.501  19.105  0.00  0.00    +0.000 A 
ATOM     10  C   UNL     1       3.732   6.126  18.694  0.00  0.00    +0.000 A 
BRANCH   5  15
ATOM     11  C   UNL     1       8.232   8.620  17.818  0.00  0.00    +0.000 C 
ATOM     12  C   UNL     1       7.416   7.510  17.302  0.00  0.00    +0.000 A 
ATOM     13  N   UNL     1       7.701   6.623  16.373  0.00  0.00    +0.000 NA
ATOM     14  N   UNL     1       6.625   5.761  16.322  0.00  0.00    +0.000 NA
ATOM     15  C   UNL     1       5.759   6.183  17.222  0.00  0.00    +0.000 A 
ATOM     16  O   UNL     1       6.192   7.307  17.879  0.00  0.00    +0.000 OA
ENDBRANCH   5  15
ENDBRANCH   1   9
BRANCH   3  17
ATOM     17  C   UNL     1       1.131   8.169  21.446  0.00  0.00    +0.000 C 
ATOM     18  C   UNL     1      -0.338   8.358  21.082  0.00  0.00    +0.000 C 
ATOM     19  C   UNL     1      -0.333   9.657  20.309  0.00  0.00    +0.000 C 
ATOM     20  O   UNL     1      -1.272  10.049  19.634  0.00  0.00    +0.000 OA
ATOM     21  N   UNL     1       0.850  10.332  20.628  0.00  0.00    +0.000 N 
ATOM     22  C   UNL     1       1.605   9.611  21.626  0.00  0.00    +0.000 C 
BRANCH  21  23
ATOM     23  C   UNL     1       1.034  11.708  20.352  0.00  0.00    +0.000 A 
ATOM     24  C   UNL     1       1.718  12.142  19.210  0.00  0.00    +0.000 A 
ATOM     25  F   UNL     1       2.241  11.261  18.345  0.00  0.00    +0.000 F 
ATOM     26  C   UNL     1       1.946  13.497  18.967  0.00  0.00    +0.000 A 
ATOM     27  C   UNL     1       1.449  14.454  19.848  0.00  0.00    +0.000 A 
ATOM     28  C   UNL     1       0.733  14.047  20.972  0.00  0.00    +0.000 A 
ATOM     29  C   UNL     1       0.543  12.687  21.225  0.00  0.00    +0.000 A 
ATOM     30  F   UNL     1      -0.206  12.341  22.284  0.00  0.00    +0.000 F 
ENDBRANCH  21  23
ENDBRANCH   3  17
TORSDOF 4
ENDMDL
MODEL 7
REMARK VINA RESULT:      -8.0      4.986      8.034
REMARK  Name = 
REMARK  5 active torsions:
REMARK  status: ('A' for Active; 'I' for Inactive)
REMARK    1  A    between atoms: C_1  and  C_2
REMARK    2  A    between atoms: C_5  and  C_6
REMARK    3  A    between atoms: C_10  and  C_11
REMARK    4  A    between atoms: N_13  and  C_14
REMARK    5  A    between atoms: N_18  and  C_19
REMARK                            x       y       z     vdW  Elec       q    Type
REMARK                         _______ _______ _______ _____ _____    ______ ____
ROOT
ATOM      1  C   UNL     1       1.523   9.543  18.462  0.00  0.00    +0.000 C 
ATOM      2  O   UNL     1       2.001   9.994  17.431  0.00  0.00    +0.000 OA
ATOM      3  N   UNL     1       0.640  10.247  19.256  0.00  0.00    +0.000 N 
ATOM      4  H   UNL     1       0.271   9.821  20.097  0.00  0.00    +0.000 HD
ENDROOT
BRANCH   1   9
ATOM      5  C   UNL     1       3.060   6.083  18.493  0.00  0.00    +0.000 A 
ATOM      6  C   UNL     1       2.760   5.668  19.800  0.00  0.00    +0.000 A 
ATOM      7  C   UNL     1       2.047   6.495  20.671  0.00  0.00    +0.000 A 
ATOM      8  C   UNL     1       1.627   7.757  20.249  0.00  0.00    +0.000 A 
ATOM      9  C   UNL     1       1.926   8.194  18.953  0.00  0.00    +0.000 A 
ATOM     10  C   UNL     1       2.626   7.350  18.075  0.00  0.00    +0.000 A 
BRANCH   5  15
ATOM     11  C   UNL     1       6.109   4.934  14.952  0.00  0.00    +0.000 C 
ATOM     12  C   UNL     1       5.189   4.690  16.074  0.00  0.00    +0.000 A 
ATOM     13  N   UNL     1       4.929   3.572  16.716  0.00  0.00    +0.000 NA
ATOM     14  N   UNL     1       4.052   3.905  17.727  0.00  0.00    +0.000 NA
ATOM     15  C   UNL     1       3.837   5.202  17.631  0.00  0.00    +0.000 A 
ATOM     16  O   UNL     1       4.522   5.770  16.587  0.00  0.00    +0.000 OA
ENDBRANCH   5  15
ENDBRANCH   1   9
BRANCH   3  17
ATOM     17  C   UNL     1       0.195  11.598  18.905  0.00  0.00    +0.000 C 
ATOM     18  C   UNL     1       1.057  12.653  19.590  0.00  0.00    +0.000 C 
ATOM     19  C   UNL     1       0.370  12.839  20.924  0.00  0.00    +0.000 C 
ATOM     20  O   UNL     1       0.873  13.423  21.871  0.00  0.00    +0.000 OA
ATOM     21  N   UNL     1      -0.936  12.351  20.798  0.00  0.00    +0.000 N 
ATOM     22  C   UNL     1      -1.199  11.921  19.444  0.00  0.00    +0.000 C 
BRANCH  21  23
ATOM     23  C   UNL     1      -1.953  12.661  21.731  0.00  0.00    +0.000 A 
ATOM     24  C   UNL     1      -2.157  11.884  22.878  0.00  0.00    +0.000 A 
ATOM     25  F   UNL     1      -1.402  10.803  23.120  0.00  0.00    +0.000 F 
ATOM     26  C   UNL     1      -3.196  12.158  23.769  0.00  0.00    +0.000 A 
ATOM     27  C   UNL     1      -4.028  13.253  23.551  0.00  0.00    +0.000 A 
ATOM     28  C   UNL     1      -3.820  14.062  22.435  0.00  0.00    +0.000 A 
ATOM     29  C   UNL     1      -2.802  13.756  21.530  0.00  0.00    +0.000 A 
ATOM     30  F   UNL     1      -2.596  14.598  20.504  0.00  0.00    +0.000 F 
ENDBRANCH  21  23
ENDBRANCH   3  17
TORSDOF 4
ENDMDL
MODEL 8
REMARK VINA RESULT:      -8.0      4.111      6.697
REMARK  Name = 
REMARK  5 active torsions:
REMARK  status: ('A' for Active; 'I' for Inactive)
REMARK    1  A    between atoms: C_1  and  C_2
REMARK    2  A    between atoms: C_5  and  C_6
REMARK    3  A    between atoms: C_10  and  C_11
REMARK    4  A    between atoms: N_13  and  C_14
REMARK    5  A    between atoms: N_18  and  C_19
REMARK                            x       y       z     vdW  Elec       q    Type
REMARK                         _______ _______ _______ _____ _____    ______ ____
ROOT
ATOM      1  C   UNL     1       1.835   6.102  20.242  0.00  0.00    +0.000 C 
ATOM      2  O   UNL     1       1.203   5.381  21.001  0.00  0.00    +0.000 OA
ATOM      3  N   UNL     1       1.855   7.479  20.348  0.00  0.00    +0.000 N 
ATOM      4  H   UNL     1       2.401   8.025  19.695  0.00  0.00    +0.000 HD
ENDROOT
BRANCH   1   9
ATOM      5  C   UNL     1       4.552   5.618  17.650  0.00  0.00    +0.000 A 
ATOM      6  C   UNL     1       4.099   4.459  17.000  0.00  0.00    +0.000 A 
ATOM      7  C   UNL     1       2.909   3.838  17.384  0.00  0.00    +0.000 A 
ATOM      8  C   UNL     1       2.153   4.365  18.432  0.00  0.00    +0.000 A 
ATOM      9  C   UNL     1       2.592   5.514  19.100  0.00  0.00    +0.000 A 
ATOM     10  C   UNL     1       3.780   6.145  18.696  0.00  0.00    +0.000 A 
BRANCH   5  15
ATOM     11  C   UNL     1       8.290   8.639  17.871  0.00  0.00    +0.000 C 
ATOM     12  C   UNL     1       7.475   7.537  17.338  0.00  0.00    +0.000 A 
ATOM     13  N   UNL     1       7.759   6.665  16.396  0.00  0.00    +0.000 NA
ATOM     14  N   UNL     1       6.684   5.804  16.333  0.00  0.00    +0.000 NA
ATOM     15  C   UNL     1       5.818   6.211  17.239  0.00  0.00    +0.000 A 
ATOM     16  O   UNL     1       6.251   7.325  17.914  0.00  0.00    +0.000 OA
ENDBRANCH   5  15
ENDBRANCH   1   9
BRANCH   3  17
ATOM     17  C   UNL     1       1.121   8.181  21.404  0.00  0.00    +0.000 C 
ATOM     18  C   UNL     1      -0.345   8.363  21.024  0.00  0.00    +0.000 C 
ATOM     19  C   UNL     1      -0.337   9.661  20.249  0.00  0.00    +0.000 C 
ATOM     20  O   UNL     1      -1.269  10.048  19.563  0.00  0.00    +0.000 OA
ATOM     21  N   UNL     1       0.840  10.342  20.581  0.00  0.00    +0.000 N 
ATOM     22  C   UNL     1       1.587   9.625  21.589  0.00  0.00    +0.000 C 
BRANCH  21  23
ATOM     23  C   UNL     1       1.021  11.718  20.306  0.00  0.00    +0.000 A 
ATOM     24  C   UNL     1       0.533  12.709  21.167  0.00  0.00    +0.000 A 
ATOM     25  F   UNL     1      -0.142  12.382  22.278  0.00  0.00    +0.000 F 
ATOM     26  C   UNL     1       0.664  14.065  20.867  0.00  0.00    +0.000 A 
ATOM     27  C   UNL     1       1.333  14.460  19.711  0.00  0.00    +0.000 A 
ATOM     28  C   UNL     1       1.859  13.492  18.858  0.00  0.00    +0.000 A 
ATOM     29  C   UNL     1       1.690  12.137  19.149  0.00  0.00    +0.000 A 
ATOM     30  F   UNL     1       2.267  11.239  18.334  0.00  0.00    +0.000 F 
ENDBRANCH  21  23
ENDBRANCH   3  17
TORSDOF 4
ENDMDL
MODEL 9
REMARK VINA RESULT:      -7.9      5.016      8.100
REMARK  Name = 
REMARK  5 active torsions:
REMARK  status: ('A' for Active; 'I' for Inactive)
REMARK    1  A    between atoms: C_1  and  C_2
REMARK    2  A    between atoms: C_5  and  C_6
REMARK    3  A    between atoms: C_10  and  C_11
REMARK    4  A    between atoms: N_13  and  C_14
REMARK    5  A    between atoms: N_18  and  C_19
REMARK                            x       y       z     vdW  Elec       q    Type
REMARK                         _______ _______ _______ _____ _____    ______ ____
ROOT
ATOM      1  C   UNL     1       1.456   9.547  18.549  0.00  0.00    +0.000 C 
ATOM      2  O   UNL     1       1.954   9.990  17.523  0.00  0.00    +0.000 OA
ATOM      3  N   UNL     1       0.571  10.264  19.330  0.00  0.00    +0.000 N 
ATOM      4  H   UNL     1       0.186   9.844  20.167  0.00  0.00    +0.000 HD
ENDROOT
BRANCH   1   9
ATOM      5  C   UNL     1       3.021   6.101  18.639  0.00  0.00    +0.000 A 
ATOM      6  C   UNL     1       2.630   5.663  19.914  0.00  0.00    +0.000 A 
ATOM      7  C   UNL     1       1.847   6.469  20.743  0.00  0.00    +0.000 A 
ATOM      8  C   UNL     1       1.447   7.733  20.310  0.00  0.00    +0.000 A 
ATOM      9  C   UNL     1       1.835   8.194  19.047  0.00  0.00    +0.000 A 
ATOM     10  C   UNL     1       2.606   7.371  18.210  0.00  0.00    +0.000 A 
BRANCH   5  15
ATOM     11  C   UNL     1       7.084   4.631  16.522  0.00  0.00    +0.000 C 
ATOM     12  C   UNL     1       5.661   4.583  16.894  0.00  0.00    +0.000 A 
ATOM     13  N   UNL     1       4.776   3.630  16.697  0.00  0.00    +0.000 NA
ATOM     14  N   UNL     1       3.613   4.057  17.302  0.00  0.00    +0.000 NA
ATOM     15  C   UNL     1       3.868   5.241  17.823  0.00  0.00    +0.000 A 
ATOM     16  O   UNL     1       5.157   5.648  17.590  0.00  0.00    +0.000 OA
ENDBRANCH   5  15
ENDBRANCH   1   9
BRANCH   3  17
ATOM     17  C   UNL     1       0.148  11.620  18.970  0.00  0.00    +0.000 C 
ATOM     18  C   UNL     1       1.010  12.665  19.671  0.00  0.00    +0.000 C 
ATOM     19  C   UNL     1       0.302  12.860  20.993  0.00  0.00    +0.000 C 
ATOM     20  O   UNL     1       0.796  13.438  21.948  0.00  0.00    +0.000 OA
ATOM     21  N   UNL     1      -1.006  12.387  20.843  0.00  0.00    +0.000 N 
ATOM     22  C   UNL     1      -1.250  11.959  19.485  0.00  0.00    +0.000 C 
BRANCH  21  23
ATOM     23  C   UNL     1      -2.036  12.708  21.759  0.00  0.00    +0.000 A 
ATOM     24  C   UNL     1      -2.873  13.814  21.563  0.00  0.00    +0.000 A 
ATOM     25  F   UNL     1      -2.711  14.619  20.502  0.00  0.00    +0.000 F 
ATOM     26  C   UNL     1      -3.852  14.162  22.494  0.00  0.00    +0.000 A 
ATOM     27  C   UNL     1      -4.044  13.376  23.626  0.00  0.00    +0.000 A 
ATOM     28  C   UNL     1      -3.247  12.249  23.824  0.00  0.00    +0.000 A 
ATOM     29  C   UNL     1      -2.246  11.932  22.905  0.00  0.00    +0.000 A 
ATOM     30  F   UNL     1      -1.545  10.804  23.100  0.00  0.00    +0.000 F 
ENDBRANCH  21  23
ENDBRANCH   3  17
TORSDOF 4
ENDMDL
