MODEL 1
REMARK VINA RESULT:      -8.4      0.000      0.000
REMARK  Name = 
REMARK  4 active torsions:
REMARK  status: ('A' for Active; 'I' for Inactive)
REMARK    1  A    between atoms: C_1  and  C_2
REMARK    2  A    between atoms: N_4  and  C_5
REMARK    3  A    between atoms: C_9  and  C_10
REMARK    4  A    between atoms: C_12  and  C_13
REMARK                            x       y       z     vdW  Elec       q    Type
REMARK                         _______ _______ _______ _____ _____    ______ ____
ROOT
ATOM      1  C   UNL     1       2.489   6.751  19.169  0.00  0.00    +0.000 C 
ATOM      2  C   UNL     1       3.382   6.323  18.259  0.00  0.00    +0.000 C 
ATOM      3  C   UNL     1       3.994   4.926  18.353  0.00  0.00    +0.000 C 
ATOM      4  N   UNL     1       3.515   4.213  19.546  0.00  0.00    +0.000 N 
ATOM      5  N   UNL     1       3.893   2.964  19.903  0.00  0.00    +0.000 NA
ATOM      6  C   UNL     1       3.201   2.812  21.034  0.00  0.00    +0.000 A 
ATOM      7  N   UNL     1       2.385   3.855  21.385  0.00  0.00    +0.000 NA
ATOM      8  C   UNL     1       2.594   4.722  20.427  0.00  0.00    +0.000 A 
ATOM      9  N   UNL     1       2.080   5.946  20.211  0.00  0.00    +0.000 N 
ATOM     10  H   UNL     1       1.421   6.339  20.876  0.00  0.00    +0.000 HD
ENDROOT
BRANCH   1  15
ATOM     11  C   UNL     1       0.584   9.914  20.026  0.00  0.00    +0.000 A 
ATOM     12  C   UNL     1       1.000  10.736  18.978  0.00  0.00    +0.000 A 
ATOM     13  C   UNL     1       1.864  10.261  17.993  0.00  0.00    +0.000 A 
ATOM     14  C   UNL     1       2.338   8.952  18.056  0.00  0.00    +0.000 A 
ATOM     15  C   UNL     1       1.964   8.122  19.117  0.00  0.00    +0.000 A 
ATOM     16  C   UNL     1       1.095   8.609  20.109  0.00  0.00    +0.000 A 
BRANCH  11  20
ATOM     17  C   UNL     1      -1.268  10.799  23.199  0.00  0.00    +0.000 C 
ATOM     18  C   UNL     1      -0.093  10.317  22.392  0.00  0.00    +0.000 C 
ATOM     19  O   UNL     1       0.934   9.950  22.959  0.00  0.00    +0.000 OA
ATOM     20  N   UNL     1      -0.320  10.349  21.024  0.00  0.00    +0.000 N 
ATOM     21  H   UNL     1      -1.158  10.818  20.708  0.00  0.00    +0.000 HD
ENDBRANCH  11  20
ENDBRANCH   1  15
BRANCH   3  22
ATOM     22  C   UNL     1       5.493   4.949  18.311  0.00  0.00    +0.000 A 
ATOM     23  C   UNL     1       6.478   5.432  19.154  0.00  0.00    +0.000 A 
ATOM     24  C   UNL     1       7.717   5.143  18.533  0.00  0.00    +0.000 A 
ATOM     25  C   UNL     1       7.416   4.515  17.349  0.00  0.00    +0.000 A 
ATOM     26  O   UNL     1       6.072   4.400  17.198  0.00  0.00    +0.000 OA
ENDBRANCH   3  22
TORSDOF 3
ENDMDL
MODEL 2
REMARK VINA RESULT:      -8.2      2.280      3.412
REMARK  Name = 
REMARK  4 active torsions:
REMARK  status: ('A' for Active; 'I' for Inactive)
REMARK    1  A    between atoms: C_1  and  C_2
REMARK    2  A    between atoms: N_4  and  C_5
REMARK    3  A    between atoms: C_9  and  C_10
REMARK    4  A    between atoms: C_12  and  C_13
REMARK                            x       y       z     vdW  Elec       q    Type
REMARK                         _______ _______ _______ _____ _____    ______ ____
ROOT
ATOM      1  C   UNL     1       3.655   6.909  18.121  0.00  0.00    +0.000 C 
ATOM      2  C   UNL     1       3.967   5.895  18.946  0.00  0.00    +0.000 C 
ATOM      3  C   UNL     1       4.999   4.842  18.545  0.00  0.00    +0.000 C 
ATOM      4  N   UNL     1       5.506   5.083  17.187  0.00  0.00    +0.000 N 
ATOM      5  N   UNL     1       6.419   4.310  16.553  0.00  0.00    +0.000 NA
ATOM      6  C   UNL     1       6.507   4.943  15.381  0.00  0.00    +0.000 A 
ATOM      7  N   UNL     1       5.753   6.080  15.254  0.00  0.00    +0.000 NA
ATOM      8  C   UNL     1       5.139   6.151  16.407  0.00  0.00    +0.000 A 
ATOM      9  N   UNL     1       4.260   7.049  16.889  0.00  0.00    +0.000 N 
ATOM     10  H   UNL     1       3.961   7.824  16.306  0.00  0.00    +0.000 HD
ENDROOT
BRANCH   1  15
ATOM     11  C   UNL     1       1.023   8.807  20.081  0.00  0.00    +0.000 A 
ATOM     12  C   UNL     1       0.624   9.730  19.115  0.00  0.00    +0.000 A 
ATOM     13  C   UNL     1       1.181   9.719  17.837  0.00  0.00    +0.000 A 
ATOM     14  C   UNL     1       2.164   8.785  17.516  0.00  0.00    +0.000 A 
ATOM     15  C   UNL     1       2.606   7.874  18.480  0.00  0.00    +0.000 A 
ATOM     16  C   UNL     1       2.042   7.894  19.767  0.00  0.00    +0.000 A 
BRANCH  11  20
ATOM     17  C   UNL     1      -0.246   9.459  23.581  0.00  0.00    +0.000 C 
ATOM     18  C   UNL     1       0.359   9.834  22.254  0.00  0.00    +0.000 C 
ATOM     19  O   UNL     1       0.707  10.993  22.042  0.00  0.00    +0.000 OA
ATOM     20  N   UNL     1       0.456   8.765  21.377  0.00  0.00    +0.000 N 
ATOM     21  H   UNL     1      -0.011   7.908  21.643  0.00  0.00    +0.000 HD
ENDBRANCH  11  20
ENDBRANCH   1  15
BRANCH   3  22
ATOM     22  C   UNL     1       4.476   3.442  18.677  0.00  0.00    +0.000 A 
ATOM     23  C   UNL     1       3.630   2.649  17.923  0.00  0.00    +0.000 A 
ATOM     24  C   UNL     1       3.530   1.410  18.600  0.00  0.00    +0.000 A 
ATOM     25  C   UNL     1       4.307   1.524  19.727  0.00  0.00    +0.000 A 
ATOM     26  O   UNL     1       4.878   2.753  19.790  0.00  0.00    +0.000 OA
ENDBRANCH   3  22
TORSDOF 3
ENDMDL
MODEL 3
REMARK VINA RESULT:      -8.2      2.971      4.527
REMARK  Name = 
REMARK  4 active torsions:
REMARK  status: ('A' for Active; 'I' for Inactive)
REMARK    1  A    between atoms: C_1  and  C_2
REMARK    2  A    between atoms: N_4  and  C_5
REMARK    3  A    between atoms: C_9  and  C_10
REMARK    4  A    between atoms: C_12  and  C_13
REMARK                            x       y       z     vdW  Elec       q    Type
REMARK                         _______ _______ _______ _____ _____    ______ ____
ROOT
ATOM      1  C   UNL     1       1.977   8.161  19.128  0.00  0.00    +0.000 C 
ATOM      2  C   UNL     1       1.989   7.204  20.072  0.00  0.00    +0.000 C 
ATOM      3  C   UNL     1       2.925   6.001  19.961  0.00  0.00    +0.000 C 
ATOM      4  N   UNL     1       3.705   6.045  18.716  0.00  0.00    +0.000 N 
ATOM      5  N   UNL     1       4.606   5.110  18.334  0.00  0.00    +0.000 NA
ATOM      6  C   UNL     1       4.995   5.609  17.158  0.00  0.00    +0.000 A 
ATOM      7  N   UNL     1       4.440   6.809  16.801  0.00  0.00    +0.000 NA
ATOM      8  C   UNL     1       3.637   7.067  17.802  0.00  0.00    +0.000 A 
ATOM      9  N   UNL     1       2.813   8.106  18.033  0.00  0.00    +0.000 N 
ATOM     10  H   UNL     1       2.737   8.850  17.347  0.00  0.00    +0.000 HD
ENDROOT
BRANCH   1  15
ATOM     11  C   UNL     1      -0.700  10.678  18.197  0.00  0.00    +0.000 A 
ATOM     12  C   UNL     1      -0.785  11.392  19.393  0.00  0.00    +0.000 A 
ATOM     13  C   UNL     1       0.035  11.078  20.476  0.00  0.00    +0.000 A 
ATOM     14  C   UNL     1       0.944  10.026  20.378  0.00  0.00    +0.000 A 
ATOM     15  C   UNL     1       1.021   9.274  19.201  0.00  0.00    +0.000 A 
ATOM     16  C   UNL     1       0.188   9.595  18.115  0.00  0.00    +0.000 A 
BRANCH  11  20
ATOM     17  C   UNL     1      -3.269  10.903  15.434  0.00  0.00    +0.000 C 
ATOM     18  C   UNL     1      -2.695  10.393  16.729  0.00  0.00    +0.000 C 
ATOM     19  O   UNL     1      -3.295   9.534  17.371  0.00  0.00    +0.000 OA
ATOM     20  N   UNL     1      -1.490  10.990  17.065  0.00  0.00    +0.000 N 
ATOM     21  H   UNL     1      -1.202  11.787  16.513  0.00  0.00    +0.000 HD
ENDBRANCH  11  20
ENDBRANCH   1  15
BRANCH   3  22
ATOM     22  C   UNL     1       2.202   4.693  20.091  0.00  0.00    +0.000 A 
ATOM     23  C   UNL     1       1.447   3.915  19.233  0.00  0.00    +0.000 A 
ATOM     24  C   UNL     1       1.032   2.783  19.975  0.00  0.00    +0.000 A 
ATOM     25  C   UNL     1       1.546   2.943  21.238  0.00  0.00    +0.000 A 
ATOM     26  O   UNL     1       2.249   4.101  21.324  0.00  0.00    +0.000 OA
ENDBRANCH   3  22
TORSDOF 3
ENDMDL
MODEL 4
REMARK VINA RESULT:      -8.2      2.857      4.132
REMARK  Name = 
REMARK  4 active torsions:
REMARK  status: ('A' for Active; 'I' for Inactive)
REMARK    1  A    between atoms: C_1  and  C_2
REMARK    2  A    between atoms: N_4  and  C_5
REMARK    3  A    between atoms: C_9  and  C_10
REMARK    4  A    between atoms: C_12  and  C_13
REMARK                            x       y       z     vdW  Elec       q    Type
REMARK                         _______ _______ _______ _____ _____    ______ ____
ROOT
ATOM      1  C   UNL     1       2.974   7.266  18.543  0.00  0.00    +0.000 C 
ATOM      2  C   UNL     1       3.233   6.145  19.237  0.00  0.00    +0.000 C 
ATOM      3  C   UNL     1       4.280   5.143  18.752  0.00  0.00    +0.000 C 
ATOM      4  N   UNL     1       4.864   5.561  17.470  0.00  0.00    +0.000 N 
ATOM      5  N   UNL     1       5.806   4.869  16.787  0.00  0.00    +0.000 NA
ATOM      6  C   UNL     1       5.963   5.655  15.719  0.00  0.00    +0.000 A 
ATOM      7  N   UNL     1       5.224   6.809  15.708  0.00  0.00    +0.000 NA
ATOM      8  C   UNL     1       4.547   6.730  16.825  0.00  0.00    +0.000 A 
ATOM      9  N   UNL     1       3.647   7.565  17.377  0.00  0.00    +0.000 N 
ATOM     10  H   UNL     1       3.387   8.417  16.890  0.00  0.00    +0.000 HD
ENDROOT
BRANCH   1  15
ATOM     11  C   UNL     1       0.112   9.751  18.472  0.00  0.00    +0.000 A 
ATOM     12  C   UNL     1      -0.095   9.917  19.842  0.00  0.00    +0.000 A 
ATOM     13  C   UNL     1       0.701   9.254  20.774  0.00  0.00    +0.000 A 
ATOM     14  C   UNL     1       1.711   8.396  20.341  0.00  0.00    +0.000 A 
ATOM     15  C   UNL     1       1.913   8.187  18.973  0.00  0.00    +0.000 A 
ATOM     16  C   UNL     1       1.103   8.857  18.040  0.00  0.00    +0.000 A 
BRANCH  11  20
ATOM     17  C   UNL     1      -2.514  11.075  16.098  0.00  0.00    +0.000 C 
ATOM     18  C   UNL     1      -1.998  10.232  17.235  0.00  0.00    +0.000 C 
ATOM     19  O   UNL     1      -2.756   9.466  17.825  0.00  0.00    +0.000 OA
ATOM     20  N   UNL     1      -0.652  10.435  17.497  0.00  0.00    +0.000 N 
ATOM     21  H   UNL     1      -0.202  11.208  17.024  0.00  0.00    +0.000 HD
ENDBRANCH  11  20
ENDBRANCH   1  15
BRANCH   3  22
ATOM     22  C   UNL     1       3.743   3.745  18.662  0.00  0.00    +0.000 A 
ATOM     23  C   UNL     1       4.026   2.555  19.307  0.00  0.00    +0.000 A 
ATOM     24  C   UNL     1       3.159   1.581  18.756  0.00  0.00    +0.000 A 
ATOM     25  C   UNL     1       2.410   2.228  17.804  0.00  0.00    +0.000 A 
ATOM     26  O   UNL     1       2.760   3.538  17.731  0.00  0.00    +0.000 OA
ENDBRANCH   3  22
TORSDOF 3
ENDMDL
MODEL 5
REMARK VINA RESULT:      -8.1      3.364      7.664
REMARK  Name = 
REMARK  4 active torsions:
REMARK  status: ('A' for Active; 'I' for Inactive)
REMARK    1  A    between atoms: C_1  and  C_2
REMARK    2  A    between atoms: N_4  and  C_5
REMARK    3  A    between atoms: C_9  and  C_10
REMARK    4  A    between atoms: C_12  and  C_13
REMARK                            x       y       z     vdW  Elec       q    Type
REMARK                         _______ _______ _______ _____ _____    ______ ____
ROOT
ATOM      1  C   UNL     1       4.245   4.615  17.398  0.00  0.00    +0.000 C 
ATOM      2  C   UNL     1       4.211   5.486  18.421  0.00  0.00    +0.000 C 
ATOM      3  C   UNL     1       3.126   5.397  19.495  0.00  0.00    +0.000 C 
ATOM      4  N   UNL     1       2.175   4.315  19.203  0.00  0.00    +0.000 N 
ATOM      5  N   UNL     1       1.101   4.004  19.966  0.00  0.00    +0.000 NA
ATOM      6  C   UNL     1       0.585   2.993  19.263  0.00  0.00    +0.000 A 
ATOM      7  N   UNL     1       1.284   2.620  18.145  0.00  0.00    +0.000 NA
ATOM      8  C   UNL     1       2.285   3.462  18.134  0.00  0.00    +0.000 A 
ATOM      9  N   UNL     1       3.317   3.602  17.282  0.00  0.00    +0.000 N 
ATOM     10  H   UNL     1       3.387   2.993  16.472  0.00  0.00    +0.000 HD
ENDROOT
BRANCH   1  15
ATOM     11  C   UNL     1       6.275   3.981  14.260  0.00  0.00    +0.000 A 
ATOM     12  C   UNL     1       7.152   5.065  14.319  0.00  0.00    +0.000 A 
ATOM     13  C   UNL     1       7.103   5.971  15.377  0.00  0.00    +0.000 A 
ATOM     14  C   UNL     1       6.156   5.811  16.386  0.00  0.00    +0.000 A 
ATOM     15  C   UNL     1       5.243   4.753  16.329  0.00  0.00    +0.000 A 
ATOM     16  C   UNL     1       5.297   3.845  15.257  0.00  0.00    +0.000 A 
BRANCH  11  20
ATOM     17  C   UNL     1       5.707   1.772  11.247  0.00  0.00    +0.000 C 
ATOM     18  C   UNL     1       5.432   2.938  12.158  0.00  0.00    +0.000 C 
ATOM     19  O   UNL     1       4.498   3.700  11.917  0.00  0.00    +0.000 OA
ATOM     20  N   UNL     1       6.317   3.021  13.222  0.00  0.00    +0.000 N 
ATOM     21  H   UNL     1       7.122   2.409  13.199  0.00  0.00    +0.000 HD
ENDBRANCH  11  20
ENDBRANCH   1  15
BRANCH   3  22
ATOM     22  C   UNL     1       2.408   6.698  19.698  0.00  0.00    +0.000 A 
ATOM     23  C   UNL     1       1.714   7.267  20.750  0.00  0.00    +0.000 A 
ATOM     24  C   UNL     1       1.263   8.531  20.299  0.00  0.00    +0.000 A 
ATOM     25  C   UNL     1       1.696   8.653  19.001  0.00  0.00    +0.000 A 
ATOM     26  O   UNL     1       2.383   7.545  18.622  0.00  0.00    +0.000 OA
ENDBRANCH   3  22
TORSDOF 3
ENDMDL
MODEL 6
REMARK VINA RESULT:      -8.1      2.249      7.380
REMARK  Name = 
REMARK  4 active torsions:
REMARK  status: ('A' for Active; 'I' for Inactive)
REMARK    1  A    between atoms: C_1  and  C_2
REMARK    2  A    between atoms: N_4  and  C_5
REMARK    3  A    between atoms: C_9  and  C_10
REMARK    4  A    between atoms: C_12  and  C_13
REMARK                            x       y       z     vdW  Elec       q    Type
REMARK                         _______ _______ _______ _____ _____    ______ ____
ROOT
ATOM      1  C   UNL     1       2.214   8.125  18.846  0.00  0.00    +0.000 C 
ATOM      2  C   UNL     1       1.701   9.190  18.205  0.00  0.00    +0.000 C 
ATOM      3  C   UNL     1       0.797  10.185  18.932  0.00  0.00    +0.000 C 
ATOM      4  N   UNL     1       0.564   9.775  20.324  0.00  0.00    +0.000 N 
ATOM      5  N   UNL     1      -0.207  10.449  21.210  0.00  0.00    +0.000 NA
ATOM      6  C   UNL     1      -0.096   9.660  22.282  0.00  0.00    +0.000 A 
ATOM      7  N   UNL     1       0.723   8.571  22.145  0.00  0.00    +0.000 NA
ATOM      8  C   UNL     1       1.133   8.670  20.906  0.00  0.00    +0.000 A 
ATOM      9  N   UNL     1       1.960   7.894  20.181  0.00  0.00    +0.000 N 
ATOM     10  H   UNL     1       2.360   7.060  20.597  0.00  0.00    +0.000 HD
ENDROOT
BRANCH   1  15
ATOM     11  C   UNL     1       3.594   4.820  17.604  0.00  0.00    +0.000 A 
ATOM     12  C   UNL     1       4.567   5.284  16.718  0.00  0.00    +0.000 A 
ATOM     13  C   UNL     1       4.791   6.649  16.549  0.00  0.00    +0.000 A 
ATOM     14  C   UNL     1       4.024   7.573  17.257  0.00  0.00    +0.000 A 
ATOM     15  C   UNL     1       3.018   7.131  18.122  0.00  0.00    +0.000 A 
ATOM     16  C   UNL     1       2.797   5.753  18.285  0.00  0.00    +0.000 A 
BRANCH  11  20
ATOM     17  C   UNL     1       3.587   1.210  18.724  0.00  0.00    +0.000 C 
ATOM     18  C   UNL     1       4.018   2.652  18.761  0.00  0.00    +0.000 C 
ATOM     19  O   UNL     1       4.870   3.019  19.566  0.00  0.00    +0.000 OA
ATOM     20  N   UNL     1       3.362   3.442  17.829  0.00  0.00    +0.000 N 
ATOM     21  H   UNL     1       2.579   3.025  17.342  0.00  0.00    +0.000 HD
ENDBRANCH  11  20
ENDBRANCH   1  15
BRANCH   3  22
ATOM     22  C   UNL     1      -0.503  10.412  18.219  0.00  0.00    +0.000 A 
ATOM     23  C   UNL     1      -1.328   9.625  17.436  0.00  0.00    +0.000 A 
ATOM     24  C   UNL     1      -2.418  10.442  17.051  0.00  0.00    +0.000 A 
ATOM     25  C   UNL     1      -2.189  11.676  17.610  0.00  0.00    +0.000 A 
ATOM     26  O   UNL     1      -1.027  11.673  18.312  0.00  0.00    +0.000 OA
ENDBRANCH   3  22
TORSDOF 3
ENDMDL
MODEL 7
REMARK VINA RESULT:      -8.0      1.070      1.260
REMARK  Name = 
REMARK  4 active torsions:
REMARK  status: ('A' for Active; 'I' for Inactive)
REMARK    1  A    between atoms: C_1  and  C_2
REMARK    2  A    between atoms: N_4  and  C_5
REMARK    3  A    between atoms: C_9  and  C_10
REMARK    4  A    between atoms: C_12  and  C_13
REMARK                            x       y       z     vdW  Elec       q    Type
REMARK                         _______ _______ _______ _____ _____    ______ ____
ROOT
ATOM      1  C   UNL     1       2.547   6.391  18.900  0.00  0.00    +0.000 C 
ATOM      2  C   UNL     1       3.217   5.969  17.814  0.00  0.00    +0.000 C 
ATOM      3  C   UNL     1       3.805   4.560  17.750  0.00  0.00    +0.000 C 
ATOM      4  N   UNL     1       3.575   3.829  19.004  0.00  0.00    +0.000 N 
ATOM      5  N   UNL     1       3.993   2.566  19.250  0.00  0.00    +0.000 NA
ATOM      6  C   UNL     1       3.555   2.401  20.500  0.00  0.00    +0.000 A 
ATOM      7  N   UNL     1       2.853   3.450  21.035  0.00  0.00    +0.000 NA
ATOM      8  C   UNL     1       2.873   4.334  20.070  0.00  0.00    +0.000 A 
ATOM      9  N   UNL     1       2.352   5.572  19.991  0.00  0.00    +0.000 N 
ATOM     10  H   UNL     1       1.857   5.961  20.787  0.00  0.00    +0.000 HD
ENDROOT
BRANCH   1  15
ATOM     11  C   UNL     1       0.993   9.587  20.222  0.00  0.00    +0.000 A 
ATOM     12  C   UNL     1       1.133  10.404  19.100  0.00  0.00    +0.000 A 
ATOM     13  C   UNL     1       1.698   9.915  17.923  0.00  0.00    +0.000 A 
ATOM     14  C   UNL     1       2.148   8.598  17.861  0.00  0.00    +0.000 A 
ATOM     15  C   UNL     1       2.052   7.772  18.986  0.00  0.00    +0.000 A 
ATOM     16  C   UNL     1       1.484   8.272  20.170  0.00  0.00    +0.000 A 
BRANCH  11  20
ATOM     17  C   UNL     1      -1.048  11.246  22.936  0.00  0.00    +0.000 C 
ATOM     18  C   UNL     1      -0.670  10.919  21.515  0.00  0.00    +0.000 C 
ATOM     19  O   UNL     1      -1.291  11.424  20.583  0.00  0.00    +0.000 OA
ATOM     20  N   UNL     1       0.393  10.035  21.423  0.00  0.00    +0.000 N 
ATOM     21  H   UNL     1       0.699   9.592  22.279  0.00  0.00    +0.000 HD
ENDBRANCH  11  20
ENDBRANCH   1  15
BRANCH   3  22
ATOM     22  C   UNL     1       5.261   4.559  17.391  0.00  0.00    +0.000 A 
ATOM     23  C   UNL     1       5.978   4.243  16.251  0.00  0.00    +0.000 A 
ATOM     24  C   UNL     1       7.343   4.447  16.563  0.00  0.00    +0.000 A 
ATOM     25  C   UNL     1       7.380   4.862  17.872  0.00  0.00    +0.000 A 
ATOM     26  O   UNL     1       6.126   4.925  18.388  0.00  0.00    +0.000 OA
ENDBRANCH   3  22
TORSDOF 3
ENDMDL
MODEL 8
REMARK VINA RESULT:      -8.0      1.476      1.598
REMARK  Name = 
REMARK  4 active torsions:
REMARK  status: ('A' for Active; 'I' for Inactive)
REMARK    1  A    between atoms: C_1  and  C_2
REMARK    2  A    between atoms: N_4  and  C_5
REMARK    3  A    between atoms: C_9  and  C_10
REMARK    4  A    between atoms: C_12  and  C_13
REMARK                            x       y       z     vdW  Elec       q    Type
REMARK                         _______ _______ _______ _____ _____    ______ ____
ROOT
ATOM      1  C   UNL     1       2.745   6.701  18.089  0.00  0.00    +0.000 C 
ATOM      2  C   UNL     1       3.951   6.623  17.501  0.00  0.00    +0.000 C 
ATOM      3  C   UNL     1       4.586   5.269  17.183  0.00  0.00    +0.000 C 
ATOM      4  N   UNL     1       3.739   4.161  17.646  0.00  0.00    +0.000 N 
ATOM      5  N   UNL     1       4.044   2.849  17.518  0.00  0.00    +0.000 NA
ATOM      6  C   UNL     1       2.981   2.291  18.102  0.00  0.00    +0.000 A 
ATOM      7  N   UNL     1       2.014   3.156  18.542  0.00  0.00    +0.000 NA
ATOM      8  C   UNL     1       2.511   4.327  18.236  0.00  0.00    +0.000 A 
ATOM      9  N   UNL     1       2.027   5.570  18.416  0.00  0.00    +0.000 N 
ATOM     10  H   UNL     1       1.133   5.700  18.878  0.00  0.00    +0.000 HD
ENDROOT
BRANCH   1  15
ATOM     11  C   UNL     1       0.878   9.411  19.970  0.00  0.00    +0.000 A 
ATOM     12  C   UNL     1       1.122  10.498  19.129  0.00  0.00    +0.000 A 
ATOM     13  C   UNL     1       1.858  10.346  17.955  0.00  0.00    +0.000 A 
ATOM     14  C   UNL     1       2.376   9.098  17.616  0.00  0.00    +0.000 A 
ATOM     15  C   UNL     1       2.176   8.003  18.462  0.00  0.00    +0.000 A 
ATOM     16  C   UNL     1       1.435   8.164  19.646  0.00  0.00    +0.000 A 
BRANCH  11  20
ATOM     17  C   UNL     1      -0.473   9.613  23.494  0.00  0.00    +0.000 C 
ATOM     18  C   UNL     1       0.605   9.549  22.444  0.00  0.00    +0.000 C 
ATOM     19  O   UNL     1       1.788   9.531  22.778  0.00  0.00    +0.000 OA
ATOM     20  N   UNL     1       0.107   9.518  21.151  0.00  0.00    +0.000 N 
ATOM     21  H   UNL     1      -0.883   9.692  21.035  0.00  0.00    +0.000 HD
ENDBRANCH  11  20
ENDBRANCH   1  15
BRANCH   3  22
ATOM     22  C   UNL     1       5.977   5.141  17.730  0.00  0.00    +0.000 A 
ATOM     23  C   UNL     1       7.149   4.568  17.273  0.00  0.00    +0.000 A 
ATOM     24  C   UNL     1       8.123   4.785  18.276  0.00  0.00    +0.000 A 
ATOM     25  C   UNL     1       7.488   5.464  19.287  0.00  0.00    +0.000 A 
ATOM     26  O   UNL     1       6.185   5.679  18.973  0.00  0.00    +0.000 OA
ENDBRANCH   3  22
TORSDOF 3
ENDMDL
MODEL 9
REMARK VINA RESULT:      -8.0      2.656      7.682
REMARK  Name = 
REMARK  4 active torsions:
REMARK  status: ('A' for Active; 'I' for Inactive)
REMARK    1  A    between atoms: C_1  and  C_2
REMARK    2  A    between atoms: N_4  and  C_5
REMARK    3  A    between atoms: C_9  and  C_10
REMARK    4  A    between atoms: C_12  and  C_13
REMARK                            x       y       z     vdW  Elec       q    Type
REMARK                         _______ _______ _______ _____ _____    ______ ____
ROOT
ATOM      1  C   UNL     1       1.035   9.293  19.841  0.00  0.00    +0.000 C 
ATOM      2  C   UNL     1       0.393  10.074  18.955  0.00  0.00    +0.000 C 
ATOM      3  C   UNL     1      -0.542  11.189  19.422  0.00  0.00    +0.000 C 
ATOM      4  N   UNL     1      -0.648  11.218  20.887  0.00  0.00    +0.000 N 
ATOM      5  N   UNL     1      -1.412  12.085  21.590  0.00  0.00    +0.000 NA
ATOM      6  C   UNL     1      -1.166  11.676  22.837  0.00  0.00    +0.000 A 
ATOM      7  N   UNL     1      -0.268  10.649  22.966  0.00  0.00    +0.000 NA
ATOM      8  C   UNL     1       0.050  10.384  21.725  0.00  0.00    +0.000 A 
ATOM      9  N   UNL     1       0.890   9.473  21.200  0.00  0.00    +0.000 N 
ATOM     10  H   UNL     1       1.386   8.834  21.813  0.00  0.00    +0.000 HD
ENDROOT
BRANCH   1  15
ATOM     11  C   UNL     1       2.810   5.946  19.699  0.00  0.00    +0.000 A 
ATOM     12  C   UNL     1       3.465   6.074  18.474  0.00  0.00    +0.000 A 
ATOM     13  C   UNL     1       3.354   7.240  17.718  0.00  0.00    +0.000 A 
ATOM     14  C   UNL     1       2.566   8.294  18.178  0.00  0.00    +0.000 A 
ATOM     15  C   UNL     1       1.871   8.174  19.386  0.00  0.00    +0.000 A 
ATOM     16  C   UNL     1       1.986   6.993  20.140  0.00  0.00    +0.000 A 
BRANCH  11  20
ATOM     17  C   UNL     1       2.350   2.755  21.670  0.00  0.00    +0.000 C 
ATOM     18  C   UNL     1       1.943   3.837  20.706  0.00  0.00    +0.000 C 
ATOM     19  O   UNL     1       0.832   3.807  20.182  0.00  0.00    +0.000 OA
ATOM     20  N   UNL     1       2.927   4.793  20.510  0.00  0.00    +0.000 N 
ATOM     21  H   UNL     1       3.842   4.597  20.896  0.00  0.00    +0.000 HD
ENDBRANCH  11  20
ENDBRANCH   1  15
BRANCH   3  22
ATOM     22  C   UNL     1      -1.900  11.105  18.791  0.00  0.00    +0.000 A 
ATOM     23  C   UNL     1      -3.001  11.941  18.746  0.00  0.00    +0.000 A 
ATOM     24  C   UNL     1      -3.986  11.271  17.983  0.00  0.00    +0.000 A 
ATOM     25  C   UNL     1      -3.435  10.067  17.618  0.00  0.00    +0.000 A 
ATOM     26  O   UNL     1      -2.175   9.950  18.109  0.00  0.00    +0.000 OA
ENDBRANCH   3  22
TORSDOF 3
ENDMDL
