MODEL 1
REMARK VINA RESULT:      -8.7      0.000      0.000
REMARK  Name = 
REMARK  5 active torsions:
REMARK  status: ('A' for Active; 'I' for Inactive)
REMARK    1  A    between atoms: C_2  and  C_3
REMARK    2  A    between atoms: C_3  and  N_4
REMARK    3  A    between atoms: N_13  and  C_14
REMARK    4  A    between atoms: C_18  and  S_19
REMARK    5  A    between atoms: S_19  and  N_22
REMARK                            x       y       z     vdW  Elec       q    Type
REMARK                         _______ _______ _______ _____ _____    ______ ____
ROOT
ATOM      1  C   UNL     1       2.458   7.300  19.048  0.00  0.00    +0.000 A 
ATOM      2  C   UNL     1       2.234   7.989  17.851  0.00  0.00    +0.000 A 
ATOM      3  C   UNL     1       1.472   9.162  17.826  0.00  0.00    +0.000 A 
ATOM      4  C   UNL     1       0.931   9.664  19.003  0.00  0.00    +0.000 A 
ATOM      5  C   UNL     1       1.142   8.977  20.201  0.00  0.00    +0.000 A 
ATOM      6  C   UNL     1       1.854   7.767  20.221  0.00  0.00    +0.000 A 
ENDROOT
BRANCH   1   9
ATOM      7  O   UNL     1       1.744   4.502  18.539  0.00  0.00    +0.000 OA
ATOM      8  C   UNL     1       2.872   4.844  18.901  0.00  0.00    +0.000 C 
ATOM      9  N   UNL     1       3.283   6.153  19.132  0.00  0.00    +0.000 N 
ATOM     10  H   UNL     1       4.286   6.316  19.181  0.00  0.00    +0.000 HD
BRANCH   8  11
ATOM     11  C   UNL     1       3.925   3.795  19.143  0.00  0.00    +0.000 C 
BRANCH  11  12
ATOM     12  N   UNL     1       5.186   4.163  18.548  0.00  0.00    +0.000 N 
ATOM     13  N   UNL     1       6.217   4.511  19.342  0.00  0.00    +0.000 NA
ATOM     14  N   UNL     1       7.242   4.803  18.552  0.00  0.00    +0.000 NA
ATOM     15  C   UNL     1       6.835   4.659  17.251  0.00  0.00    +0.000 A 
ATOM     16  C   UNL     1       7.521   4.867  16.047  0.00  0.00    +0.000 A 
ATOM     17  C   UNL     1       6.832   4.665  14.843  0.00  0.00    +0.000 A 
ATOM     18  C   UNL     1       5.495   4.258  14.841  0.00  0.00    +0.000 A 
ATOM     19  C   UNL     1       4.798   4.037  16.035  0.00  0.00    +0.000 A 
ATOM     20  C   UNL     1       5.507   4.251  17.221  0.00  0.00    +0.000 A 
ENDBRANCH  11  12
ENDBRANCH   8  11
ENDBRANCH   1   9
BRANCH   5  21
ATOM     21  S   UNL     1       0.479   9.652  21.715  0.00  0.00    +0.000 S 
ATOM     22  O   UNL     1      -0.681   8.867  22.074  0.00  0.00    +0.000 OA
ATOM     23  O   UNL     1       1.590   9.810  22.630  0.00  0.00    +0.000 OA
BRANCH  21  24
ATOM     24  N   UNL     1      -0.060  11.210  21.226  0.00  0.00    +0.000 NA
ATOM     25  C   UNL     1      -1.410  11.604  21.686  0.00  0.00    +0.000 C 
ATOM     26  C   UNL     1      -2.147  12.445  20.646  0.00  0.00    +0.000 C 
ATOM     27  C   UNL     1      -1.813  13.930  20.705  0.00  0.00    +0.000 C 
ATOM     28  C   UNL     1      -0.365  14.243  20.360  0.00  0.00    +0.000 C 
ATOM     29  C   UNL     1       0.612  13.681  21.384  0.00  0.00    +0.000 C 
ATOM     30  C   UNL     1       1.011  12.235  21.122  0.00  0.00    +0.000 C 
ENDBRANCH  21  24
ENDBRANCH   5  21
TORSDOF 5
ENDMDL
MODEL 2
REMARK VINA RESULT:      -8.5      2.144      2.904
REMARK  Name = 
REMARK  5 active torsions:
REMARK  status: ('A' for Active; 'I' for Inactive)
REMARK    1  A    between atoms: C_2  and  C_3
REMARK    2  A    between atoms: C_3  and  N_4
REMARK    3  A    between atoms: N_13  and  C_14
REMARK    4  A    between atoms: C_18  and  S_19
REMARK    5  A    between atoms: S_19  and  N_22
REMARK                            x       y       z     vdW  Elec       q    Type
REMARK                         _______ _______ _______ _____ _____    ______ ____
ROOT
ATOM      1  C   UNL     1       2.182   6.732  19.799  0.00  0.00    +0.000 A 
ATOM      2  C   UNL     1       1.603   6.687  21.072  0.00  0.00    +0.000 A 
ATOM      3  C   UNL     1       0.927   7.793  21.596  0.00  0.00    +0.000 A 
ATOM      4  C   UNL     1       0.816   8.958  20.847  0.00  0.00    +0.000 A 
ATOM      5  C   UNL     1       1.399   9.014  19.578  0.00  0.00    +0.000 A 
ATOM      6  C   UNL     1       2.131   7.927  19.074  0.00  0.00    +0.000 A 
ENDROOT
BRANCH   1   9
ATOM      7  O   UNL     1       1.082   4.052  19.351  0.00  0.00    +0.000 OA
ATOM      8  C   UNL     1       2.235   4.355  19.041  0.00  0.00    +0.000 C 
ATOM      9  N   UNL     1       2.810   5.613  19.201  0.00  0.00    +0.000 N 
ATOM     10  H   UNL     1       3.668   5.794  18.685  0.00  0.00    +0.000 HD
BRANCH   8  11
ATOM     11  C   UNL     1       3.147   3.310  18.451  0.00  0.00    +0.000 C 
BRANCH  11  12
ATOM     12  N   UNL     1       4.492   3.806  18.300  0.00  0.00    +0.000 N 
ATOM     13  N   UNL     1       5.250   4.013  19.394  0.00  0.00    +0.000 NA
ATOM     14  N   UNL     1       6.426   4.466  18.980  0.00  0.00    +0.000 NA
ATOM     15  C   UNL     1       6.389   4.567  17.614  0.00  0.00    +0.000 A 
ATOM     16  C   UNL     1       7.354   5.012  16.700  0.00  0.00    +0.000 A 
ATOM     17  C   UNL     1       7.024   5.033  15.337  0.00  0.00    +0.000 A 
ATOM     18  C   UNL     1       5.766   4.612  14.898  0.00  0.00    +0.000 A 
ATOM     19  C   UNL     1       4.794   4.156  15.796  0.00  0.00    +0.000 A 
ATOM     20  C   UNL     1       5.147   4.151  17.149  0.00  0.00    +0.000 A 
ENDBRANCH  11  12
ENDBRANCH   8  11
ENDBRANCH   1   9
BRANCH   5  21
ATOM     21  S   UNL     1       1.215  10.499  18.605  0.00  0.00    +0.000 S 
ATOM     22  O   UNL     1       1.612  11.617  19.431  0.00  0.00    +0.000 OA
ATOM     23  O   UNL     1       1.849  10.250  17.327  0.00  0.00    +0.000 OA
BRANCH  21  24
ATOM     24  N   UNL     1      -0.487  10.584  18.369  0.00  0.00    +0.000 NA
ATOM     25  C   UNL     1      -1.088  11.933  18.461  0.00  0.00    +0.000 C 
ATOM     26  C   UNL     1      -2.479  11.899  19.090  0.00  0.00    +0.000 C 
ATOM     27  C   UNL     1      -3.595  11.587  18.101  0.00  0.00    +0.000 C 
ATOM     28  C   UNL     1      -3.510  10.190  17.506  0.00  0.00    +0.000 C 
ATOM     29  C   UNL     1      -2.279  10.006  16.628  0.00  0.00    +0.000 C 
ATOM     30  C   UNL     1      -1.031   9.599  17.399  0.00  0.00    +0.000 C 
ENDBRANCH  21  24
ENDBRANCH   5  21
TORSDOF 5
ENDMDL
MODEL 3
REMARK VINA RESULT:      -8.4      0.350      1.171
REMARK  Name = 
REMARK  5 active torsions:
REMARK  status: ('A' for Active; 'I' for Inactive)
REMARK    1  A    between atoms: C_2  and  C_3
REMARK    2  A    between atoms: C_3  and  N_4
REMARK    3  A    between atoms: N_13  and  C_14
REMARK    4  A    between atoms: C_18  and  S_19
REMARK    5  A    between atoms: S_19  and  N_22
REMARK                            x       y       z     vdW  Elec       q    Type
REMARK                         _______ _______ _______ _____ _____    ______ ____
ROOT
ATOM      1  C   UNL     1       2.481   7.284  19.066  0.00  0.00    +0.000 A 
ATOM      2  C   UNL     1       2.253   7.984  17.876  0.00  0.00    +0.000 A 
ATOM      3  C   UNL     1       1.506   9.166  17.866  0.00  0.00    +0.000 A 
ATOM      4  C   UNL     1       0.983   9.667  19.051  0.00  0.00    +0.000 A 
ATOM      5  C   UNL     1       1.197   8.969  20.243  0.00  0.00    +0.000 A 
ATOM      6  C   UNL     1       1.894   7.751  20.248  0.00  0.00    +0.000 A 
ENDROOT
BRANCH   1   9
ATOM      7  O   UNL     1       1.665   4.475  18.873  0.00  0.00    +0.000 OA
ATOM      8  C   UNL     1       2.835   4.814  19.061  0.00  0.00    +0.000 C 
ATOM      9  N   UNL     1       3.292   6.127  19.134  0.00  0.00    +0.000 N 
ATOM     10  H   UNL     1       4.296   6.268  19.043  0.00  0.00    +0.000 HD
BRANCH   8  11
ATOM     11  C   UNL     1       3.895   3.760  19.248  0.00  0.00    +0.000 C 
BRANCH  11  12
ATOM     12  N   UNL     1       5.148   4.158  18.655  0.00  0.00    +0.000 N 
ATOM     13  N   UNL     1       6.164   4.545  19.449  0.00  0.00    +0.000 NA
ATOM     14  N   UNL     1       7.184   4.857  18.661  0.00  0.00    +0.000 NA
ATOM     15  C   UNL     1       6.789   4.685  17.360  0.00  0.00    +0.000 A 
ATOM     16  C   UNL     1       7.475   4.897  16.156  0.00  0.00    +0.000 A 
ATOM     17  C   UNL     1       6.798   4.660  14.952  0.00  0.00    +0.000 A 
ATOM     18  C   UNL     1       5.474   4.214  14.949  0.00  0.00    +0.000 A 
ATOM     19  C   UNL     1       4.777   3.989  16.141  0.00  0.00    +0.000 A 
ATOM     20  C   UNL     1       5.473   4.238  17.329  0.00  0.00    +0.000 A 
ENDBRANCH  11  12
ENDBRANCH   8  11
ENDBRANCH   1   9
BRANCH   5  21
ATOM     21  S   UNL     1       0.558   9.642  21.768  0.00  0.00    +0.000 S 
ATOM     22  O   UNL     1      -0.651   8.919  22.094  0.00  0.00    +0.000 OA
ATOM     23  O   UNL     1       1.665   9.709  22.699  0.00  0.00    +0.000 OA
BRANCH  21  24
ATOM     24  N   UNL     1       0.119  11.243  21.317  0.00  0.00    +0.000 NA
ATOM     25  C   UNL     1       1.206  12.085  20.771  0.00  0.00    +0.000 C 
ATOM     26  C   UNL     1       1.063  13.547  21.187  0.00  0.00    +0.000 C 
ATOM     27  C   UNL     1       0.134  14.355  20.290  0.00  0.00    +0.000 C 
ATOM     28  C   UNL     1      -1.315  13.894  20.339  0.00  0.00    +0.000 C 
ATOM     29  C   UNL     1      -1.500  12.494  19.769  0.00  0.00    +0.000 C 
ATOM     30  C   UNL     1      -1.260  11.383  20.782  0.00  0.00    +0.000 C 
ENDBRANCH  21  24
ENDBRANCH   5  21
TORSDOF 5
ENDMDL
MODEL 4
REMARK VINA RESULT:      -8.2      2.544      9.156
REMARK  Name = 
REMARK  5 active torsions:
REMARK  status: ('A' for Active; 'I' for Inactive)
REMARK    1  A    between atoms: C_2  and  C_3
REMARK    2  A    between atoms: C_3  and  N_4
REMARK    3  A    between atoms: N_13  and  C_14
REMARK    4  A    between atoms: C_18  and  S_19
REMARK    5  A    between atoms: S_19  and  N_22
REMARK                            x       y       z     vdW  Elec       q    Type
REMARK                         _______ _______ _______ _____ _____    ______ ____
ROOT
ATOM      1  C   UNL     1       1.998   6.766  19.303  0.00  0.00    +0.000 A 
ATOM      2  C   UNL     1       1.799   6.464  20.654  0.00  0.00    +0.000 A 
ATOM      3  C   UNL     1       1.961   5.159  21.133  0.00  0.00    +0.000 A 
ATOM      4  C   UNL     1       2.331   4.141  20.263  0.00  0.00    +0.000 A 
ATOM      5  C   UNL     1       2.522   4.433  18.909  0.00  0.00    +0.000 A 
ATOM      6  C   UNL     1       2.301   5.728  18.414  0.00  0.00    +0.000 A 
ENDROOT
BRANCH   1   9
ATOM      7  O   UNL     1       0.763   9.126  20.529  0.00  0.00    +0.000 OA
ATOM      8  C   UNL     1       1.292   9.157  19.416  0.00  0.00    +0.000 C 
ATOM      9  N   UNL     1       1.919   8.083  18.790  0.00  0.00    +0.000 N 
ATOM     10  H   UNL     1       2.523   8.302  18.001  0.00  0.00    +0.000 HD
BRANCH   8  11
ATOM     11  C   UNL     1       1.273  10.435  18.618  0.00  0.00    +0.000 C 
BRANCH  11  12
ATOM     12  N   UNL     1       0.020  11.131  18.762  0.00  0.00    +0.000 N 
ATOM     13  N   UNL     1      -0.050  12.214  19.560  0.00  0.00    +0.000 NA
ATOM     14  N   UNL     1      -1.300  12.656  19.517  0.00  0.00    +0.000 NA
ATOM     15  C   UNL     1      -2.022  11.823  18.703  0.00  0.00    +0.000 A 
ATOM     16  C   UNL     1      -3.378  11.835  18.348  0.00  0.00    +0.000 A 
ATOM     17  C   UNL     1      -3.855  10.822  17.504  0.00  0.00    +0.000 A 
ATOM     18  C   UNL     1      -3.000   9.828  17.021  0.00  0.00    +0.000 A 
ATOM     19  C   UNL     1      -1.642   9.806  17.359  0.00  0.00    +0.000 A 
ATOM     20  C   UNL     1      -1.192  10.824  18.206  0.00  0.00    +0.000 A 
ENDBRANCH  11  12
ENDBRANCH   8  11
ENDBRANCH   1   9
BRANCH   5  21
ATOM     21  S   UNL     1       3.038   3.128  17.807  0.00  0.00    +0.000 S 
ATOM     22  O   UNL     1       3.143   1.913  18.583  0.00  0.00    +0.000 OA
ATOM     23  O   UNL     1       2.188   3.200  16.637  0.00  0.00    +0.000 OA
BRANCH  21  24
ATOM     24  N   UNL     1       4.627   3.619  17.364  0.00  0.00    +0.000 NA
ATOM     25  C   UNL     1       4.764   4.244  16.030  0.00  0.00    +0.000 C 
ATOM     26  C   UNL     1       6.086   3.877  15.359  0.00  0.00    +0.000 C 
ATOM     27  C   UNL     1       7.255   4.761  15.774  0.00  0.00    +0.000 C 
ATOM     28  C   UNL     1       7.628   4.629  17.243  0.00  0.00    +0.000 C 
ATOM     29  C   UNL     1       6.531   5.137  18.170  0.00  0.00    +0.000 C 
ATOM     30  C   UNL     1       5.468   4.095  18.492  0.00  0.00    +0.000 C 
ENDBRANCH  21  24
ENDBRANCH   5  21
TORSDOF 5
ENDMDL
MODEL 5
REMARK VINA RESULT:      -8.2      1.979      9.576
REMARK  Name = 
REMARK  5 active torsions:
REMARK  status: ('A' for Active; 'I' for Inactive)
REMARK    1  A    between atoms: C_2  and  C_3
REMARK    2  A    between atoms: C_3  and  N_4
REMARK    3  A    between atoms: N_13  and  C_14
REMARK    4  A    between atoms: C_18  and  S_19
REMARK    5  A    between atoms: S_19  and  N_22
REMARK                            x       y       z     vdW  Elec       q    Type
REMARK                         _______ _______ _______ _____ _____    ______ ____
ROOT
ATOM      1  C   UNL     1       1.641   8.464  20.107  0.00  0.00    +0.000 A 
ATOM      2  C   UNL     1       1.733   9.114  18.872  0.00  0.00    +0.000 A 
ATOM      3  C   UNL     1       2.159   8.431  17.728  0.00  0.00    +0.000 A 
ATOM      4  C   UNL     1       2.492   7.085  17.806  0.00  0.00    +0.000 A 
ATOM      5  C   UNL     1       2.412   6.430  19.038  0.00  0.00    +0.000 A 
ATOM      6  C   UNL     1       2.044   7.127  20.200  0.00  0.00    +0.000 A 
ENDROOT
BRANCH   1   9
ATOM      7  O   UNL     1      -0.929   8.038  21.452  0.00  0.00    +0.000 OA
ATOM      8  C   UNL     1      -0.103   8.863  21.846  0.00  0.00    +0.000 C 
ATOM      9  N   UNL     1       1.144   9.095  21.272  0.00  0.00    +0.000 N 
ATOM     10  H   UNL     1       1.817   9.614  21.832  0.00  0.00    +0.000 HD
BRANCH   8  11
ATOM     11  C   UNL     1      -0.426   9.730  23.035  0.00  0.00    +0.000 C 
BRANCH  11  12
ATOM     12  N   UNL     1      -0.528  11.120  22.665  0.00  0.00    +0.000 N 
ATOM     13  N   UNL     1       0.489  11.707  22.005  0.00  0.00    +0.000 NA
ATOM     14  N   UNL     1       0.144  12.970  21.793  0.00  0.00    +0.000 NA
ATOM     15  C   UNL     1      -1.090  13.178  22.350  0.00  0.00    +0.000 A 
ATOM     16  C   UNL     1      -1.882  14.332  22.424  0.00  0.00    +0.000 A 
ATOM     17  C   UNL     1      -3.113  14.256  23.092  0.00  0.00    +0.000 A 
ATOM     18  C   UNL     1      -3.544  13.057  23.666  0.00  0.00    +0.000 A 
ATOM     19  C   UNL     1      -2.770  11.893  23.594  0.00  0.00    +0.000 A 
ATOM     20  C   UNL     1      -1.545  11.997  22.926  0.00  0.00    +0.000 A 
ENDBRANCH  11  12
ENDBRANCH   8  11
ENDBRANCH   1   9
BRANCH   5  21
ATOM     21  S   UNL     1       2.801   4.691  19.122  0.00  0.00    +0.000 S 
ATOM     22  O   UNL     1       2.935   4.338  20.518  0.00  0.00    +0.000 OA
ATOM     23  O   UNL     1       1.859   4.004  18.263  0.00  0.00    +0.000 OA
BRANCH  21  24
ATOM     24  N   UNL     1       4.360   4.619  18.399  0.00  0.00    +0.000 NA
ATOM     25  C   UNL     1       4.394   4.689  16.922  0.00  0.00    +0.000 C 
ATOM     26  C   UNL     1       5.502   3.819  16.332  0.00  0.00    +0.000 C 
ATOM     27  C   UNL     1       6.863   4.501  16.288  0.00  0.00    +0.000 C 
ATOM     28  C   UNL     1       7.436   4.810  17.663  0.00  0.00    +0.000 C 
ATOM     29  C   UNL     1       6.612   5.846  18.416  0.00  0.00    +0.000 C 
ATOM     30  C   UNL     1       5.443   5.254  19.192  0.00  0.00    +0.000 C 
ENDBRANCH  21  24
ENDBRANCH   5  21
TORSDOF 5
ENDMDL
MODEL 6
REMARK VINA RESULT:      -8.2      2.240      2.947
REMARK  Name = 
REMARK  5 active torsions:
REMARK  status: ('A' for Active; 'I' for Inactive)
REMARK    1  A    between atoms: C_2  and  C_3
REMARK    2  A    between atoms: C_3  and  N_4
REMARK    3  A    between atoms: N_13  and  C_14
REMARK    4  A    between atoms: C_18  and  S_19
REMARK    5  A    between atoms: S_19  and  N_22
REMARK                            x       y       z     vdW  Elec       q    Type
REMARK                         _______ _______ _______ _____ _____    ______ ____
ROOT
ATOM      1  C   UNL     1       1.744   7.291  20.555  0.00  0.00    +0.000 A 
ATOM      2  C   UNL     1       0.808   7.388  21.590  0.00  0.00    +0.000 A 
ATOM      3  C   UNL     1      -0.022   8.508  21.710  0.00  0.00    +0.000 A 
ATOM      4  C   UNL     1       0.070   9.542  20.786  0.00  0.00    +0.000 A 
ATOM      5  C   UNL     1       1.008   9.457  19.754  0.00  0.00    +0.000 A 
ATOM      6  C   UNL     1       1.885   8.364  19.667  0.00  0.00    +0.000 A 
ENDROOT
BRANCH   1   9
ATOM      7  O   UNL     1       1.850   5.531  18.213  0.00  0.00    +0.000 OA
ATOM      8  C   UNL     1       2.532   5.335  19.221  0.00  0.00    +0.000 C 
ATOM      9  N   UNL     1       2.550   6.146  20.353  0.00  0.00    +0.000 N 
ATOM     10  H   UNL     1       3.327   6.015  20.997  0.00  0.00    +0.000 HD
BRANCH   8  11
ATOM     11  C   UNL     1       3.427   4.125  19.292  0.00  0.00    +0.000 C 
BRANCH  11  12
ATOM     12  N   UNL     1       4.765   4.428  18.849  0.00  0.00    +0.000 N 
ATOM     13  N   UNL     1       5.682   4.840  19.745  0.00  0.00    +0.000 NA
ATOM     14  N   UNL     1       6.813   5.050  19.083  0.00  0.00    +0.000 NA
ATOM     15  C   UNL     1       6.588   4.791  17.757  0.00  0.00    +0.000 A 
ATOM     16  C   UNL     1       7.438   4.883  16.647  0.00  0.00    +0.000 A 
ATOM     17  C   UNL     1       6.919   4.577  15.381  0.00  0.00    +0.000 A 
ATOM     18  C   UNL     1       5.587   4.182  15.229  0.00  0.00    +0.000 A 
ATOM     19  C   UNL     1       4.727   4.076  16.328  0.00  0.00    +0.000 A 
ATOM     20  C   UNL     1       5.268   4.392  17.578  0.00  0.00    +0.000 A 
ENDBRANCH  11  12
ENDBRANCH   8  11
ENDBRANCH   1   9
BRANCH   5  21
ATOM     21  S   UNL     1       1.090  10.769  18.548  0.00  0.00    +0.000 S 
ATOM     22  O   UNL     1       1.464  11.981  19.242  0.00  0.00    +0.000 OA
ATOM     23  O   UNL     1       1.871  10.273  17.433  0.00  0.00    +0.000 OA
BRANCH  21  24
ATOM     24  N   UNL     1      -0.549  10.922  18.047  0.00  0.00    +0.000 NA
ATOM     25  C   UNL     1      -1.214   9.674  17.614  0.00  0.00    +0.000 C 
ATOM     26  C   UNL     1      -2.194   9.915  16.468  0.00  0.00    +0.000 C 
ATOM     27  C   UNL     1      -3.576  10.366  16.924  0.00  0.00    +0.000 C 
ATOM     28  C   UNL     1      -3.581  11.727  17.603  0.00  0.00    +0.000 C 
ATOM     29  C   UNL     1      -2.824  11.721  18.924  0.00  0.00    +0.000 C 
ATOM     30  C   UNL     1      -1.327  11.959  18.774  0.00  0.00    +0.000 C 
ENDBRANCH  21  24
ENDBRANCH   5  21
TORSDOF 5
ENDMDL
MODEL 7
REMARK VINA RESULT:      -8.1      6.145      9.342
REMARK  Name = 
REMARK  5 active torsions:
REMARK  status: ('A' for Active; 'I' for Inactive)
REMARK    1  A    between atoms: C_2  and  C_3
REMARK    2  A    between atoms: C_3  and  N_4
REMARK    3  A    between atoms: N_13  and  C_14
REMARK    4  A    between atoms: C_18  and  S_19
REMARK    5  A    between atoms: S_19  and  N_22
REMARK                            x       y       z     vdW  Elec       q    Type
REMARK                         _______ _______ _______ _____ _____    ______ ____
ROOT
ATOM      1  C   UNL     1       7.568   7.613  17.719  0.00  0.00    +0.000 A 
ATOM      2  C   UNL     1       8.197   6.939  18.771  0.00  0.00    +0.000 A 
ATOM      3  C   UNL     1       7.990   5.572  18.978  0.00  0.00    +0.000 A 
ATOM      4  C   UNL     1       7.154   4.859  18.126  0.00  0.00    +0.000 A 
ATOM      5  C   UNL     1       6.514   5.527  17.079  0.00  0.00    +0.000 A 
ATOM      6  C   UNL     1       6.671   6.911  16.905  0.00  0.00    +0.000 A 
ENDROOT
BRANCH   1   9
ATOM      7  O   UNL     1       9.093   9.568  19.283  0.00  0.00    +0.000 OA
ATOM      8  C   UNL     1       8.522   9.861  18.231  0.00  0.00    +0.000 C 
ATOM      9  N   UNL     1       7.807   8.977  17.427  0.00  0.00    +0.000 N 
ATOM     10  H   UNL     1       7.602   9.284  16.479  0.00  0.00    +0.000 HD
BRANCH   8  11
ATOM     11  C   UNL     1       8.557  11.284  17.736  0.00  0.00    +0.000 C 
BRANCH  11  12
ATOM     12  N   UNL     1       9.761  11.960  18.151  0.00  0.00    +0.000 N 
ATOM     13  N   UNL     1      10.945  11.586  17.630  0.00  0.00    +0.000 NA
ATOM     14  N   UNL     1      11.877  12.356  18.176  0.00  0.00    +0.000 NA
ATOM     15  C   UNL     1      11.267  13.200  19.066  0.00  0.00    +0.000 A 
ATOM     16  C   UNL     1      11.801  14.183  19.912  0.00  0.00    +0.000 A 
ATOM     17  C   UNL     1      10.926  14.888  20.751  0.00  0.00    +0.000 A 
ATOM     18  C   UNL     1       9.554  14.624  20.741  0.00  0.00    +0.000 A 
ATOM     19  C   UNL     1       9.004  13.653  19.896  0.00  0.00    +0.000 A 
ATOM     20  C   UNL     1       9.898  12.961  19.073  0.00  0.00    +0.000 A 
ENDBRANCH  11  12
ENDBRANCH   8  11
ENDBRANCH   1   9
BRANCH   5  21
ATOM     21  S   UNL     1       5.475   4.596  15.965  0.00  0.00    +0.000 S 
ATOM     22  O   UNL     1       5.072   5.483  14.897  0.00  0.00    +0.000 OA
ATOM     23  O   UNL     1       6.161   3.351  15.686  0.00  0.00    +0.000 OA
BRANCH  21  24
ATOM     24  N   UNL     1       4.093   4.260  16.933  0.00  0.00    +0.000 NA
ATOM     25  C   UNL     1       4.063   2.931  17.581  0.00  0.00    +0.000 C 
ATOM     26  C   UNL     1       2.648   2.361  17.653  0.00  0.00    +0.000 C 
ATOM     27  C   UNL     1       1.848   2.845  18.855  0.00  0.00    +0.000 C 
ATOM     28  C   UNL     1       1.560   4.339  18.835  0.00  0.00    +0.000 C 
ATOM     29  C   UNL     1       2.825   5.177  18.965  0.00  0.00    +0.000 C 
ATOM     30  C   UNL     1       3.527   5.438  17.639  0.00  0.00    +0.000 C 
ENDBRANCH  21  24
ENDBRANCH   5  21
TORSDOF 5
ENDMDL
MODEL 8
REMARK VINA RESULT:      -8.1      2.015      9.867
REMARK  Name = 
REMARK  5 active torsions:
REMARK  status: ('A' for Active; 'I' for Inactive)
REMARK    1  A    between atoms: C_2  and  C_3
REMARK    2  A    between atoms: C_3  and  N_4
REMARK    3  A    between atoms: N_13  and  C_14
REMARK    4  A    between atoms: C_18  and  S_19
REMARK    5  A    between atoms: S_19  and  N_22
REMARK                            x       y       z     vdW  Elec       q    Type
REMARK                         _______ _______ _______ _____ _____    ______ ____
ROOT
ATOM      1  C   UNL     1       1.168   9.036  19.845  0.00  0.00    +0.000 A 
ATOM      2  C   UNL     1       1.705   9.769  18.782  0.00  0.00    +0.000 A 
ATOM      3  C   UNL     1       2.544   9.165  17.840  0.00  0.00    +0.000 A 
ATOM      4  C   UNL     1       2.850   7.814  17.949  0.00  0.00    +0.000 A 
ATOM      5  C   UNL     1       2.325   7.076  19.013  0.00  0.00    +0.000 A 
ATOM      6  C   UNL     1       1.532   7.693  19.994  0.00  0.00    +0.000 A 
ENDROOT
BRANCH   1   9
ATOM      7  O   UNL     1       1.511   9.399  22.734  0.00  0.00    +0.000 OA
ATOM      8  C   UNL     1       0.473   9.708  22.146  0.00  0.00    +0.000 C 
ATOM      9  N   UNL     1       0.255   9.588  20.776  0.00  0.00    +0.000 N 
ATOM     10  H   UNL     1      -0.534  10.102  20.391  0.00  0.00    +0.000 HD
BRANCH   8  11
ATOM     11  C   UNL     1      -0.694  10.251  22.929  0.00  0.00    +0.000 C 
BRANCH  11  12
ATOM     12  N   UNL     1      -0.907  11.651  22.660  0.00  0.00    +0.000 N 
ATOM     13  N   UNL     1       0.048  12.358  22.028  0.00  0.00    +0.000 NA
ATOM     14  N   UNL     1      -0.394  13.603  21.910  0.00  0.00    +0.000 NA
ATOM     15  C   UNL     1      -1.629  13.677  22.501  0.00  0.00    +0.000 A 
ATOM     16  C   UNL     1      -2.503  14.759  22.668  0.00  0.00    +0.000 A 
ATOM     17  C   UNL     1      -3.710  14.543  23.348  0.00  0.00    +0.000 A 
ATOM     18  C   UNL     1      -4.038  13.278  23.842  0.00  0.00    +0.000 A 
ATOM     19  C   UNL     1      -3.181  12.184  23.676  0.00  0.00    +0.000 A 
ATOM     20  C   UNL     1      -1.982  12.428  22.998  0.00  0.00    +0.000 A 
ENDBRANCH  11  12
ENDBRANCH   8  11
ENDBRANCH   1   9
BRANCH   5  21
ATOM     21  S   UNL     1       2.688   5.332  19.122  0.00  0.00    +0.000 S 
ATOM     22  O   UNL     1       2.860   5.006  20.520  0.00  0.00    +0.000 OA
ATOM     23  O   UNL     1       1.710   4.644  18.306  0.00  0.00    +0.000 OA
BRANCH  21  24
ATOM     24  N   UNL     1       4.223   5.220  18.354  0.00  0.00    +0.000 NA
ATOM     25  C   UNL     1       5.374   4.944  19.241  0.00  0.00    +0.000 C 
ATOM     26  C   UNL     1       6.639   5.663  18.779  0.00  0.00    +0.000 C 
ATOM     27  C   UNL     1       7.422   4.911  17.710  0.00  0.00    +0.000 C 
ATOM     28  C   UNL     1       6.672   4.766  16.395  0.00  0.00    +0.000 C 
ATOM     29  C   UNL     1       5.433   3.890  16.524  0.00  0.00    +0.000 C 
ATOM     30  C   UNL     1       4.193   4.645  16.984  0.00  0.00    +0.000 C 
ENDBRANCH  21  24
ENDBRANCH   5  21
TORSDOF 5
ENDMDL
MODEL 9
REMARK VINA RESULT:      -7.9      2.184     10.063
REMARK  Name = 
REMARK  5 active torsions:
REMARK  status: ('A' for Active; 'I' for Inactive)
REMARK    1  A    between atoms: C_2  and  C_3
REMARK    2  A    between atoms: C_3  and  N_4
REMARK    3  A    between atoms: N_13  and  C_14
REMARK    4  A    between atoms: C_18  and  S_19
REMARK    5  A    between atoms: S_19  and  N_22
REMARK                            x       y       z     vdW  Elec       q    Type
REMARK                         _______ _______ _______ _____ _____    ______ ____
ROOT
ATOM      1  C   UNL     1       1.101   9.039  19.820  0.00  0.00    +0.000 A 
ATOM      2  C   UNL     1       1.530   9.726  18.679  0.00  0.00    +0.000 A 
ATOM      3  C   UNL     1       2.332   9.101  17.719  0.00  0.00    +0.000 A 
ATOM      4  C   UNL     1       2.708   7.774  17.886  0.00  0.00    +0.000 A 
ATOM      5  C   UNL     1       2.291   7.082  19.027  0.00  0.00    +0.000 A 
ATOM      6  C   UNL     1       1.538   7.725  20.022  0.00  0.00    +0.000 A 
ENDROOT
BRANCH   1   9
ATOM      7  O   UNL     1       1.444  11.516  21.350  0.00  0.00    +0.000 OA
ATOM      8  C   UNL     1       0.465  10.780  21.490  0.00  0.00    +0.000 C 
ATOM      9  N   UNL     1       0.228   9.608  20.777  0.00  0.00    +0.000 N 
ATOM     10  H   UNL     1      -0.719   9.236  20.810  0.00  0.00    +0.000 HD
BRANCH   8  11
ATOM     11  C   UNL     1      -0.584  11.124  22.516  0.00  0.00    +0.000 C 
BRANCH  11  12
ATOM     12  N   UNL     1      -1.718  11.779  21.914  0.00  0.00    +0.000 N 
ATOM     13  N   UNL     1      -1.716  12.027  20.590  0.00  0.00    +0.000 NA
ATOM     14  N   UNL     1      -2.861  12.632  20.301  0.00  0.00    +0.000 NA
ATOM     15  C   UNL     1      -3.571  12.785  21.462  0.00  0.00    +0.000 A 
ATOM     16  C   UNL     1      -4.817  13.378  21.705  0.00  0.00    +0.000 A 
ATOM     17  C   UNL     1      -5.293  13.417  23.023  0.00  0.00    +0.000 A 
ATOM     18  C   UNL     1      -4.547  12.871  24.071  0.00  0.00    +0.000 A 
ATOM     19  C   UNL     1      -3.305  12.267  23.845  0.00  0.00    +0.000 A 
ATOM     20  C   UNL     1      -2.851  12.246  22.522  0.00  0.00    +0.000 A 
ENDBRANCH  11  12
ENDBRANCH   8  11
ENDBRANCH   1   9
BRANCH   5  21
ATOM     21  S   UNL     1       2.743   5.366  19.213  0.00  0.00    +0.000 S 
ATOM     22  O   UNL     1       2.950   5.117  20.622  0.00  0.00    +0.000 OA
ATOM     23  O   UNL     1       1.788   4.591  18.448  0.00  0.00    +0.000 OA
BRANCH  21  24
ATOM     24  N   UNL     1       4.270   5.292  18.425  0.00  0.00    +0.000 NA
ATOM     25  C   UNL     1       5.428   4.963  19.285  0.00  0.00    +0.000 C 
ATOM     26  C   UNL     1       6.692   5.703  18.853  0.00  0.00    +0.000 C 
ATOM     27  C   UNL     1       7.461   5.010  17.736  0.00  0.00    +0.000 C 
ATOM     28  C   UNL     1       6.699   4.941  16.421  0.00  0.00    +0.000 C 
ATOM     29  C   UNL     1       5.458   4.063  16.513  0.00  0.00    +0.000 C 
ATOM     30  C   UNL     1       4.225   4.795  17.026  0.00  0.00    +0.000 C 
ENDBRANCH  21  24
ENDBRANCH   5  21
TORSDOF 5
ENDMDL
