MODEL 1
REMARK VINA RESULT:      -8.6      0.000      0.000
REMARK  Name = 
REMARK  2 active torsions:
REMARK  status: ('A' for Active; 'I' for Inactive)
REMARK    1  A    between atoms: C_2  and  C_13
REMARK    2  A    between atoms: N_3  and  C_4
REMARK                            x       y       z     vdW  Elec       q    Type
REMARK                         _______ _______ _______ _____ _____    ______ ____
ROOT
ATOM      1  C   UNL     1       0.346   9.469  19.564  0.00  0.00    +0.000 C 
ATOM      2  C   UNL     1       0.703   8.490  20.693  0.00  0.00    +0.000 C 
ATOM      3  C   UNL     1       2.115   7.917  20.605  0.00  0.00    +0.000 C 
ATOM      4  N   UNL     1       2.374   7.466  19.243  0.00  0.00    +0.000 N 
ATOM      5  C   UNL     1       3.036   6.282  19.007  0.00  0.00    +0.000 C 
ATOM      6  N   UNL     1       4.162   6.154  18.369  0.00  0.00    +0.000 NA
ATOM      7  S   UNL     1       4.637   4.578  18.337  0.00  0.00    +0.000 S 
ATOM      8  O   UNL     1       5.753   4.365  19.239  0.00  0.00    +0.000 OA
ATOM      9  O   UNL     1       4.618   4.077  16.982  0.00  0.00    +0.000 OA
ATOM     10  C   UNL     1       3.220   3.950  19.129  0.00  0.00    +0.000 A 
ATOM     11  C   UNL     1       2.860   2.640  19.369  0.00  0.00    +0.000 A 
ATOM     12  C   UNL     1       1.628   2.423  19.996  0.00  0.00    +0.000 A 
ATOM     13  C   UNL     1       0.795   3.501  20.344  0.00  0.00    +0.000 A 
ATOM     14  C   UNL     1       1.183   4.809  20.058  0.00  0.00    +0.000 A 
ATOM     15  C   UNL     1       2.416   5.014  19.461  0.00  0.00    +0.000 A 
ATOM     16  C   UNL     1       2.294   8.503  18.220  0.00  0.00    +0.000 C 
ATOM     17  C   UNL     1       0.839   8.976  18.188  0.00  0.00    +0.000 C 
ENDROOT
BRANCH   1  19
ATOM     18  O   UNL     1       1.184  11.220  20.969  0.00  0.00    +0.000 OA
ATOM     19  C   UNL     1       0.827  10.891  19.843  0.00  0.00    +0.000 C 
ATOM     20  N   UNL     1       0.821  11.716  18.729  0.00  0.00    +0.000 N 
ATOM     21  H   UNL     1       0.374  11.381  17.885  0.00  0.00    +0.000 HD
BRANCH  20  22
ATOM     22  C   UNL     1       1.214  13.070  18.712  0.00  0.00    +0.000 A 
ATOM     23  C   UNL     1       0.338  14.129  19.026  0.00  0.00    +0.000 A 
ATOM     24  C   UNL     1       0.757  15.461  18.949  0.00  0.00    +0.000 A 
ATOM     25  C   UNL     1       2.047  15.701  18.538  0.00  0.00    +0.000 A 
ATOM     26  C   UNL     1       2.911  14.674  18.246  0.00  0.00    +0.000 A 
ATOM     27  C   UNL     1       2.536  13.350  18.346  0.00  0.00    +0.000 A 
ATOM     28  O   UNL     1       4.129  15.122  17.840  0.00  0.00    +0.000 OA
ATOM     29  C   UNL     1       3.900  16.548  17.835  0.00  0.00    +0.000 C 
ATOM     30  O   UNL     1       2.613  16.923  18.365  0.00  0.00    +0.000 OA
ENDBRANCH  20  22
ENDBRANCH   1  19
TORSDOF 2
ENDMDL
MODEL 2
REMARK VINA RESULT:      -8.6      0.647      1.341
REMARK  Name = 
REMARK  2 active torsions:
REMARK  status: ('A' for Active; 'I' for Inactive)
REMARK    1  A    between atoms: C_2  and  C_13
REMARK    2  A    between atoms: N_3  and  C_4
REMARK                            x       y       z     vdW  Elec       q    Type
REMARK                         _______ _______ _______ _____ _____    ______ ____
ROOT
ATOM      1  C   UNL     1       0.460   9.635  19.355  0.00  0.00    +0.000 C 
ATOM      2  C   UNL     1       0.761   8.669  20.510  0.00  0.00    +0.000 C 
ATOM      3  C   UNL     1       2.157   8.051  20.466  0.00  0.00    +0.000 C 
ATOM      4  N   UNL     1       2.434   7.566  19.119  0.00  0.00    +0.000 N 
ATOM      5  C   UNL     1       3.064   6.359  18.922  0.00  0.00    +0.000 C 
ATOM      6  N   UNL     1       4.200   6.185  18.313  0.00  0.00    +0.000 NA
ATOM      7  S   UNL     1       4.627   4.595  18.322  0.00  0.00    +0.000 S 
ATOM      8  O   UNL     1       5.716   4.366  19.254  0.00  0.00    +0.000 OA
ATOM      9  O   UNL     1       4.624   4.068  16.977  0.00  0.00    +0.000 OA
ATOM     10  C   UNL     1       3.175   4.025  19.093  0.00  0.00    +0.000 A 
ATOM     11  C   UNL     1       2.769   2.731  19.349  0.00  0.00    +0.000 A 
ATOM     12  C   UNL     1       1.517   2.564  19.951  0.00  0.00    +0.000 A 
ATOM     13  C   UNL     1       0.710   3.673  20.259  0.00  0.00    +0.000 A 
ATOM     14  C   UNL     1       1.144   4.963  19.957  0.00  0.00    +0.000 A 
ATOM     15  C   UNL     1       2.395   5.119  19.385  0.00  0.00    +0.000 A 
ATOM     16  C   UNL     1       2.409   8.585  18.075  0.00  0.00    +0.000 C 
ATOM     17  C   UNL     1       0.969   9.101  18.000  0.00  0.00    +0.000 C 
ENDROOT
BRANCH   1  19
ATOM     18  O   UNL     1       1.228  11.419  20.759  0.00  0.00    +0.000 OA
ATOM     19  C   UNL     1       0.978  11.048  19.618  0.00  0.00    +0.000 C 
ATOM     20  N   UNL     1       1.131  11.813  18.472  0.00  0.00    +0.000 N 
ATOM     21  H   UNL     1       0.760  11.455  17.601  0.00  0.00    +0.000 HD
BRANCH  20  22
ATOM     22  C   UNL     1       1.589  13.146  18.435  0.00  0.00    +0.000 A 
ATOM     23  C   UNL     1       2.918  13.494  18.120  0.00  0.00    +0.000 A 
ATOM     24  C   UNL     1       3.340  14.828  18.142  0.00  0.00    +0.000 A 
ATOM     25  C   UNL     1       2.418  15.782  18.500  0.00  0.00    +0.000 A 
ATOM     26  C   UNL     1       1.117  15.453  18.792  0.00  0.00    +0.000 A 
ATOM     27  C   UNL     1       0.664  14.151  18.744  0.00  0.00    +0.000 A 
ATOM     28  O   UNL     1       0.374  16.537  19.141  0.00  0.00    +0.000 OA
ATOM     29  C   UNL     1       1.382  17.571  19.112  0.00  0.00    +0.000 C 
ATOM     30  O   UNL     1       2.656  17.114  18.616  0.00  0.00    +0.000 OA
ENDBRANCH  20  22
ENDBRANCH   1  19
TORSDOF 2
ENDMDL
MODEL 3
REMARK VINA RESULT:      -8.5      3.740      5.173
REMARK  Name = 
REMARK  2 active torsions:
REMARK  status: ('A' for Active; 'I' for Inactive)
REMARK    1  A    between atoms: C_2  and  C_13
REMARK    2  A    between atoms: N_3  and  C_4
REMARK                            x       y       z     vdW  Elec       q    Type
REMARK                         _______ _______ _______ _____ _____    ______ ____
ROOT
ATOM      1  C   UNL     1       1.587   9.563  19.270  0.00  0.00    +0.000 C 
ATOM      2  C   UNL     1       2.172   9.137  17.915  0.00  0.00    +0.000 C 
ATOM      3  C   UNL     1       2.074   7.640  17.630  0.00  0.00    +0.000 C 
ATOM      4  N   UNL     1       2.520   6.891  18.800  0.00  0.00    +0.000 N 
ATOM      5  C   UNL     1       3.312   5.774  18.660  0.00  0.00    +0.000 C 
ATOM      6  N   UNL     1       3.006   4.571  19.048  0.00  0.00    +0.000 NA
ATOM      7  S   UNL     1       4.206   3.512  18.663  0.00  0.00    +0.000 S 
ATOM      8  O   UNL     1       3.802   2.668  17.554  0.00  0.00    +0.000 OA
ATOM      9  O   UNL     1       4.817   2.990  19.863  0.00  0.00    +0.000 OA
ATOM     10  C   UNL     1       5.295   4.706  18.018  0.00  0.00    +0.000 A 
ATOM     11  C   UNL     1       6.594   4.558  17.574  0.00  0.00    +0.000 A 
ATOM     12  C   UNL     1       7.255   5.713  17.142  0.00  0.00    +0.000 A 
ATOM     13  C   UNL     1       6.619   6.966  17.181  0.00  0.00    +0.000 A 
ATOM     14  C   UNL     1       5.316   7.077  17.664  0.00  0.00    +0.000 A 
ATOM     15  C   UNL     1       4.662   5.925  18.065  0.00  0.00    +0.000 A 
ATOM     16  C   UNL     1       1.749   7.123  20.016  0.00  0.00    +0.000 C 
ATOM     17  C   UNL     1       1.969   8.588  20.403  0.00  0.00    +0.000 C 
ENDROOT
BRANCH   1  19
ATOM     18  O   UNL     1      -0.622   9.547  20.199  0.00  0.00    +0.000 OA
ATOM     19  C   UNL     1       0.076   9.779  19.218  0.00  0.00    +0.000 C 
ATOM     20  N   UNL     1      -0.382  10.252  17.999  0.00  0.00    +0.000 N 
ATOM     21  H   UNL     1       0.261  10.272  17.218  0.00  0.00    +0.000 HD
BRANCH  20  22
ATOM     22  C   UNL     1      -1.728  10.533  17.685  0.00  0.00    +0.000 A 
ATOM     23  C   UNL     1      -2.335  10.135  16.477  0.00  0.00    +0.000 A 
ATOM     24  C   UNL     1      -3.660  10.477  16.187  0.00  0.00    +0.000 A 
ATOM     25  C   UNL     1      -4.341  11.231  17.112  0.00  0.00    +0.000 A 
ATOM     26  C   UNL     1      -3.762  11.610  18.298  0.00  0.00    +0.000 A 
ATOM     27  C   UNL     1      -2.469  11.257  18.627  0.00  0.00    +0.000 A 
ATOM     28  O   UNL     1      -4.594  12.367  19.063  0.00  0.00    +0.000 OA
ATOM     29  C   UNL     1      -5.732  12.485  18.182  0.00  0.00    +0.000 C 
ATOM     30  O   UNL     1      -5.613  11.691  16.984  0.00  0.00    +0.000 OA
ENDBRANCH  20  22
ENDBRANCH   1  19
TORSDOF 2
ENDMDL
MODEL 4
REMARK VINA RESULT:      -7.7      4.825      9.866
REMARK  Name = 
REMARK  2 active torsions:
REMARK  status: ('A' for Active; 'I' for Inactive)
REMARK    1  A    between atoms: C_2  and  C_13
REMARK    2  A    between atoms: N_3  and  C_4
REMARK                            x       y       z     vdW  Elec       q    Type
REMARK                         _______ _______ _______ _____ _____    ______ ____
ROOT
ATOM      1  C   UNL     1       0.383  11.726  19.767  0.00  0.00    +0.000 C 
ATOM      2  C   UNL     1       0.579  11.754  21.290  0.00  0.00    +0.000 C 
ATOM      3  C   UNL     1      -0.657  11.349  22.090  0.00  0.00    +0.000 C 
ATOM      4  N   UNL     1      -1.827  12.045  21.568  0.00  0.00    +0.000 N 
ATOM      5  C   UNL     1      -2.770  12.572  22.420  0.00  0.00    +0.000 C 
ATOM      6  N   UNL     1      -4.027  12.241  22.461  0.00  0.00    +0.000 NA
ATOM      7  S   UNL     1      -4.811  13.074  23.645  0.00  0.00    +0.000 S 
ATOM      8  O   UNL     1      -5.109  12.203  24.767  0.00  0.00    +0.000 OA
ATOM      9  O   UNL     1      -5.786  13.968  23.067  0.00  0.00    +0.000 OA
ATOM     10  C   UNL     1      -3.445  14.047  24.110  0.00  0.00    +0.000 A 
ATOM     11  C   UNL     1      -3.377  15.085  25.017  0.00  0.00    +0.000 A 
ATOM     12  C   UNL     1      -2.141  15.725  25.162  0.00  0.00    +0.000 A 
ATOM     13  C   UNL     1      -1.030  15.330  24.397  0.00  0.00    +0.000 A 
ATOM     14  C   UNL     1      -1.147  14.295  23.470  0.00  0.00    +0.000 A 
ATOM     15  C   UNL     1      -2.368  13.651  23.353  0.00  0.00    +0.000 A 
ATOM     16  C   UNL     1      -2.141  11.769  20.171  0.00  0.00    +0.000 C 
ATOM     17  C   UNL     1      -0.976  12.318  19.342  0.00  0.00    +0.000 C 
ENDROOT
BRANCH   1  19
ATOM     18  O   UNL     1      -0.024   9.989  18.166  0.00  0.00    +0.000 OA
ATOM     19  C   UNL     1       0.586  10.333  19.172  0.00  0.00    +0.000 C 
ATOM     20  N   UNL     1       1.499   9.554  19.864  0.00  0.00    +0.000 N 
ATOM     21  H   UNL     1       1.835   9.886  20.760  0.00  0.00    +0.000 HD
BRANCH  20  22
ATOM     22  C   UNL     1       1.867   8.234  19.530  0.00  0.00    +0.000 A 
ATOM     23  C   UNL     1       2.380   7.875  18.267  0.00  0.00    +0.000 A 
ATOM     24  C   UNL     1       2.686   6.545  17.963  0.00  0.00    +0.000 A 
ATOM     25  C   UNL     1       2.451   5.599  18.932  0.00  0.00    +0.000 A 
ATOM     26  C   UNL     1       1.966   5.943  20.170  0.00  0.00    +0.000 A 
ATOM     27  C   UNL     1       1.688   7.250  20.510  0.00  0.00    +0.000 A 
ATOM     28  O   UNL     1       1.784   4.861  20.974  0.00  0.00    +0.000 OA
ATOM     29  C   UNL     1       2.135   3.793  20.067  0.00  0.00    +0.000 C 
ATOM     30  O   UNL     1       2.646   4.261  18.803  0.00  0.00    +0.000 OA
ENDBRANCH  20  22
ENDBRANCH   1  19
TORSDOF 2
ENDMDL
MODEL 5
REMARK VINA RESULT:      -7.6      1.670      1.845
REMARK  Name = 
REMARK  2 active torsions:
REMARK  status: ('A' for Active; 'I' for Inactive)
REMARK    1  A    between atoms: C_2  and  C_13
REMARK    2  A    between atoms: N_3  and  C_4
REMARK                            x       y       z     vdW  Elec       q    Type
REMARK                         _______ _______ _______ _____ _____    ______ ____
ROOT
ATOM      1  C   UNL     1       0.505   9.551  18.882  0.00  0.00    +0.000 C 
ATOM      2  C   UNL     1       0.833   8.744  20.147  0.00  0.00    +0.000 C 
ATOM      3  C   UNL     1       2.240   8.152  20.168  0.00  0.00    +0.000 C 
ATOM      4  N   UNL     1       2.517   7.505  18.891  0.00  0.00    +0.000 N 
ATOM      5  C   UNL     1       3.169   6.294  18.841  0.00  0.00    +0.000 C 
ATOM      6  N   UNL     1       4.304   6.065  18.249  0.00  0.00    +0.000 NA
ATOM      7  S   UNL     1       4.762   4.498  18.454  0.00  0.00    +0.000 S 
ATOM      8  O   UNL     1       5.861   4.409  19.398  0.00  0.00    +0.000 OA
ATOM      9  O   UNL     1       4.760   3.805  17.187  0.00  0.00    +0.000 OA
ATOM     10  C   UNL     1       3.326   4.003  19.304  0.00  0.00    +0.000 A 
ATOM     11  C   UNL     1       2.947   2.745  19.726  0.00  0.00    +0.000 A 
ATOM     12  C   UNL     1       1.703   2.632  20.356  0.00  0.00    +0.000 A 
ATOM     13  C   UNL     1       0.877   3.756  20.529  0.00  0.00    +0.000 A 
ATOM     14  C   UNL     1       1.284   5.005  20.063  0.00  0.00    +0.000 A 
ATOM     15  C   UNL     1       2.528   5.111  19.464  0.00  0.00    +0.000 A 
ATOM     16  C   UNL     1       2.465   8.383  17.727  0.00  0.00    +0.000 C 
ATOM     17  C   UNL     1       1.015   8.859  17.601  0.00  0.00    +0.000 C 
ENDROOT
BRANCH   1  19
ATOM     18  O   UNL     1       2.071  11.316  18.462  0.00  0.00    +0.000 OA
ATOM     19  C   UNL     1       0.997  10.995  18.959  0.00  0.00    +0.000 C 
ATOM     20  N   UNL     1       0.126  11.851  19.614  0.00  0.00    +0.000 N 
ATOM     21  H   UNL     1      -0.662  11.452  20.107  0.00  0.00    +0.000 HD
BRANCH  20  22
ATOM     22  C   UNL     1       0.340  13.229  19.825  0.00  0.00    +0.000 A 
ATOM     23  C   UNL     1       1.040  13.737  20.937  0.00  0.00    +0.000 A 
ATOM     24  C   UNL     1       1.186  15.115  21.131  0.00  0.00    +0.000 A 
ATOM     25  C   UNL     1       0.606  15.954  20.210  0.00  0.00    +0.000 A 
ATOM     26  C   UNL     1      -0.065  15.466  19.115  0.00  0.00    +0.000 A 
ATOM     27  C   UNL     1      -0.194  14.113  18.879  0.00  0.00    +0.000 A 
ATOM     28  O   UNL     1      -0.581  16.457  18.340  0.00  0.00    +0.000 OA
ATOM     29  C   UNL     1      -0.224  17.619  19.120  0.00  0.00    +0.000 C 
ATOM     30  O   UNL     1       0.607  17.311  20.257  0.00  0.00    +0.000 OA
ENDBRANCH  20  22
ENDBRANCH   1  19
TORSDOF 2
ENDMDL
MODEL 6
REMARK VINA RESULT:      -7.6      3.697      5.020
REMARK  Name = 
REMARK  2 active torsions:
REMARK  status: ('A' for Active; 'I' for Inactive)
REMARK    1  A    between atoms: C_2  and  C_13
REMARK    2  A    between atoms: N_3  and  C_4
REMARK                            x       y       z     vdW  Elec       q    Type
REMARK                         _______ _______ _______ _____ _____    ______ ____
ROOT
ATOM      1  C   UNL     1       1.543   9.576  19.689  0.00  0.00    +0.000 C 
ATOM      2  C   UNL     1       1.783   9.222  18.214  0.00  0.00    +0.000 C 
ATOM      3  C   UNL     1       1.420   7.786  17.844  0.00  0.00    +0.000 C 
ATOM      4  N   UNL     1       1.978   6.872  18.834  0.00  0.00    +0.000 N 
ATOM      5  C   UNL     1       2.561   5.687  18.448  0.00  0.00    +0.000 C 
ATOM      6  N   UNL     1       2.171   4.497  18.801  0.00  0.00    +0.000 NA
ATOM      7  S   UNL     1       3.109   3.344  18.094  0.00  0.00    +0.000 S 
ATOM      8  O   UNL     1       2.379   2.673  17.035  0.00  0.00    +0.000 OA
ATOM      9  O   UNL     1       3.866   2.630  19.096  0.00  0.00    +0.000 OA
ATOM     10  C   UNL     1       4.207   4.454  17.326  0.00  0.00    +0.000 A 
ATOM     11  C   UNL     1       5.357   4.194  16.610  0.00  0.00    +0.000 A 
ATOM     12  C   UNL     1       6.076   5.298  16.137  0.00  0.00    +0.000 A 
ATOM     13  C   UNL     1       5.644   6.608  16.402  0.00  0.00    +0.000 A 
ATOM     14  C   UNL     1       4.492   6.829  17.155  0.00  0.00    +0.000 A 
ATOM     15  C   UNL     1       3.774   5.731  17.597  0.00  0.00    +0.000 A 
ATOM     16  C   UNL     1       1.503   7.071  20.199  0.00  0.00    +0.000 C 
ATOM     17  C   UNL     1       2.000   8.451  20.640  0.00  0.00    +0.000 C 
ENDROOT
BRANCH   1  19
ATOM     18  O   UNL     1      -0.474   9.588  20.983  0.00  0.00    +0.000 OA
ATOM     19  C   UNL     1       0.098   9.980  19.972  0.00  0.00    +0.000 C 
ATOM     20  N   UNL     1      -0.454  10.806  19.005  0.00  0.00    +0.000 N 
ATOM     21  H   UNL     1       0.059  10.950  18.145  0.00  0.00    +0.000 HD
BRANCH  20  22
ATOM     22  C   UNL     1      -1.768  11.320  19.022  0.00  0.00    +0.000 A 
ATOM     23  C   UNL     1      -2.229  12.218  20.006  0.00  0.00    +0.000 A 
ATOM     24  C   UNL     1      -3.555  12.664  20.011  0.00  0.00    +0.000 A 
ATOM     25  C   UNL     1      -4.394  12.182  19.036  0.00  0.00    +0.000 A 
ATOM     26  C   UNL     1      -3.948  11.320  18.064  0.00  0.00    +0.000 A 
ATOM     27  C   UNL     1      -2.638  10.890  18.013  0.00  0.00    +0.000 A 
ATOM     28  O   UNL     1      -4.937  10.946  17.209  0.00  0.00    +0.000 OA
ATOM     29  C   UNL     1      -6.071  11.612  17.806  0.00  0.00    +0.000 C 
ATOM     30  O   UNL     1      -5.715  12.470  18.909  0.00  0.00    +0.000 OA
ENDBRANCH  20  22
ENDBRANCH   1  19
TORSDOF 2
ENDMDL
MODEL 7
REMARK VINA RESULT:      -7.6      1.677      1.944
REMARK  Name = 
REMARK  2 active torsions:
REMARK  status: ('A' for Active; 'I' for Inactive)
REMARK    1  A    between atoms: C_2  and  C_13
REMARK    2  A    between atoms: N_3  and  C_4
REMARK                            x       y       z     vdW  Elec       q    Type
REMARK                         _______ _______ _______ _____ _____    ______ ____
ROOT
ATOM      1  C   UNL     1       0.437   9.561  18.981  0.00  0.00    +0.000 C 
ATOM      2  C   UNL     1       0.770   8.725  20.226  0.00  0.00    +0.000 C 
ATOM      3  C   UNL     1       2.183   8.146  20.235  0.00  0.00    +0.000 C 
ATOM      4  N   UNL     1       2.468   7.536  18.942  0.00  0.00    +0.000 N 
ATOM      5  C   UNL     1       3.132   6.333  18.862  0.00  0.00    +0.000 C 
ATOM      6  N   UNL     1       4.271   6.131  18.267  0.00  0.00    +0.000 NA
ATOM      7  S   UNL     1       4.744   4.563  18.433  0.00  0.00    +0.000 S 
ATOM      8  O   UNL     1       5.842   4.460  19.376  0.00  0.00    +0.000 OA
ATOM      9  O   UNL     1       4.752   3.904  17.148  0.00  0.00    +0.000 OA
ATOM     10  C   UNL     1       3.311   4.033  19.266  0.00  0.00    +0.000 A 
ATOM     11  C   UNL     1       2.944   2.760  19.654  0.00  0.00    +0.000 A 
ATOM     12  C   UNL     1       1.700   2.619  20.277  0.00  0.00    +0.000 A 
ATOM     13  C   UNL     1       0.862   3.729  20.477  0.00  0.00    +0.000 A 
ATOM     14  C   UNL     1       1.257   4.994  20.045  0.00  0.00    +0.000 A 
ATOM     15  C   UNL     1       2.502   5.128  19.452  0.00  0.00    +0.000 A 
ATOM     16  C   UNL     1       2.410   8.443  17.801  0.00  0.00    +0.000 C 
ATOM     17  C   UNL     1       0.956   8.908  17.684  0.00  0.00    +0.000 C 
ENDROOT
BRANCH   1  19
ATOM     18  O   UNL     1       1.959  11.364  18.565  0.00  0.00    +0.000 OA
ATOM     19  C   UNL     1       0.914  11.007  19.097  0.00  0.00    +0.000 C 
ATOM     20  N   UNL     1       0.065  11.823  19.828  0.00  0.00    +0.000 N 
ATOM     21  H   UNL     1      -0.694  11.392  20.341  0.00  0.00    +0.000 HD
BRANCH  20  22
ATOM     22  C   UNL     1       0.271  13.194  20.088  0.00  0.00    +0.000 A 
ATOM     23  C   UNL     1      -0.036  14.207  19.158  0.00  0.00    +0.000 A 
ATOM     24  C   UNL     1       0.230  15.551  19.440  0.00  0.00    +0.000 A 
ATOM     25  C   UNL     1       0.819  15.845  20.646  0.00  0.00    +0.000 A 
ATOM     26  C   UNL     1       1.107  14.865  21.564  0.00  0.00    +0.000 A 
ATOM     27  C   UNL     1       0.824  13.536  21.328  0.00  0.00    +0.000 A 
ATOM     28  O   UNL     1       1.704  15.360  22.681  0.00  0.00    +0.000 OA
ATOM     29  C   UNL     1       1.830  16.753  22.321  0.00  0.00    +0.000 C 
ATOM     30  O   UNL     1       1.187  17.081  21.073  0.00  0.00    +0.000 OA
ENDBRANCH  20  22
ENDBRANCH   1  19
TORSDOF 2
ENDMDL
MODEL 8
REMARK VINA RESULT:      -7.6      4.747      9.771
REMARK  Name = 
REMARK  2 active torsions:
REMARK  status: ('A' for Active; 'I' for Inactive)
REMARK    1  A    between atoms: C_2  and  C_13
REMARK    2  A    between atoms: N_3  and  C_4
REMARK                            x       y       z     vdW  Elec       q    Type
REMARK                         _______ _______ _______ _____ _____    ______ ____
ROOT
ATOM      1  C   UNL     1       0.503  11.521  19.926  0.00  0.00    +0.000 C 
ATOM      2  C   UNL     1       0.575  11.553  21.460  0.00  0.00    +0.000 C 
ATOM      3  C   UNL     1      -0.741  11.220  22.159  0.00  0.00    +0.000 C 
ATOM      4  N   UNL     1      -1.826  11.972  21.539  0.00  0.00    +0.000 N 
ATOM      5  C   UNL     1      -2.807  12.555  22.308  0.00  0.00    +0.000 C 
ATOM      6  N   UNL     1      -4.079  12.290  22.248  0.00  0.00    +0.000 NA
ATOM      7  S   UNL     1      -4.911  13.173  23.360  0.00  0.00    +0.000 S 
ATOM      8  O   UNL     1      -5.345  12.329  24.458  0.00  0.00    +0.000 OA
ATOM      9  O   UNL     1      -5.788  14.112  22.700  0.00  0.00    +0.000 OA
ATOM     10  C   UNL     1      -3.539  14.077  23.931  0.00  0.00    +0.000 A 
ATOM     11  C   UNL     1      -3.490  15.118  24.836  0.00  0.00    +0.000 A 
ATOM     12  C   UNL     1      -2.238  15.694  25.078  0.00  0.00    +0.000 A 
ATOM     13  C   UNL     1      -1.091  15.235  24.409  0.00  0.00    +0.000 A 
ATOM     14  C   UNL     1      -1.186  14.200  23.480  0.00  0.00    +0.000 A 
ATOM     15  C   UNL     1      -2.426  13.620  23.267  0.00  0.00    +0.000 A 
ATOM     16  C   UNL     1      -2.040  11.699  20.122  0.00  0.00    +0.000 C 
ATOM     17  C   UNL     1      -0.784  12.180  19.389  0.00  0.00    +0.000 C 
ENDROOT
BRANCH   1  19
ATOM     18  O   UNL     1       0.152   9.800  18.296  0.00  0.00    +0.000 OA
ATOM     19  C   UNL     1       0.680  10.115  19.357  0.00  0.00    +0.000 C 
ATOM     20  N   UNL     1       1.472   9.288  20.137  0.00  0.00    +0.000 N 
ATOM     21  H   UNL     1       1.737   9.606  21.060  0.00  0.00    +0.000 HD
BRANCH  20  22
ATOM     22  C   UNL     1       1.792   7.946  19.842  0.00  0.00    +0.000 A 
ATOM     23  C   UNL     1       1.452   6.872  20.688  0.00  0.00    +0.000 A 
ATOM     24  C   UNL     1       1.832   5.561  20.379  0.00  0.00    +0.000 A 
ATOM     25  C   UNL     1       2.563   5.362  19.233  0.00  0.00    +0.000 A 
ATOM     26  C   UNL     1       2.884   6.403  18.395  0.00  0.00    +0.000 A 
ATOM     27  C   UNL     1       2.493   7.700  18.656  0.00  0.00    +0.000 A 
ATOM     28  O   UNL     1       3.627   5.999  17.330  0.00  0.00    +0.000 OA
ATOM     29  C   UNL     1       3.802   4.600  17.641  0.00  0.00    +0.000 C 
ATOM     30  O   UNL     1       3.052   4.173  18.797  0.00  0.00    +0.000 OA
ENDBRANCH  20  22
ENDBRANCH   1  19
TORSDOF 2
ENDMDL
MODEL 9
REMARK VINA RESULT:      -7.6      1.451      1.790
REMARK  Name = 
REMARK  2 active torsions:
REMARK  status: ('A' for Active; 'I' for Inactive)
REMARK    1  A    between atoms: C_2  and  C_13
REMARK    2  A    between atoms: N_3  and  C_4
REMARK                            x       y       z     vdW  Elec       q    Type
REMARK                         _______ _______ _______ _____ _____    ______ ____
ROOT
ATOM      1  C   UNL     1       0.495   9.416  19.298  0.00  0.00    +0.000 C 
ATOM      2  C   UNL     1       0.878   8.215  20.175  0.00  0.00    +0.000 C 
ATOM      3  C   UNL     1       2.317   7.738  19.994  0.00  0.00    +0.000 C 
ATOM      4  N   UNL     1       2.620   7.631  18.572  0.00  0.00    +0.000 N 
ATOM      5  C   UNL     1       3.341   6.565  18.083  0.00  0.00    +0.000 C 
ATOM      6  N   UNL     1       4.482   6.638  17.464  0.00  0.00    +0.000 NA
ATOM      7  S   UNL     1       5.031   5.135  17.077  0.00  0.00    +0.000 S 
ATOM      8  O   UNL     1       6.141   4.763  17.934  0.00  0.00    +0.000 OA
ATOM      9  O   UNL     1       5.058   4.966  15.642  0.00  0.00    +0.000 OA
ATOM     10  C   UNL     1       3.633   4.280  17.661  0.00  0.00    +0.000 A 
ATOM     11  C   UNL     1       3.330   2.936  17.577  0.00  0.00    +0.000 A 
ATOM     12  C   UNL     1       2.100   2.526  18.102  0.00  0.00    +0.000 A 
ATOM     13  C   UNL     1       1.212   3.456  18.670  0.00  0.00    +0.000 A 
ATOM     14  C   UNL     1       1.542   4.810  18.709  0.00  0.00    +0.000 A 
ATOM     15  C   UNL     1       2.773   5.201  18.210  0.00  0.00    +0.000 A 
ATOM     16  C   UNL     1       2.508   8.876  17.818  0.00  0.00    +0.000 C 
ATOM     17  C   UNL     1       1.033   9.282  17.858  0.00  0.00    +0.000 C 
ENDROOT
BRANCH   1  19
ATOM     18  O   UNL     1       1.106  10.847  21.120  0.00  0.00    +0.000 OA
ATOM     19  C   UNL     1       0.903  10.752  19.915  0.00  0.00    +0.000 C 
ATOM     20  N   UNL     1       1.021  11.783  18.996  0.00  0.00    +0.000 N 
ATOM     21  H   UNL     1       0.692  11.626  18.052  0.00  0.00    +0.000 HD
BRANCH  20  22
ATOM     22  C   UNL     1       1.381  13.112  19.301  0.00  0.00    +0.000 A 
ATOM     23  C   UNL     1       2.566  13.450  19.985  0.00  0.00    +0.000 A 
ATOM     24  C   UNL     1       2.860  14.779  20.309  0.00  0.00    +0.000 A 
ATOM     25  C   UNL     1       1.943  15.739  19.954  0.00  0.00    +0.000 A 
ATOM     26  C   UNL     1       0.793  15.420  19.273  0.00  0.00    +0.000 A 
ATOM     27  C   UNL     1       0.494  14.123  18.910  0.00  0.00    +0.000 A 
ATOM     28  O   UNL     1       0.012  16.507  19.036  0.00  0.00    +0.000 OA
ATOM     29  C   UNL     1       0.768  17.532  19.718  0.00  0.00    +0.000 C 
ATOM     30  O   UNL     1       2.037  17.067  20.221  0.00  0.00    +0.000 OA
ENDBRANCH  20  22
ENDBRANCH   1  19
TORSDOF 2
ENDMDL
