MODEL 1
REMARK VINA RESULT:      -9.0      0.000      0.000
REMARK  Name = 
REMARK  4 active torsions:
REMARK  status: ('A' for Active; 'I' for Inactive)
REMARK    1  A    between atoms: N_3  and  C_4
REMARK    2  A    between atoms: C_8  and  N_9
REMARK    3  A    between atoms: C_11  and  C_12
REMARK    4  A    between atoms: N_19  and  C_20
REMARK                            x       y       z     vdW  Elec       q    Type
REMARK                         _______ _______ _______ _____ _____    ______ ____
ROOT
ATOM      1  C   UNL     1       6.562   6.608  16.935  0.00  0.00    +0.000 A 
ATOM      2  C   UNL     1       7.095   5.763  15.956  0.00  0.00    +0.000 A 
ATOM      3  C   UNL     1       6.693   4.440  15.837  0.00  0.00    +0.000 A 
ATOM      4  C   UNL     1       5.767   3.932  16.727  0.00  0.00    +0.000 A 
ATOM      5  C   UNL     1       5.237   4.749  17.737  0.00  0.00    +0.000 A 
ATOM      6  C   UNL     1       5.601   6.104  17.820  0.00  0.00    +0.000 A 
ENDROOT
BRANCH   1   9
ATOM      7  O   UNL     1       8.580   7.646  18.784  0.00  0.00    +0.000 OA
ATOM      8  C   UNL     1       7.959   8.356  18.017  0.00  0.00    +0.000 C 
ATOM      9  N   UNL     1       7.021   7.943  17.080  0.00  0.00    +0.000 N 
ATOM     10  N   UNL     1       8.143   9.726  18.002  0.00  0.00    +0.000 N 
ATOM     11  H   UNL     1       6.684   8.612  16.401  0.00  0.00    +0.000 HD
ATOM     12  H   UNL     1       7.665  10.270  17.308  0.00  0.00    +0.000 HD
BRANCH  10  13
ATOM     13  C   UNL     1       9.074  10.397  18.862  0.00  0.00    +0.000 C 
ATOM     14  C   UNL     1      10.459  10.700  18.342  0.00  0.00    +0.000 C 
ATOM     15  C   UNL     1       9.511  11.835  18.638  0.00  0.00    +0.000 C 
ATOM     16  C   UNL     1       9.802  12.717  19.838  0.00  0.00    +0.000 C 
ATOM     17  C   UNL     1       8.576  13.565  20.174  0.00  0.00    +0.000 C 
ATOM     18  O   UNL     1       8.157  14.327  19.033  0.00  0.00    +0.000 OA
ATOM     19  C   UNL     1       7.763  13.469  17.955  0.00  0.00    +0.000 C 
ATOM     20  C   UNL     1       8.948  12.629  17.478  0.00  0.00    +0.000 C 
ENDBRANCH  10  13
ENDBRANCH   1   9
BRANCH   5  21
ATOM     21  N   UNL     1       4.393   4.159  18.709  0.00  0.00    +0.000 N 
ATOM     22  C   UNL     1       3.071   4.476  18.929  0.00  0.00    +0.000 A 
ATOM     23  C   UNL     1       2.591   3.634  19.906  0.00  0.00    +0.000 A 
ATOM     24  C   UNL     1       3.714   2.862  20.251  0.00  0.00    +0.000 A 
ATOM     25  N   UNL     1       4.789   3.137  19.505  0.00  0.00    +0.000 NA
BRANCH  23  26
ATOM     26  C   UNL     1       1.221   3.541  20.442  0.00  0.00    +0.000 C 
ATOM     27  F   UNL     1       1.179   2.866  21.621  0.00  0.00    +0.000 F 
ATOM     28  F   UNL     1       0.696   4.769  20.675  0.00  0.00    +0.000 F 
ATOM     29  F   UNL     1       0.384   2.901  19.590  0.00  0.00    +0.000 F 
ENDBRANCH  23  26
ENDBRANCH   5  21
TORSDOF 4
ENDMDL
MODEL 2
REMARK VINA RESULT:      -8.7      0.857      1.130
REMARK  Name = 
REMARK  4 active torsions:
REMARK  status: ('A' for Active; 'I' for Inactive)
REMARK    1  A    between atoms: N_3  and  C_4
REMARK    2  A    between atoms: C_8  and  N_9
REMARK    3  A    between atoms: C_11  and  C_12
REMARK    4  A    between atoms: N_19  and  C_20
REMARK                            x       y       z     vdW  Elec       q    Type
REMARK                         _______ _______ _______ _____ _____    ______ ____
ROOT
ATOM      1  C   UNL     1       6.573   6.812  17.020  0.00  0.00    +0.000 A 
ATOM      2  C   UNL     1       7.242   5.757  16.392  0.00  0.00    +0.000 A 
ATOM      3  C   UNL     1       6.732   4.466  16.392  0.00  0.00    +0.000 A 
ATOM      4  C   UNL     1       5.549   4.207  17.055  0.00  0.00    +0.000 A 
ATOM      5  C   UNL     1       4.871   5.240  17.719  0.00  0.00    +0.000 A 
ATOM      6  C   UNL     1       5.358   6.558  17.669  0.00  0.00    +0.000 A 
ENDROOT
BRANCH   1   9
ATOM      7  O   UNL     1       8.599   7.868  18.851  0.00  0.00    +0.000 OA
ATOM      8  C   UNL     1       8.065   8.545  17.994  0.00  0.00    +0.000 C 
ATOM      9  N   UNL     1       7.132   8.115  17.059  0.00  0.00    +0.000 N 
ATOM     10  N   UNL     1       8.360   9.889  17.858  0.00  0.00    +0.000 N 
ATOM     11  H   UNL     1       6.875   8.739  16.306  0.00  0.00    +0.000 HD
ATOM     12  H   UNL     1       7.952  10.397  17.096  0.00  0.00    +0.000 HD
BRANCH  10  13
ATOM     13  C   UNL     1       9.310  10.566  18.692  0.00  0.00    +0.000 C 
ATOM     14  C   UNL     1      10.637  10.975  18.100  0.00  0.00    +0.000 C 
ATOM     15  C   UNL     1       9.652  12.037  18.519  0.00  0.00    +0.000 C 
ATOM     16  C   UNL     1       9.977  12.871  19.744  0.00  0.00    +0.000 C 
ATOM     17  C   UNL     1       8.732  13.629  20.204  0.00  0.00    +0.000 C 
ATOM     18  O   UNL     1       8.197  14.424  19.137  0.00  0.00    +0.000 OA
ATOM     19  C   UNL     1       7.777  13.601  18.042  0.00  0.00    +0.000 C 
ATOM     20  C   UNL     1       8.970  12.856  17.443  0.00  0.00    +0.000 C 
ENDBRANCH  10  13
ENDBRANCH   1   9
BRANCH   5  21
ATOM     21  N   UNL     1       3.734   4.912  18.498  0.00  0.00    +0.000 N 
ATOM     22  C   UNL     1       3.144   3.671  18.581  0.00  0.00    +0.000 A 
ATOM     23  C   UNL     1       2.116   3.752  19.492  0.00  0.00    +0.000 A 
ATOM     24  C   UNL     1       2.131   5.103  19.881  0.00  0.00    +0.000 A 
ATOM     25  N   UNL     1       3.129   5.797  19.325  0.00  0.00    +0.000 NA
BRANCH  23  26
ATOM     26  C   UNL     1       1.229   2.676  19.969  0.00  0.00    +0.000 C 
ATOM     27  F   UNL     1       1.678   1.445  19.607  0.00  0.00    +0.000 F 
ATOM     28  F   UNL     1       1.136   2.675  21.322  0.00  0.00    +0.000 F 
ATOM     29  F   UNL     1      -0.028   2.797  19.480  0.00  0.00    +0.000 F 
ENDBRANCH  23  26
ENDBRANCH   5  21
TORSDOF 4
ENDMDL
MODEL 3
REMARK VINA RESULT:      -8.3      5.820      7.407
REMARK  Name = 
REMARK  4 active torsions:
REMARK  status: ('A' for Active; 'I' for Inactive)
REMARK    1  A    between atoms: N_3  and  C_4
REMARK    2  A    between atoms: C_8  and  N_9
REMARK    3  A    between atoms: C_11  and  C_12
REMARK    4  A    between atoms: N_19  and  C_20
REMARK                            x       y       z     vdW  Elec       q    Type
REMARK                         _______ _______ _______ _____ _____    ______ ____
ROOT
ATOM      1  C   UNL     1       3.751   6.108  18.187  0.00  0.00    +0.000 A 
ATOM      2  C   UNL     1       4.334   5.529  19.318  0.00  0.00    +0.000 A 
ATOM      3  C   UNL     1       5.528   4.825  19.244  0.00  0.00    +0.000 A 
ATOM      4  C   UNL     1       6.142   4.663  18.018  0.00  0.00    +0.000 A 
ATOM      5  C   UNL     1       5.564   5.208  16.862  0.00  0.00    +0.000 A 
ATOM      6  C   UNL     1       4.386   5.970  16.946  0.00  0.00    +0.000 A 
ENDROOT
BRANCH   1   9
ATOM      7  O   UNL     1       3.152   8.913  17.599  0.00  0.00    +0.000 OA
ATOM      8  C   UNL     1       2.316   8.130  18.007  0.00  0.00    +0.000 C 
ATOM      9  N   UNL     1       2.503   6.779  18.267  0.00  0.00    +0.000 N 
ATOM     10  N   UNL     1       1.019   8.536  18.260  0.00  0.00    +0.000 N 
ATOM     11  H   UNL     1       1.694   6.204  18.460  0.00  0.00    +0.000 HD
ATOM     12  H   UNL     1       0.341   7.847  18.528  0.00  0.00    +0.000 HD
BRANCH  10  13
ATOM     13  C   UNL     1       0.569   9.881  18.049  0.00  0.00    +0.000 C 
ATOM     14  C   UNL     1      -0.915  10.148  17.964  0.00  0.00    +0.000 C 
ATOM     15  C   UNL     1      -0.128  10.692  19.129  0.00  0.00    +0.000 C 
ATOM     16  C   UNL     1       0.105  12.190  19.199  0.00  0.00    +0.000 C 
ATOM     17  C   UNL     1       1.190  12.502  20.228  0.00  0.00    +0.000 C 
ATOM     18  O   UNL     1       0.852  11.950  21.508  0.00  0.00    +0.000 OA
ATOM     19  C   UNL     1       0.764  10.520  21.445  0.00  0.00    +0.000 C 
ATOM     20  C   UNL     1      -0.360  10.093  20.501  0.00  0.00    +0.000 C 
ENDBRANCH  10  13
ENDBRANCH   1   9
BRANCH   5  21
ATOM     21  N   UNL     1       6.151   4.909  15.608  0.00  0.00    +0.000 N 
ATOM     22  C   UNL     1       5.576   4.163  14.604  0.00  0.00    +0.000 A 
ATOM     23  C   UNL     1       6.434   4.166  13.529  0.00  0.00    +0.000 A 
ATOM     24  C   UNL     1       7.533   4.911  13.992  0.00  0.00    +0.000 A 
ATOM     25  N   UNL     1       7.353   5.402  15.222  0.00  0.00    +0.000 NA
BRANCH  23  26
ATOM     26  C   UNL     1       6.239   3.559  12.200  0.00  0.00    +0.000 C 
ATOM     27  F   UNL     1       4.938   3.592  11.810  0.00  0.00    +0.000 F 
ATOM     28  F   UNL     1       6.949   4.214  11.248  0.00  0.00    +0.000 F 
ATOM     29  F   UNL     1       6.628   2.262  12.170  0.00  0.00    +0.000 F 
ENDBRANCH  23  26
ENDBRANCH   5  21
TORSDOF 4
ENDMDL
MODEL 4
REMARK VINA RESULT:      -8.2      7.614     10.209
REMARK  Name = 
REMARK  4 active torsions:
REMARK  status: ('A' for Active; 'I' for Inactive)
REMARK    1  A    between atoms: N_3  and  C_4
REMARK    2  A    between atoms: C_8  and  N_9
REMARK    3  A    between atoms: C_11  and  C_12
REMARK    4  A    between atoms: N_19  and  C_20
REMARK                            x       y       z     vdW  Elec       q    Type
REMARK                         _______ _______ _______ _____ _____    ______ ____
ROOT
ATOM      1  C   UNL     1       0.526  10.528  19.238  0.00  0.00    +0.000 A 
ATOM      2  C   UNL     1       1.178  11.758  19.108  0.00  0.00    +0.000 A 
ATOM      3  C   UNL     1       0.517  12.890  18.655  0.00  0.00    +0.000 A 
ATOM      4  C   UNL     1      -0.812  12.796  18.292  0.00  0.00    +0.000 A 
ATOM      5  C   UNL     1      -1.484  11.569  18.384  0.00  0.00    +0.000 A 
ATOM      6  C   UNL     1      -0.830  10.436  18.898  0.00  0.00    +0.000 A 
ENDROOT
BRANCH   1   9
ATOM      7  O   UNL     1       1.834   8.505  17.574  0.00  0.00    +0.000 OA
ATOM      8  C   UNL     1       1.786   8.433  18.786  0.00  0.00    +0.000 C 
ATOM      9  N   UNL     1       1.228   9.366  19.651  0.00  0.00    +0.000 N 
ATOM     10  N   UNL     1       2.321   7.350  19.460  0.00  0.00    +0.000 N 
ATOM     11  H   UNL     1       1.383   9.262  20.644  0.00  0.00    +0.000 HD
ATOM     12  H   UNL     1       2.324   7.360  20.462  0.00  0.00    +0.000 HD
BRANCH  10  13
ATOM     13  C   UNL     1       2.972   6.262  18.792  0.00  0.00    +0.000 C 
ATOM     14  C   UNL     1       4.246   5.704  19.380  0.00  0.00    +0.000 C 
ATOM     15  C   UNL     1       3.003   4.852  19.358  0.00  0.00    +0.000 C 
ATOM     16  C   UNL     1       2.962   3.670  18.406  0.00  0.00    +0.000 C 
ATOM     17  C   UNL     1       1.529   3.155  18.275  0.00  0.00    +0.000 C 
ATOM     18  O   UNL     1       0.986   2.830  19.562  0.00  0.00    +0.000 OA
ATOM     19  C   UNL     1       0.914   3.990  20.400  0.00  0.00    +0.000 C 
ATOM     20  C   UNL     1       2.313   4.543  20.671  0.00  0.00    +0.000 C 
ENDBRANCH  10  13
ENDBRANCH   1   9
BRANCH   5  21
ATOM     21  N   UNL     1      -2.805  11.481  17.879  0.00  0.00    +0.000 N 
ATOM     22  C   UNL     1      -3.960  11.667  18.604  0.00  0.00    +0.000 A 
ATOM     23  C   UNL     1      -5.024  11.567  17.738  0.00  0.00    +0.000 A 
ATOM     24  C   UNL     1      -4.414  11.275  16.505  0.00  0.00    +0.000 A 
ATOM     25  N   UNL     1      -3.079  11.268  16.569  0.00  0.00    +0.000 NA
BRANCH  23  26
ATOM     26  C   UNL     1      -6.459  11.751  18.024  0.00  0.00    +0.000 C 
ATOM     27  F   UNL     1      -6.664  12.448  19.173  0.00  0.00    +0.000 F 
ATOM     28  F   UNL     1      -7.077  12.440  17.033  0.00  0.00    +0.000 F 
ATOM     29  F   UNL     1      -7.107  10.569  18.157  0.00  0.00    +0.000 F 
ENDBRANCH  23  26
ENDBRANCH   5  21
TORSDOF 4
ENDMDL
MODEL 5
REMARK VINA RESULT:      -8.0      6.450      9.605
REMARK  Name = 
REMARK  4 active torsions:
REMARK  status: ('A' for Active; 'I' for Inactive)
REMARK    1  A    between atoms: N_3  and  C_4
REMARK    2  A    between atoms: C_8  and  N_9
REMARK    3  A    between atoms: C_11  and  C_12
REMARK    4  A    between atoms: N_19  and  C_20
REMARK                            x       y       z     vdW  Elec       q    Type
REMARK                         _______ _______ _______ _____ _____    ______ ____
ROOT
ATOM      1  C   UNL     1       1.007   8.614  21.254  0.00  0.00    +0.000 A 
ATOM      2  C   UNL     1       0.828   9.288  22.466  0.00  0.00    +0.000 A 
ATOM      3  C   UNL     1      -0.051  10.354  22.586  0.00  0.00    +0.000 A 
ATOM      4  C   UNL     1      -0.746  10.785  21.473  0.00  0.00    +0.000 A 
ATOM      5  C   UNL     1      -0.565  10.147  20.237  0.00  0.00    +0.000 A 
ATOM      6  C   UNL     1       0.281   9.030  20.130  0.00  0.00    +0.000 A 
ENDROOT
BRANCH   1   9
ATOM      7  O   UNL     1       2.131   7.454  18.813  0.00  0.00    +0.000 OA
ATOM      8  C   UNL     1       2.400   7.042  19.925  0.00  0.00    +0.000 C 
ATOM      9  N   UNL     1       1.949   7.560  21.132  0.00  0.00    +0.000 N 
ATOM     10  N   UNL     1       3.237   5.956  20.103  0.00  0.00    +0.000 N 
ATOM     11  H   UNL     1       2.361   7.223  21.991  0.00  0.00    +0.000 HD
ATOM     12  H   UNL     1       3.490   5.690  21.036  0.00  0.00    +0.000 HD
BRANCH  10  13
ATOM     13  C   UNL     1       3.849   5.257  19.011  0.00  0.00    +0.000 C 
ATOM     14  C   UNL     1       5.220   4.656  19.207  0.00  0.00    +0.000 C 
ATOM     15  C   UNL     1       4.034   3.749  19.001  0.00  0.00    +0.000 C 
ATOM     16  C   UNL     1       3.928   2.998  17.687  0.00  0.00    +0.000 C 
ATOM     17  C   UNL     1       2.521   2.423  17.526  0.00  0.00    +0.000 C 
ATOM     18  O   UNL     1       2.177   1.598  18.647  0.00  0.00    +0.000 OA
ATOM     19  C   UNL     1       2.157   2.360  19.861  0.00  0.00    +0.000 C 
ATOM     20  C   UNL     1       3.548   2.915  20.168  0.00  0.00    +0.000 C 
ENDBRANCH  10  13
ENDBRANCH   1   9
BRANCH   5  21
ATOM     21  N   UNL     1      -1.193  10.699  19.094  0.00  0.00    +0.000 N 
ATOM     22  C   UNL     1      -1.885   9.995  18.134  0.00  0.00    +0.000 A 
ATOM     23  C   UNL     1      -2.398  10.900  17.233  0.00  0.00    +0.000 A 
ATOM     24  C   UNL     1      -1.926  12.136  17.709  0.00  0.00    +0.000 A 
ATOM     25  N   UNL     1      -1.241  12.031  18.852  0.00  0.00    +0.000 NA
BRANCH  23  26
ATOM     26  C   UNL     1      -3.260  10.641  16.066  0.00  0.00    +0.000 C 
ATOM     27  F   UNL     1      -3.370   9.314  15.796  0.00  0.00    +0.000 F 
ATOM     28  F   UNL     1      -4.518  11.104  16.268  0.00  0.00    +0.000 F 
ATOM     29  F   UNL     1      -2.789  11.235  14.943  0.00  0.00    +0.000 F 
ENDBRANCH  23  26
ENDBRANCH   5  21
TORSDOF 4
ENDMDL
MODEL 6
REMARK VINA RESULT:      -7.9      5.629      7.351
REMARK  Name = 
REMARK  4 active torsions:
REMARK  status: ('A' for Active; 'I' for Inactive)
REMARK    1  A    between atoms: N_3  and  C_4
REMARK    2  A    between atoms: C_8  and  N_9
REMARK    3  A    between atoms: C_11  and  C_12
REMARK    4  A    between atoms: N_19  and  C_20
REMARK                            x       y       z     vdW  Elec       q    Type
REMARK                         _______ _______ _______ _____ _____    ______ ____
ROOT
ATOM      1  C   UNL     1       2.412   5.699  20.469  0.00  0.00    +0.000 A 
ATOM      2  C   UNL     1       1.933   4.475  20.946  0.00  0.00    +0.000 A 
ATOM      3  C   UNL     1       2.523   3.271  20.587  0.00  0.00    +0.000 A 
ATOM      4  C   UNL     1       3.591   3.276  19.712  0.00  0.00    +0.000 A 
ATOM      5  C   UNL     1       4.074   4.487  19.194  0.00  0.00    +0.000 A 
ATOM      6  C   UNL     1       3.513   5.710  19.603  0.00  0.00    +0.000 A 
ENDROOT
BRANCH   1   9
ATOM      7  O   UNL     1       2.036   8.071  18.795  0.00  0.00    +0.000 OA
ATOM      8  C   UNL     1       1.668   8.014  19.952  0.00  0.00    +0.000 C 
ATOM      9  N   UNL     1       1.766   6.918  20.800  0.00  0.00    +0.000 N 
ATOM     10  N   UNL     1       1.076   9.101  20.569  0.00  0.00    +0.000 N 
ATOM     11  H   UNL     1       1.290   6.949  21.692  0.00  0.00    +0.000 HD
ATOM     12  H   UNL     1       0.724   8.993  21.502  0.00  0.00    +0.000 HD
BRANCH  10  13
ATOM     13  C   UNL     1       0.843  10.346  19.898  0.00  0.00    +0.000 C 
ATOM     14  C   UNL     1      -0.367  10.476  19.004  0.00  0.00    +0.000 C 
ATOM     15  C   UNL     1      -0.293  11.282  20.276  0.00  0.00    +0.000 C 
ATOM     16  C   UNL     1      -0.086  12.781  20.162  0.00  0.00    +0.000 C 
ATOM     17  C   UNL     1       0.307  13.359  21.521  0.00  0.00    +0.000 C 
ATOM     18  O   UNL     1      -0.668  13.023  22.518  0.00  0.00    +0.000 OA
ATOM     19  C   UNL     1      -0.753  11.604  22.700  0.00  0.00    +0.000 C 
ATOM     20  C   UNL     1      -1.226  10.926  21.414  0.00  0.00    +0.000 C 
ENDBRANCH  10  13
ENDBRANCH   1   9
BRANCH   5  21
ATOM     21  N   UNL     1       5.081   4.443  18.200  0.00  0.00    +0.000 N 
ATOM     22  C   UNL     1       4.873   4.389  16.840  0.00  0.00    +0.000 A 
ATOM     23  C   UNL     1       6.100   4.432  16.221  0.00  0.00    +0.000 A 
ATOM     24  C   UNL     1       7.005   4.469  17.296  0.00  0.00    +0.000 A 
ATOM     25  N   UNL     1       6.403   4.524  18.488  0.00  0.00    +0.000 NA
BRANCH  23  26
ATOM     26  C   UNL     1       6.397   4.462  14.778  0.00  0.00    +0.000 C 
ATOM     27  F   UNL     1       7.622   4.993  14.519  0.00  0.00    +0.000 F 
ATOM     28  F   UNL     1       6.392   3.215  14.245  0.00  0.00    +0.000 F 
ATOM     29  F   UNL     1       5.494   5.198  14.087  0.00  0.00    +0.000 F 
ENDBRANCH  23  26
ENDBRANCH   5  21
TORSDOF 4
ENDMDL
MODEL 7
REMARK VINA RESULT:      -7.9      7.273      9.289
REMARK  Name = 
REMARK  4 active torsions:
REMARK  status: ('A' for Active; 'I' for Inactive)
REMARK    1  A    between atoms: N_3  and  C_4
REMARK    2  A    between atoms: C_8  and  N_9
REMARK    3  A    between atoms: C_11  and  C_12
REMARK    4  A    between atoms: N_19  and  C_20
REMARK                            x       y       z     vdW  Elec       q    Type
REMARK                         _______ _______ _______ _____ _____    ______ ____
ROOT
ATOM      1  C   UNL     1       0.895   9.997  18.224  0.00  0.00    +0.000 A 
ATOM      2  C   UNL     1       1.360  11.071  18.988  0.00  0.00    +0.000 A 
ATOM      3  C   UNL     1       0.525  12.111  19.371  0.00  0.00    +0.000 A 
ATOM      4  C   UNL     1      -0.793  12.105  18.961  0.00  0.00    +0.000 A 
ATOM      5  C   UNL     1      -1.281  11.055  18.169  0.00  0.00    +0.000 A 
ATOM      6  C   UNL     1      -0.450   9.973  17.831  0.00  0.00    +0.000 A 
ENDROOT
BRANCH   1   9
ATOM      7  O   UNL     1       1.945   7.741  19.767  0.00  0.00    +0.000 OA
ATOM      8  C   UNL     1       2.254   7.952  18.610  0.00  0.00    +0.000 C 
ATOM      9  N   UNL     1       1.771   8.967  17.795  0.00  0.00    +0.000 N 
ATOM     10  N   UNL     1       3.168   7.147  17.955  0.00  0.00    +0.000 N 
ATOM     11  H   UNL     1       1.993   8.947  16.808  0.00  0.00    +0.000 HD
ATOM     12  H   UNL     1       3.345   7.311  16.982  0.00  0.00    +0.000 HD
BRANCH  10  13
ATOM     13  C   UNL     1       3.796   6.017  18.576  0.00  0.00    +0.000 C 
ATOM     14  C   UNL     1       3.337   4.629  18.196  0.00  0.00    +0.000 C 
ATOM     15  C   UNL     1       4.727   5.080  17.825  0.00  0.00    +0.000 C 
ATOM     16  C   UNL     1       5.901   4.457  18.558  0.00  0.00    +0.000 C 
ATOM     17  C   UNL     1       7.168   5.272  18.303  0.00  0.00    +0.000 C 
ATOM     18  O   UNL     1       7.417   5.399  16.896  0.00  0.00    +0.000 OA
ATOM     19  C   UNL     1       6.353   6.105  16.246  0.00  0.00    +0.000 C 
ATOM     20  C   UNL     1       5.042   5.329  16.365  0.00  0.00    +0.000 C 
ENDBRANCH  10  13
ENDBRANCH   1   9
BRANCH   5  21
ATOM     21  N   UNL     1      -2.599  11.149  17.659  0.00  0.00    +0.000 N 
ATOM     22  C   UNL     1      -3.718  11.514  18.373  0.00  0.00    +0.000 A 
ATOM     23  C   UNL     1      -4.782  11.551  17.503  0.00  0.00    +0.000 A 
ATOM     24  C   UNL     1      -4.218  11.149  16.281  0.00  0.00    +0.000 A 
ATOM     25  N   UNL     1      -2.898  10.951  16.352  0.00  0.00    +0.000 NA
BRANCH  23  26
ATOM     26  C   UNL     1      -6.176  11.946  17.778  0.00  0.00    +0.000 C 
ATOM     27  F   UNL     1      -6.273  12.748  18.871  0.00  0.00    +0.000 F 
ATOM     28  F   UNL     1      -6.709  12.635  16.739  0.00  0.00    +0.000 F 
ATOM     29  F   UNL     1      -6.974  10.874  18.002  0.00  0.00    +0.000 F 
ENDBRANCH  23  26
ENDBRANCH   5  21
TORSDOF 4
ENDMDL
MODEL 8
REMARK VINA RESULT:      -7.9      7.670      9.911
REMARK  Name = 
REMARK  4 active torsions:
REMARK  status: ('A' for Active; 'I' for Inactive)
REMARK    1  A    between atoms: N_3  and  C_4
REMARK    2  A    between atoms: C_8  and  N_9
REMARK    3  A    between atoms: C_11  and  C_12
REMARK    4  A    between atoms: N_19  and  C_20
REMARK                            x       y       z     vdW  Elec       q    Type
REMARK                         _______ _______ _______ _____ _____    ______ ____
ROOT
ATOM      1  C   UNL     1       0.412  10.303  19.463  0.00  0.00    +0.000 A 
ATOM      2  C   UNL     1       0.898  11.517  19.958  0.00  0.00    +0.000 A 
ATOM      3  C   UNL     1       0.134  12.674  19.934  0.00  0.00    +0.000 A 
ATOM      4  C   UNL     1      -1.130  12.638  19.377  0.00  0.00    +0.000 A 
ATOM      5  C   UNL     1      -1.632  11.441  18.845  0.00  0.00    +0.000 A 
ATOM      6  C   UNL     1      -0.880  10.256  18.924  0.00  0.00    +0.000 A 
ENDROOT
BRANCH   1   9
ATOM      7  O   UNL     1       2.000   9.228  17.251  0.00  0.00    +0.000 OA
ATOM      8  C   UNL     1       1.915   8.679  18.332  0.00  0.00    +0.000 C 
ATOM      9  N   UNL     1       1.224   9.140  19.445  0.00  0.00    +0.000 N 
ATOM     10  N   UNL     1       2.544   7.470  18.571  0.00  0.00    +0.000 N 
ATOM     11  H   UNL     1       1.353   8.666  20.329  0.00  0.00    +0.000 HD
ATOM     12  H   UNL     1       2.508   7.083  19.496  0.00  0.00    +0.000 HD
BRANCH  10  13
ATOM     13  C   UNL     1       3.338   6.797  17.586  0.00  0.00    +0.000 C 
ATOM     14  C   UNL     1       4.825   7.055  17.548  0.00  0.00    +0.000 C 
ATOM     15  C   UNL     1       4.317   5.689  17.938  0.00  0.00    +0.000 C 
ATOM     16  C   UNL     1       4.523   4.545  16.963  0.00  0.00    +0.000 C 
ATOM     17  C   UNL     1       3.654   3.354  17.365  0.00  0.00    +0.000 C 
ATOM     18  O   UNL     1       3.921   2.964  18.719  0.00  0.00    +0.000 OA
ATOM     19  C   UNL     1       3.596   4.018  19.634  0.00  0.00    +0.000 C 
ATOM     20  C   UNL     1       4.475   5.241  19.376  0.00  0.00    +0.000 C 
ENDBRANCH  10  13
ENDBRANCH   1   9
BRANCH   5  21
ATOM     21  N   UNL     1      -2.875  11.472  18.166  0.00  0.00    +0.000 N 
ATOM     22  C   UNL     1      -4.087  11.825  18.715  0.00  0.00    +0.000 A 
ATOM     23  C   UNL     1      -5.030  11.795  17.714  0.00  0.00    +0.000 A 
ATOM     24  C   UNL     1      -4.299  11.369  16.591  0.00  0.00    +0.000 A 
ATOM     25  N   UNL     1      -2.994  11.218  16.840  0.00  0.00    +0.000 NA
BRANCH  23  26
ATOM     26  C   UNL     1      -6.458  12.153  17.790  0.00  0.00    +0.000 C 
ATOM     27  F   UNL     1      -7.240  11.076  18.067  0.00  0.00    +0.000 F 
ATOM     28  F   UNL     1      -6.689  13.064  18.767  0.00  0.00    +0.000 F 
ATOM     29  F   UNL     1      -6.912  12.684  16.630  0.00  0.00    +0.000 F 
ENDBRANCH  23  26
ENDBRANCH   5  21
TORSDOF 4
ENDMDL
MODEL 9
REMARK VINA RESULT:      -7.8      5.685      7.196
REMARK  Name = 
REMARK  4 active torsions:
REMARK  status: ('A' for Active; 'I' for Inactive)
REMARK    1  A    between atoms: N_3  and  C_4
REMARK    2  A    between atoms: C_8  and  N_9
REMARK    3  A    between atoms: C_11  and  C_12
REMARK    4  A    between atoms: N_19  and  C_20
REMARK                            x       y       z     vdW  Elec       q    Type
REMARK                         _______ _______ _______ _____ _____    ______ ____
ROOT
ATOM      1  C   UNL     1       2.818   5.972  19.858  0.00  0.00    +0.000 A 
ATOM      2  C   UNL     1       2.456   4.812  20.551  0.00  0.00    +0.000 A 
ATOM      3  C   UNL     1       3.056   3.589  20.291  0.00  0.00    +0.000 A 
ATOM      4  C   UNL     1       4.015   3.503  19.301  0.00  0.00    +0.000 A 
ATOM      5  C   UNL     1       4.377   4.644  18.569  0.00  0.00    +0.000 A 
ATOM      6  C   UNL     1       3.811   5.894  18.872  0.00  0.00    +0.000 A 
ENDROOT
BRANCH   1   9
ATOM      7  O   UNL     1       1.924   7.961  17.906  0.00  0.00    +0.000 OA
ATOM      8  C   UNL     1       1.804   8.113  19.106  0.00  0.00    +0.000 C 
ATOM      9  N   UNL     1       2.158   7.205  20.095  0.00  0.00    +0.000 N 
ATOM     10  N   UNL     1       1.265   9.273  19.630  0.00  0.00    +0.000 N 
ATOM     11  H   UNL     1       1.872   7.387  21.048  0.00  0.00    +0.000 HD
ATOM     12  H   UNL     1       1.119   9.332  20.620  0.00  0.00    +0.000 HD
BRANCH  10  13
ATOM     13  C   UNL     1       0.803  10.356  18.812  0.00  0.00    +0.000 C 
ATOM     14  C   UNL     1      -0.601  10.304  18.260  0.00  0.00    +0.000 C 
ATOM     15  C   UNL     1      -0.244  11.352  19.284  0.00  0.00    +0.000 C 
ATOM     16  C   UNL     1      -0.151  12.796  18.827  0.00  0.00    +0.000 C 
ATOM     17  C   UNL     1       0.548  13.638  19.893  0.00  0.00    +0.000 C 
ATOM     18  O   UNL     1      -0.118  13.514  21.157  0.00  0.00    +0.000 OA
ATOM     19  C   UNL     1      -0.080  12.161  21.630  0.00  0.00    +0.000 C 
ATOM     20  C   UNL     1      -0.833  11.237  20.674  0.00  0.00    +0.000 C 
ENDBRANCH  10  13
ENDBRANCH   1   9
BRANCH   5  21
ATOM     21  N   UNL     1       5.264   4.491  17.475  0.00  0.00    +0.000 N 
ATOM     22  C   UNL     1       4.902   4.279  16.164  0.00  0.00    +0.000 A 
ATOM     23  C   UNL     1       6.049   4.257  15.406  0.00  0.00    +0.000 A 
ATOM     24  C   UNL     1       7.071   4.424  16.357  0.00  0.00    +0.000 A 
ATOM     25  N   UNL     1       6.608   4.613  17.597  0.00  0.00    +0.000 NA
BRANCH  23  26
ATOM     26  C   UNL     1       6.178   4.121  13.944  0.00  0.00    +0.000 C 
ATOM     27  F   UNL     1       5.008   4.383  13.302  0.00  0.00    +0.000 F 
ATOM     28  F   UNL     1       7.098   4.983  13.445  0.00  0.00    +0.000 F 
ATOM     29  F   UNL     1       6.558   2.873  13.579  0.00  0.00    +0.000 F 
ENDBRANCH  23  26
ENDBRANCH   5  21
TORSDOF 4
ENDMDL
