MODEL 1
REMARK VINA RESULT:      -8.6      0.000      0.000
REMARK  Name = 
REMARK  2 active torsions:
REMARK  status: ('A' for Active; 'I' for Inactive)
REMARK    1  A    between atoms: C_2  and  C_3
REMARK    2  A    between atoms: C_19  and  C_20
REMARK                            x       y       z     vdW  Elec       q    Type
REMARK                         _______ _______ _______ _____ _____    ______ ____
ROOT
ATOM      1  O   UNL     1       2.660   8.551  17.064  0.00  0.00    +0.000 OA
ATOM      2  C   UNL     1       2.593   7.986  18.156  0.00  0.00    +0.000 C 
ATOM      3  N   UNL     1       3.259   6.764  18.401  0.00  0.00    +0.000 N 
ATOM      4  C   UNL     1       4.021   6.189  17.267  0.00  0.00    +0.000 C 
ATOM      5  C   UNL     1       4.961   5.003  17.588  0.00  0.00    +0.000 C 
ATOM      6  C   UNL     1       4.284   4.115  18.551  0.00  0.00    +0.000 A 
ATOM      7  N   UNL     1       4.490   2.794  18.782  0.00  0.00    +0.000 N 
ATOM      8  N   UNL     1       3.691   2.305  19.752  0.00  0.00    +0.000 NA
ATOM      9  C   UNL     1       2.969   3.368  20.172  0.00  0.00    +0.000 A 
ATOM     10  C   UNL     1       3.315   4.526  19.425  0.00  0.00    +0.000 A 
ATOM     11  C   UNL     1       2.821   5.916  19.531  0.00  0.00    +0.000 C 
ATOM     12  H   UNL     1       5.147   2.161  18.335  0.00  0.00    +0.000 HD
ENDROOT
BRANCH   2  13
ATOM     13  C   UNL     1       1.773   8.556  19.243  0.00  0.00    +0.000 A 
ATOM     14  C   UNL     1       1.751   8.126  20.560  0.00  0.00    +0.000 A 
ATOM     15  N   UNL     1       0.871   8.947  21.212  0.00  0.00    +0.000 N 
ATOM     16  C   UNL     1       0.479   8.990  22.543  0.00  0.00    +0.000 A 
ATOM     17  C   UNL     1      -0.413   9.915  22.931  0.00  0.00    +0.000 A 
ATOM     18  N   UNL     1      -0.932  10.810  22.017  0.00  0.00    +0.000 N 
ATOM     19  C   UNL     1      -0.594  10.839  20.665  0.00  0.00    +0.000 A 
ATOM     20  O   UNL     1      -1.101  11.674  19.921  0.00  0.00    +0.000 OA
ATOM     21  C   UNL     1       0.374   9.828  20.279  0.00  0.00    +0.000 A 
ATOM     22  N   UNL     1       0.893   9.617  19.088  0.00  0.00    +0.000 NA
ATOM     23  H   UNL     1      -1.604  11.510  22.305  0.00  0.00    +0.000 HD
ENDBRANCH   2  13
BRANCH   9  24
ATOM     24  C   UNL     1       1.948   3.314  21.281  0.00  0.00    +0.000 C 
ATOM     25  F   UNL     1       1.723   2.065  21.765  0.00  0.00    +0.000 F 
ATOM     26  F   UNL     1       2.321   4.083  22.340  0.00  0.00    +0.000 F 
ATOM     27  F   UNL     1       0.742   3.796  20.868  0.00  0.00    +0.000 F 
ENDBRANCH   9  24
TORSDOF 2
ENDMDL
MODEL 2
REMARK VINA RESULT:      -8.4      0.742      1.047
REMARK  Name = 
REMARK  2 active torsions:
REMARK  status: ('A' for Active; 'I' for Inactive)
REMARK    1  A    between atoms: C_2  and  C_3
REMARK    2  A    between atoms: C_19  and  C_20
REMARK                            x       y       z     vdW  Elec       q    Type
REMARK                         _______ _______ _______ _____ _____    ______ ____
ROOT
ATOM      1  O   UNL     1       3.358   7.964  16.700  0.00  0.00    +0.000 OA
ATOM      2  C   UNL     1       3.150   7.519  17.829  0.00  0.00    +0.000 C 
ATOM      3  N   UNL     1       3.751   6.320  18.276  0.00  0.00    +0.000 N 
ATOM      4  C   UNL     1       4.626   5.620  17.307  0.00  0.00    +0.000 C 
ATOM      5  C   UNL     1       5.492   4.462  17.858  0.00  0.00    +0.000 C 
ATOM      6  C   UNL     1       4.685   3.690  18.819  0.00  0.00    +0.000 A 
ATOM      7  N   UNL     1       4.830   2.398  19.208  0.00  0.00    +0.000 N 
ATOM      8  N   UNL     1       3.911   2.024  20.123  0.00  0.00    +0.000 NA
ATOM      9  C   UNL     1       3.172   3.135  20.342  0.00  0.00    +0.000 A 
ATOM     10  C   UNL     1       3.631   4.203  19.525  0.00  0.00    +0.000 A 
ATOM     11  C   UNL     1       3.164   5.602  19.428  0.00  0.00    +0.000 C 
ATOM     12  H   UNL     1       5.518   1.714  18.911  0.00  0.00    +0.000 HD
ENDROOT
BRANCH   2  13
ATOM     13  C   UNL     1       2.223   8.210  18.746  0.00  0.00    +0.000 A 
ATOM     14  C   UNL     1       1.967   7.863  20.064  0.00  0.00    +0.000 A 
ATOM     15  N   UNL     1       1.067   8.783  20.530  0.00  0.00    +0.000 N 
ATOM     16  C   UNL     1       0.483   8.934  21.779  0.00  0.00    +0.000 A 
ATOM     17  C   UNL     1      -0.381   9.942  21.979  0.00  0.00    +0.000 A 
ATOM     18  N   UNL     1      -0.682  10.815  20.953  0.00  0.00    +0.000 N 
ATOM     19  C   UNL     1      -0.142  10.739  19.670  0.00  0.00    +0.000 A 
ATOM     20  O   UNL     1      -0.462  11.561  18.816  0.00  0.00    +0.000 OA
ATOM     21  C   UNL     1       0.789   9.639  19.489  0.00  0.00    +0.000 A 
ATOM     22  N   UNL     1       1.464   9.320  18.405  0.00  0.00    +0.000 NA
ATOM     23  H   UNL     1      -1.332  11.578  21.099  0.00  0.00    +0.000 HD
ENDBRANCH   2  13
BRANCH   9  24
ATOM     24  C   UNL     1       2.027   3.210  21.321  0.00  0.00    +0.000 C 
ATOM     25  F   UNL     1       0.853   3.611  20.770  0.00  0.00    +0.000 F 
ATOM     26  F   UNL     1       1.794   2.006  21.909  0.00  0.00    +0.000 F 
ATOM     27  F   UNL     1       2.300   4.079  22.335  0.00  0.00    +0.000 F 
ENDBRANCH   9  24
TORSDOF 2
ENDMDL
MODEL 3
REMARK VINA RESULT:      -8.4      1.304      1.966
REMARK  Name = 
REMARK  2 active torsions:
REMARK  status: ('A' for Active; 'I' for Inactive)
REMARK    1  A    between atoms: C_2  and  C_3
REMARK    2  A    between atoms: C_19  and  C_20
REMARK                            x       y       z     vdW  Elec       q    Type
REMARK                         _______ _______ _______ _____ _____    ______ ____
ROOT
ATOM      1  O   UNL     1       3.780   7.792  16.348  0.00  0.00    +0.000 OA
ATOM      2  C   UNL     1       3.456   7.438  17.482  0.00  0.00    +0.000 C 
ATOM      3  N   UNL     1       4.006   6.284  18.085  0.00  0.00    +0.000 N 
ATOM      4  C   UNL     1       4.976   5.514  17.272  0.00  0.00    +0.000 C 
ATOM      5  C   UNL     1       5.778   4.411  18.002  0.00  0.00    +0.000 C 
ATOM      6  C   UNL     1       4.875   3.713  18.934  0.00  0.00    +0.000 A 
ATOM      7  N   UNL     1       4.977   2.459  19.440  0.00  0.00    +0.000 N 
ATOM      8  N   UNL     1       3.968   2.153  20.282  0.00  0.00    +0.000 NA
ATOM      9  C   UNL     1       3.211   3.273  20.332  0.00  0.00    +0.000 A 
ATOM     10  C   UNL     1       3.755   4.275  19.483  0.00  0.00    +0.000 A 
ATOM     11  C   UNL     1       3.301   5.658  19.224  0.00  0.00    +0.000 C 
ATOM     12  H   UNL     1       5.692   1.757  19.272  0.00  0.00    +0.000 HD
ENDROOT
BRANCH   2  13
ATOM     13  C   UNL     1       2.439   8.195  18.239  0.00  0.00    +0.000 A 
ATOM     14  C   UNL     1       1.548   9.117  17.711  0.00  0.00    +0.000 A 
ATOM     15  N   UNL     1       0.786   9.551  18.762  0.00  0.00    +0.000 N 
ATOM     16  C   UNL     1      -0.268  10.452  18.813  0.00  0.00    +0.000 A 
ATOM     17  C   UNL     1      -0.858  10.702  19.993  0.00  0.00    +0.000 A 
ATOM     18  N   UNL     1      -0.418  10.071  21.139  0.00  0.00    +0.000 N 
ATOM     19  C   UNL     1       0.630   9.153  21.180  0.00  0.00    +0.000 A 
ATOM     20  O   UNL     1       0.954   8.633  22.244  0.00  0.00    +0.000 OA
ATOM     21  C   UNL     1       1.244   8.904  19.887  0.00  0.00    +0.000 A 
ATOM     22  N   UNL     1       2.236   8.086  19.606  0.00  0.00    +0.000 NA
ATOM     23  H   UNL     1      -0.861  10.255  22.031  0.00  0.00    +0.000 HD
ENDBRANCH   2  13
BRANCH   9  24
ATOM     24  C   UNL     1       1.972   3.419  21.179  0.00  0.00    +0.000 C 
ATOM     25  F   UNL     1       0.840   3.655  20.466  0.00  0.00    +0.000 F 
ATOM     26  F   UNL     1       1.742   2.304  21.923  0.00  0.00    +0.000 F 
ATOM     27  F   UNL     1       2.097   4.446  22.065  0.00  0.00    +0.000 F 
ENDBRANCH   9  24
TORSDOF 2
ENDMDL
MODEL 4
REMARK VINA RESULT:      -8.4      2.926      6.492
REMARK  Name = 
REMARK  2 active torsions:
REMARK  status: ('A' for Active; 'I' for Inactive)
REMARK    1  A    between atoms: C_2  and  C_3
REMARK    2  A    between atoms: C_19  and  C_20
REMARK                            x       y       z     vdW  Elec       q    Type
REMARK                         _______ _______ _______ _____ _____    ______ ____
ROOT
ATOM      1  O   UNL     1       3.645   7.675  17.488  0.00  0.00    +0.000 OA
ATOM      2  C   UNL     1       2.716   7.581  18.291  0.00  0.00    +0.000 C 
ATOM      3  N   UNL     1       1.909   8.691  18.626  0.00  0.00    +0.000 N 
ATOM      4  C   UNL     1       2.255   9.977  17.976  0.00  0.00    +0.000 C 
ATOM      5  C   UNL     1       1.234  11.131  18.124  0.00  0.00    +0.000 C 
ATOM      6  C   UNL     1       0.704  11.115  19.500  0.00  0.00    +0.000 A 
ATOM      7  N   UNL     1       0.158  12.131  20.214  0.00  0.00    +0.000 N 
ATOM      8  N   UNL     1      -0.234  11.749  21.446  0.00  0.00    +0.000 NA
ATOM      9  C   UNL     1       0.052  10.428  21.504  0.00  0.00    +0.000 A 
ATOM     10  C   UNL     1       0.654   9.999  20.291  0.00  0.00    +0.000 A 
ATOM     11  C   UNL     1       1.114   8.658  19.872  0.00  0.00    +0.000 C 
ATOM     12  H   UNL     1       0.011  13.098  19.941  0.00  0.00    +0.000 HD
ENDROOT
BRANCH   2  13
ATOM     13  C   UNL     1       2.440   6.298  18.966  0.00  0.00    +0.000 A 
ATOM     14  C   UNL     1       2.745   5.986  20.282  0.00  0.00    +0.000 A 
ATOM     15  N   UNL     1       2.295   4.709  20.483  0.00  0.00    +0.000 N 
ATOM     16  C   UNL     1       2.314   3.903  21.612  0.00  0.00    +0.000 A 
ATOM     17  C   UNL     1       1.792   2.667  21.542  0.00  0.00    +0.000 A 
ATOM     18  N   UNL     1       1.247   2.207  20.360  0.00  0.00    +0.000 N 
ATOM     19  C   UNL     1       1.185   2.948  19.180  0.00  0.00    +0.000 A 
ATOM     20  O   UNL     1       0.677   2.462  18.174  0.00  0.00    +0.000 OA
ATOM     21  C   UNL     1       1.755   4.280  19.292  0.00  0.00    +0.000 A 
ATOM     22  N   UNL     1       1.829   5.209  18.363  0.00  0.00    +0.000 NA
ATOM     23  H   UNL     1       0.851   1.277  20.302  0.00  0.00    +0.000 HD
ENDBRANCH   2  13
BRANCH   9  24
ATOM     24  C   UNL     1      -0.240   9.550  22.695  0.00  0.00    +0.000 C 
ATOM     25  F   UNL     1      -0.852   8.379  22.383  0.00  0.00    +0.000 F 
ATOM     26  F   UNL     1       0.897   9.231  23.370  0.00  0.00    +0.000 F 
ATOM     27  F   UNL     1      -1.046  10.185  23.592  0.00  0.00    +0.000 F 
ENDBRANCH   9  24
TORSDOF 2
ENDMDL
MODEL 5
REMARK VINA RESULT:      -8.2      0.771      1.165
REMARK  Name = 
REMARK  2 active torsions:
REMARK  status: ('A' for Active; 'I' for Inactive)
REMARK    1  A    between atoms: C_2  and  C_3
REMARK    2  A    between atoms: C_19  and  C_20
REMARK                            x       y       z     vdW  Elec       q    Type
REMARK                         _______ _______ _______ _____ _____    ______ ____
ROOT
ATOM      1  O   UNL     1       3.273   8.421  16.877  0.00  0.00    +0.000 OA
ATOM      2  C   UNL     1       2.960   7.779  17.880  0.00  0.00    +0.000 C 
ATOM      3  N   UNL     1       3.410   6.455  18.084  0.00  0.00    +0.000 N 
ATOM      4  C   UNL     1       4.259   5.876  17.017  0.00  0.00    +0.000 C 
ATOM      5  C   UNL     1       4.971   4.540  17.339  0.00  0.00    +0.000 C 
ATOM      6  C   UNL     1       4.038   3.681  18.091  0.00  0.00    +0.000 A 
ATOM      7  N   UNL     1       4.028   2.330  18.204  0.00  0.00    +0.000 N 
ATOM      8  N   UNL     1       3.029   1.881  18.991  0.00  0.00    +0.000 NA
ATOM      9  C   UNL     1       2.396   2.998  19.415  0.00  0.00    +0.000 A 
ATOM     10  C   UNL     1       3.006   4.153  18.856  0.00  0.00    +0.000 A 
ATOM     11  C   UNL     1       2.691   5.586  19.040  0.00  0.00    +0.000 C 
ATOM     12  H   UNL     1       4.658   1.648  17.792  0.00  0.00    +0.000 HD
ENDROOT
BRANCH   2  13
ATOM     13  C   UNL     1       2.061   8.367  18.892  0.00  0.00    +0.000 A 
ATOM     14  C   UNL     1       1.934   7.954  20.210  0.00  0.00    +0.000 A 
ATOM     15  N   UNL     1       1.010   8.787  20.781  0.00  0.00    +0.000 N 
ATOM     16  C   UNL     1       0.516   8.849  22.076  0.00  0.00    +0.000 A 
ATOM     17  C   UNL     1      -0.398   9.783  22.382  0.00  0.00    +0.000 A 
ATOM     18  N   UNL     1      -0.840  10.668  21.419  0.00  0.00    +0.000 N 
ATOM     19  C   UNL     1      -0.398  10.679  20.097  0.00  0.00    +0.000 A 
ATOM     20  O   UNL     1      -0.841  11.506  19.305  0.00  0.00    +0.000 OA
ATOM     21  C   UNL     1       0.592   9.658  19.801  0.00  0.00    +0.000 A 
ATOM     22  N   UNL     1       1.201   9.429  18.656  0.00  0.00    +0.000 NA
ATOM     23  H   UNL     1      -1.529  11.375  21.645  0.00  0.00    +0.000 HD
ENDBRANCH   2  13
BRANCH   9  24
ATOM     24  C   UNL     1       1.214   2.998  20.352  0.00  0.00    +0.000 C 
ATOM     25  F   UNL     1       0.930   4.214  20.885  0.00  0.00    +0.000 F 
ATOM     26  F   UNL     1       0.084   2.569  19.729  0.00  0.00    +0.000 F 
ATOM     27  F   UNL     1       1.414   2.149  21.400  0.00  0.00    +0.000 F 
ENDBRANCH   9  24
TORSDOF 2
ENDMDL
MODEL 6
REMARK VINA RESULT:      -8.0      3.680      7.648
REMARK  Name = 
REMARK  2 active torsions:
REMARK  status: ('A' for Active; 'I' for Inactive)
REMARK    1  A    between atoms: C_2  and  C_3
REMARK    2  A    between atoms: C_19  and  C_20
REMARK                            x       y       z     vdW  Elec       q    Type
REMARK                         _______ _______ _______ _____ _____    ______ ____
ROOT
ATOM      1  O   UNL     1       1.378   9.358  22.748  0.00  0.00    +0.000 OA
ATOM      2  C   UNL     1       1.075   9.294  21.556  0.00  0.00    +0.000 C 
ATOM      3  N   UNL     1       0.327  10.313  20.925  0.00  0.00    +0.000 N 
ATOM      4  C   UNL     1      -0.091  11.449  21.779  0.00  0.00    +0.000 C 
ATOM      5  C   UNL     1      -0.677  12.686  21.058  0.00  0.00    +0.000 C 
ATOM      6  C   UNL     1      -1.549  12.223  19.964  0.00  0.00    +0.000 A 
ATOM      7  N   UNL     1      -2.581  12.869  19.365  0.00  0.00    +0.000 N 
ATOM      8  N   UNL     1      -3.150  12.141  18.383  0.00  0.00    +0.000 NA
ATOM      9  C   UNL     1      -2.430  10.997  18.340  0.00  0.00    +0.000 A 
ATOM     10  C   UNL     1      -1.415  11.016  19.334  0.00  0.00    +0.000 A 
ATOM     11  C   UNL     1      -0.374  10.016  19.657  0.00  0.00    +0.000 C 
ATOM     12  H   UNL     1      -2.954  13.794  19.556  0.00  0.00    +0.000 HD
ENDROOT
BRANCH   2  13
ATOM     13  C   UNL     1       1.455   8.117  20.751  0.00  0.00    +0.000 A 
ATOM     14  C   UNL     1       2.150   8.138  19.551  0.00  0.00    +0.000 A 
ATOM     15  N   UNL     1       2.296   6.830  19.175  0.00  0.00    +0.000 N 
ATOM     16  C   UNL     1       2.927   6.263  18.077  0.00  0.00    +0.000 A 
ATOM     17  C   UNL     1       2.932   4.927  17.944  0.00  0.00    +0.000 A 
ATOM     18  N   UNL     1       2.315   4.130  18.888  0.00  0.00    +0.000 N 
ATOM     19  C   UNL     1       1.661   4.615  20.021  0.00  0.00    +0.000 A 
ATOM     20  O   UNL     1       1.142   3.834  20.814  0.00  0.00    +0.000 OA
ATOM     21  C   UNL     1       1.677   6.063  20.134  0.00  0.00    +0.000 A 
ATOM     22  N   UNL     1       1.161   6.805  21.091  0.00  0.00    +0.000 NA
ATOM     23  H   UNL     1       2.316   3.122  18.794  0.00  0.00    +0.000 HD
ENDBRANCH   2  13
BRANCH   9  24
ATOM     24  C   UNL     1      -2.681   9.875  17.364  0.00  0.00    +0.000 C 
ATOM     25  F   UNL     1      -1.552   9.277  16.906  0.00  0.00    +0.000 F 
ATOM     26  F   UNL     1      -3.446   8.895  17.918  0.00  0.00    +0.000 F 
ATOM     27  F   UNL     1      -3.364  10.314  16.270  0.00  0.00    +0.000 F 
ENDBRANCH   9  24
TORSDOF 2
ENDMDL
MODEL 7
REMARK VINA RESULT:      -7.9      2.904      6.454
REMARK  Name = 
REMARK  2 active torsions:
REMARK  status: ('A' for Active; 'I' for Inactive)
REMARK    1  A    between atoms: C_2  and  C_3
REMARK    2  A    between atoms: C_19  and  C_20
REMARK                            x       y       z     vdW  Elec       q    Type
REMARK                         _______ _______ _______ _____ _____    ______ ____
ROOT
ATOM      1  O   UNL     1       3.769   7.650  17.298  0.00  0.00    +0.000 OA
ATOM      2  C   UNL     1       2.810   7.557  18.066  0.00  0.00    +0.000 C 
ATOM      3  N   UNL     1       2.090   8.695  18.495  0.00  0.00    +0.000 N 
ATOM      4  C   UNL     1       2.564  10.004  17.989  0.00  0.00    +0.000 C 
ATOM      5  C   UNL     1       1.640  11.222  18.231  0.00  0.00    +0.000 C 
ATOM      6  C   UNL     1       1.068  11.114  19.585  0.00  0.00    +0.000 A 
ATOM      7  N   UNL     1       0.588  12.097  20.387  0.00  0.00    +0.000 N 
ATOM      8  N   UNL     1       0.126  11.629  21.565  0.00  0.00    +0.000 NA
ATOM      9  C   UNL     1       0.297  10.289  21.493  0.00  0.00    +0.000 A 
ATOM     10  C   UNL     1       0.898   9.934  20.256  0.00  0.00    +0.000 A 
ATOM     11  C   UNL     1       1.256   8.606  19.713  0.00  0.00    +0.000 C 
ATOM     12  H   UNL     1       0.532  13.096  20.212  0.00  0.00    +0.000 HD
ENDROOT
BRANCH   2  13
ATOM     13  C   UNL     1       2.406   6.242  18.599  0.00  0.00    +0.000 A 
ATOM     14  C   UNL     1       1.805   5.219  17.881  0.00  0.00    +0.000 A 
ATOM     15  N   UNL     1       1.628   4.189  18.765  0.00  0.00    +0.000 N 
ATOM     16  C   UNL     1       1.098   2.918  18.589  0.00  0.00    +0.000 A 
ATOM     17  C   UNL     1       1.044   2.082  19.639  0.00  0.00    +0.000 A 
ATOM     18  N   UNL     1       1.509   2.485  20.875  0.00  0.00    +0.000 N 
ATOM     19  C   UNL     1       2.057   3.739  21.140  0.00  0.00    +0.000 A 
ATOM     20  O   UNL     1       2.451   4.013  22.270  0.00  0.00    +0.000 OA
ATOM     21  C   UNL     1       2.103   4.616  19.983  0.00  0.00    +0.000 A 
ATOM     22  N   UNL     1       2.573   5.844  19.917  0.00  0.00    +0.000 NA
ATOM     23  H   UNL     1       1.471   1.858  21.669  0.00  0.00    +0.000 HD
ENDBRANCH   2  13
BRANCH   9  24
ATOM     24  C   UNL     1      -0.106   9.325  22.581  0.00  0.00    +0.000 C 
ATOM     25  F   UNL     1      -0.814   8.255  22.138  0.00  0.00    +0.000 F 
ATOM     26  F   UNL     1       0.979   8.833  23.237  0.00  0.00    +0.000 F 
ATOM     27  F   UNL     1      -0.873   9.938  23.526  0.00  0.00    +0.000 F 
ENDBRANCH   9  24
TORSDOF 2
ENDMDL
MODEL 8
REMARK VINA RESULT:      -7.8      1.254      1.474
REMARK  Name = 
REMARK  2 active torsions:
REMARK  status: ('A' for Active; 'I' for Inactive)
REMARK    1  A    between atoms: C_2  and  C_3
REMARK    2  A    between atoms: C_19  and  C_20
REMARK                            x       y       z     vdW  Elec       q    Type
REMARK                         _______ _______ _______ _____ _____    ______ ____
ROOT
ATOM      1  O   UNL     1       3.942   7.868  16.454  0.00  0.00    +0.000 OA
ATOM      2  C   UNL     1       3.501   7.483  17.538  0.00  0.00    +0.000 C 
ATOM      3  N   UNL     1       3.993   6.316  18.166  0.00  0.00    +0.000 N 
ATOM      4  C   UNL     1       5.049   5.573  17.441  0.00  0.00    +0.000 C 
ATOM      5  C   UNL     1       5.778   4.455  18.224  0.00  0.00    +0.000 C 
ATOM      6  C   UNL     1       4.786   3.728  19.037  0.00  0.00    +0.000 A 
ATOM      7  N   UNL     1       4.843   2.461  19.518  0.00  0.00    +0.000 N 
ATOM      8  N   UNL     1       3.753   2.129  20.239  0.00  0.00    +0.000 NA
ATOM      9  C   UNL     1       2.986   3.243  20.237  0.00  0.00    +0.000 A 
ATOM     10  C   UNL     1       3.609   4.269  19.477  0.00  0.00    +0.000 A 
ATOM     11  C   UNL     1       3.175   5.657  19.207  0.00  0.00    +0.000 C 
ATOM     12  H   UNL     1       5.577   1.768  19.409  0.00  0.00    +0.000 HD
ENDROOT
BRANCH   2  13
ATOM     13  C   UNL     1       2.404   8.215  18.200  0.00  0.00    +0.000 A 
ATOM     14  C   UNL     1       2.220   8.347  19.568  0.00  0.00    +0.000 A 
ATOM     15  N   UNL     1       1.099   9.115  19.727  0.00  0.00    +0.000 N 
ATOM     16  C   UNL     1       0.468   9.580  20.872  0.00  0.00    +0.000 A 
ATOM     17  C   UNL     1      -0.636  10.335  20.749  0.00  0.00    +0.000 A 
ATOM     18  N   UNL     1      -1.134  10.642  19.499  0.00  0.00    +0.000 N 
ATOM     19  C   UNL     1      -0.564  10.219  18.298  0.00  0.00    +0.000 A 
ATOM     20  O   UNL     1      -1.072  10.543  17.228  0.00  0.00    +0.000 OA
ATOM     21  C   UNL     1       0.628   9.407  18.468  0.00  0.00    +0.000 A 
ATOM     22  N   UNL     1       1.387   8.879  17.531  0.00  0.00    +0.000 NA
ATOM     23  H   UNL     1      -1.965  11.212  19.400  0.00  0.00    +0.000 HD
ENDBRANCH   2  13
BRANCH   9  24
ATOM     24  C   UNL     1       1.662   3.360  20.949  0.00  0.00    +0.000 C 
ATOM     25  F   UNL     1       1.542   2.549  22.032  0.00  0.00    +0.000 F 
ATOM     26  F   UNL     1       1.442   4.630  21.384  0.00  0.00    +0.000 F 
ATOM     27  F   UNL     1       0.624   3.060  20.119  0.00  0.00    +0.000 F 
ENDBRANCH   9  24
TORSDOF 2
ENDMDL
MODEL 9
REMARK VINA RESULT:      -7.8      6.755      8.931
REMARK  Name = 
REMARK  2 active torsions:
REMARK  status: ('A' for Active; 'I' for Inactive)
REMARK    1  A    between atoms: C_2  and  C_3
REMARK    2  A    between atoms: C_19  and  C_20
REMARK                            x       y       z     vdW  Elec       q    Type
REMARK                         _______ _______ _______ _____ _____    ______ ____
ROOT
ATOM      1  O   UNL     1      -6.690  11.282  18.226  0.00  0.00    +0.000 OA
ATOM      2  C   UNL     1      -5.812  11.817  18.905  0.00  0.00    +0.000 C 
ATOM      3  N   UNL     1      -4.455  11.795  18.514  0.00  0.00    +0.000 N 
ATOM      4  C   UNL     1      -4.142  11.076  17.257  0.00  0.00    +0.000 C 
ATOM      5  C   UNL     1      -2.718  11.264  16.681  0.00  0.00    +0.000 C 
ATOM      6  C   UNL     1      -1.756  11.255  17.797  0.00  0.00    +0.000 A 
ATOM      7  N   UNL     1      -0.434  10.950  17.780  0.00  0.00    +0.000 N 
ATOM      8  N   UNL     1       0.142  11.063  18.994  0.00  0.00    +0.000 NA
ATOM      9  C   UNL     1      -0.853  11.483  19.809  0.00  0.00    +0.000 A 
ATOM     10  C   UNL     1      -2.068  11.606  19.083  0.00  0.00    +0.000 A 
ATOM     11  C   UNL     1      -3.407  12.049  19.526  0.00  0.00    +0.000 C 
ATOM     12  H   UNL     1       0.147  10.667  16.997  0.00  0.00    +0.000 HD
ENDROOT
BRANCH   2  13
ATOM     13  C   UNL     1      -6.152  12.470  20.184  0.00  0.00    +0.000 A 
ATOM     14  C   UNL     1      -6.208  13.836  20.414  0.00  0.00    +0.000 A 
ATOM     15  N   UNL     1      -6.580  13.986  21.723  0.00  0.00    +0.000 N 
ATOM     16  C   UNL     1      -6.811  15.125  22.480  0.00  0.00    +0.000 A 
ATOM     17  C   UNL     1      -7.178  14.992  23.765  0.00  0.00    +0.000 A 
ATOM     18  N   UNL     1      -7.320  13.737  24.323  0.00  0.00    +0.000 N 
ATOM     19  C   UNL     1      -7.110  12.542  23.637  0.00  0.00    +0.000 A 
ATOM     20  O   UNL     1      -7.264  11.467  24.210  0.00  0.00    +0.000 OA
ATOM     21  C   UNL     1      -6.717  12.722  22.250  0.00  0.00    +0.000 A 
ATOM     22  N   UNL     1      -6.465  11.792  21.353  0.00  0.00    +0.000 NA
ATOM     23  H   UNL     1      -7.597  13.632  25.291  0.00  0.00    +0.000 HD
ENDBRANCH   2  13
BRANCH   9  24
ATOM     24  C   UNL     1      -0.676  11.779  21.277  0.00  0.00    +0.000 C 
ATOM     25  F   UNL     1       0.583  11.559  21.738  0.00  0.00    +0.000 F 
ATOM     26  F   UNL     1      -0.978  13.074  21.565  0.00  0.00    +0.000 F 
ATOM     27  F   UNL     1      -1.510  11.017  22.039  0.00  0.00    +0.000 F 
ENDBRANCH   9  24
TORSDOF 2
ENDMDL
