MODEL 1
REMARK VINA RESULT:      -8.2      0.000      0.000
REMARK  Name = 
REMARK  4 active torsions:
REMARK  status: ('A' for Active; 'I' for Inactive)
REMARK    1  A    between atoms: C_1  and  C_2
REMARK    2  A    between atoms: C_4  and  C_5
REMARK    3  A    between atoms: N_11  and  S_12
REMARK    4  A    between atoms: S_12  and  C_15
REMARK                            x       y       z     vdW  Elec       q    Type
REMARK                         _______ _______ _______ _____ _____    ______ ____
ROOT
ATOM      1  C   UNL     1       2.480   8.037  17.992  0.00  0.00    +0.000 C 
ATOM      2  O   UNL     1       2.752   8.589  16.925  0.00  0.00    +0.000 OA
ATOM      3  N   UNL     1       1.761   8.694  19.011  0.00  0.00    +0.000 N 
ATOM      4  C   UNL     1       1.330  10.074  18.770  0.00  0.00    +0.000 C 
ATOM      5  C   UNL     1      -0.185  10.303  18.739  0.00  0.00    +0.000 C 
ATOM      6  C   UNL     1      -1.074   9.731  19.845  0.00  0.00    +0.000 C 
ATOM      7  N   UNL     1      -0.383   9.367  21.093  0.00  0.00    +0.000 NA
ATOM      8  C   UNL     1       0.373   8.096  21.018  0.00  0.00    +0.000 C 
ATOM      9  C   UNL     1       1.779   8.286  20.431  0.00  0.00    +0.000 C 
ENDROOT
BRANCH   1  13
ATOM     10  C   UNL     1       1.153   3.433  19.235  0.00  0.00    +0.000 C 
ATOM     11  C   UNL     1       2.187   4.382  18.711  0.00  0.00    +0.000 A 
ATOM     12  C   UNL     1       1.859   5.691  18.434  0.00  0.00    +0.000 A 
ATOM     13  C   UNL     1       2.877   6.604  18.159  0.00  0.00    +0.000 A 
ATOM     14  C   UNL     1       4.205   6.136  17.962  0.00  0.00    +0.000 A 
ATOM     15  C   UNL     1       5.329   6.924  17.590  0.00  0.00    +0.000 A 
ATOM     16  C   UNL     1       6.571   6.345  17.323  0.00  0.00    +0.000 A 
ATOM     17  C   UNL     1       6.727   4.973  17.445  0.00  0.00    +0.000 A 
ATOM     18  C   UNL     1       5.648   4.196  17.869  0.00  0.00    +0.000 A 
ATOM     19  C   UNL     1       4.404   4.748  18.136  0.00  0.00    +0.000 A 
ATOM     20  N   UNL     1       3.436   3.911  18.548  0.00  0.00    +0.000 NA
ENDBRANCH   1  13
BRANCH   7  21
ATOM     21  S   UNL     1       0.216  10.565  22.130  0.00  0.00    +0.000 S 
ATOM     22  O   UNL     1       0.386   9.975  23.441  0.00  0.00    +0.000 OA
ATOM     23  O   UNL     1       1.311  11.243  21.469  0.00  0.00    +0.000 OA
BRANCH  21  24
ATOM     24  C   UNL     1      -1.110  11.736  22.277  0.00  0.00    +0.000 A 
ATOM     25  C   UNL     1      -2.120  11.507  23.232  0.00  0.00    +0.000 A 
ATOM     26  C   UNL     1      -3.020  12.525  23.536  0.00  0.00    +0.000 A 
ATOM     27  C   UNL     1      -2.903  13.758  22.902  0.00  0.00    +0.000 A 
ATOM     28  F   UNL     1      -3.739  14.749  23.235  0.00  0.00    +0.000 F 
ATOM     29  C   UNL     1      -1.913  13.990  21.951  0.00  0.00    +0.000 A 
ATOM     30  C   UNL     1      -1.006  12.975  21.637  0.00  0.00    +0.000 A 
ENDBRANCH  21  24
ENDBRANCH   7  21
TORSDOF 3
ENDMDL
MODEL 2
REMARK VINA RESULT:      -8.0      0.731      1.099
REMARK  Name = 
REMARK  4 active torsions:
REMARK  status: ('A' for Active; 'I' for Inactive)
REMARK    1  A    between atoms: C_1  and  C_2
REMARK    2  A    between atoms: C_4  and  C_5
REMARK    3  A    between atoms: N_11  and  S_12
REMARK    4  A    between atoms: S_12  and  C_15
REMARK                            x       y       z     vdW  Elec       q    Type
REMARK                         _______ _______ _______ _____ _____    ______ ____
ROOT
ATOM      1  C   UNL     1       2.499   7.966  18.074  0.00  0.00    +0.000 C 
ATOM      2  O   UNL     1       2.861   8.391  16.976  0.00  0.00    +0.000 OA
ATOM      3  N   UNL     1       1.728   8.744  18.961  0.00  0.00    +0.000 N 
ATOM      4  C   UNL     1       1.353  10.098  18.541  0.00  0.00    +0.000 C 
ATOM      5  C   UNL     1      -0.149  10.352  18.374  0.00  0.00    +0.000 C 
ATOM      6  C   UNL     1      -1.129   9.923  19.468  0.00  0.00    +0.000 C 
ATOM      7  N   UNL     1      -0.538   9.684  20.795  0.00  0.00    +0.000 NA
ATOM      8  C   UNL     1       0.186   8.398  20.914  0.00  0.00    +0.000 C 
ATOM      9  C   UNL     1       1.635   8.494  20.414  0.00  0.00    +0.000 C 
ENDROOT
BRANCH   1  13
ATOM     10  C   UNL     1       1.018   3.621  19.928  0.00  0.00    +0.000 C 
ATOM     11  C   UNL     1       2.079   4.450  19.272  0.00  0.00    +0.000 A 
ATOM     12  C   UNL     1       1.796   5.724  18.829  0.00  0.00    +0.000 A 
ATOM     13  C   UNL     1       2.844   6.552  18.424  0.00  0.00    +0.000 A 
ATOM     14  C   UNL     1       4.149   6.009  18.274  0.00  0.00    +0.000 A 
ATOM     15  C   UNL     1       5.296   6.696  17.789  0.00  0.00    +0.000 A 
ATOM     16  C   UNL     1       6.511   6.037  17.586  0.00  0.00    +0.000 A 
ATOM     17  C   UNL     1       6.616   4.688  17.886  0.00  0.00    +0.000 A 
ATOM     18  C   UNL     1       5.515   4.018  18.422  0.00  0.00    +0.000 A 
ATOM     19  C   UNL     1       4.297   4.649  18.628  0.00  0.00    +0.000 A 
ATOM     20  N   UNL     1       3.306   3.913  19.158  0.00  0.00    +0.000 NA
ENDBRANCH   1  13
BRANCH   7  21
ATOM     21  S   UNL     1       0.020  10.977  21.737  0.00  0.00    +0.000 S 
ATOM     22  O   UNL     1       0.487  10.440  22.998  0.00  0.00    +0.000 OA
ATOM     23  O   UNL     1       0.874  11.810  20.918  0.00  0.00    +0.000 OA
BRANCH  21  24
ATOM     24  C   UNL     1      -1.436  11.924  22.107  0.00  0.00    +0.000 A 
ATOM     25  C   UNL     1      -2.031  12.688  21.083  0.00  0.00    +0.000 A 
ATOM     26  C   UNL     1      -3.298  13.230  21.281  0.00  0.00    +0.000 A 
ATOM     27  C   UNL     1      -3.965  13.000  22.480  0.00  0.00    +0.000 A 
ATOM     28  F   UNL     1      -5.203  13.481  22.645  0.00  0.00    +0.000 F 
ATOM     29  C   UNL     1      -3.380  12.254  23.500  0.00  0.00    +0.000 A 
ATOM     30  C   UNL     1      -2.108  11.708  23.313  0.00  0.00    +0.000 A 
ENDBRANCH  21  24
ENDBRANCH   7  21
TORSDOF 3
ENDMDL
MODEL 3
REMARK VINA RESULT:      -8.0      5.207      7.136
REMARK  Name = 
REMARK  4 active torsions:
REMARK  status: ('A' for Active; 'I' for Inactive)
REMARK    1  A    between atoms: C_1  and  C_2
REMARK    2  A    between atoms: C_4  and  C_5
REMARK    3  A    between atoms: N_11  and  S_12
REMARK    4  A    between atoms: S_12  and  C_15
REMARK                            x       y       z     vdW  Elec       q    Type
REMARK                         _______ _______ _______ _____ _____    ______ ____
ROOT
ATOM      1  C   UNL     1      -0.080  11.787  19.052  0.00  0.00    +0.000 C 
ATOM      2  O   UNL     1      -1.187  11.745  18.514  0.00  0.00    +0.000 OA
ATOM      3  N   UNL     1       0.748  12.925  18.972  0.00  0.00    +0.000 N 
ATOM      4  C   UNL     1       0.254  14.085  18.224  0.00  0.00    +0.000 C 
ATOM      5  C   UNL     1       0.036  15.362  19.042  0.00  0.00    +0.000 C 
ATOM      6  C   UNL     1       1.123  15.860  19.996  0.00  0.00    +0.000 C 
ATOM      7  N   UNL     1       2.476  15.331  19.753  0.00  0.00    +0.000 NA
ATOM      8  C   UNL     1       2.675  13.941  20.224  0.00  0.00    +0.000 C 
ATOM      9  C   UNL     1       2.209  12.902  19.193  0.00  0.00    +0.000 C 
ENDROOT
BRANCH   1  13
ATOM     10  C   UNL     1      -0.042   9.515  23.449  0.00  0.00    +0.000 C 
ATOM     11  C   UNL     1       0.296   9.509  21.990  0.00  0.00    +0.000 A 
ATOM     12  C   UNL     1      -0.157  10.513  21.163  0.00  0.00    +0.000 A 
ATOM     13  C   UNL     1       0.347  10.606  19.865  0.00  0.00    +0.000 A 
ATOM     14  C   UNL     1       1.151   9.553  19.349  0.00  0.00    +0.000 A 
ATOM     15  C   UNL     1       1.663   9.457  18.026  0.00  0.00    +0.000 A 
ATOM     16  C   UNL     1       2.360   8.327  17.592  0.00  0.00    +0.000 A 
ATOM     17  C   UNL     1       2.584   7.281  18.474  0.00  0.00    +0.000 A 
ATOM     18  C   UNL     1       2.140   7.390  19.792  0.00  0.00    +0.000 A 
ATOM     19  C   UNL     1       1.442   8.500  20.245  0.00  0.00    +0.000 A 
ATOM     20  N   UNL     1       1.070   8.507  21.536  0.00  0.00    +0.000 NA
ENDBRANCH   1  13
BRANCH   7  21
ATOM     21  S   UNL     1       3.368  15.827  18.402  0.00  0.00    +0.000 S 
ATOM     22  O   UNL     1       2.950  15.023  17.273  0.00  0.00    +0.000 OA
ATOM     23  O   UNL     1       3.344  17.273  18.337  0.00  0.00    +0.000 OA
BRANCH  21  24
ATOM     24  C   UNL     1       5.038  15.349  18.766  0.00  0.00    +0.000 A 
ATOM     25  C   UNL     1       5.748  14.577  17.825  0.00  0.00    +0.000 A 
ATOM     26  C   UNL     1       7.122  14.407  17.974  0.00  0.00    +0.000 A 
ATOM     27  C   UNL     1       7.777  15.011  19.042  0.00  0.00    +0.000 A 
ATOM     28  F   UNL     1       9.106  14.886  19.152  0.00  0.00    +0.000 F 
ATOM     29  C   UNL     1       7.082  15.767  19.981  0.00  0.00    +0.000 A 
ATOM     30  C   UNL     1       5.704  15.942  19.843  0.00  0.00    +0.000 A 
ENDBRANCH  21  24
ENDBRANCH   7  21
TORSDOF 3
ENDMDL
MODEL 4
REMARK VINA RESULT:      -7.7      4.287      9.115
REMARK  Name = 
REMARK  4 active torsions:
REMARK  status: ('A' for Active; 'I' for Inactive)
REMARK    1  A    between atoms: C_1  and  C_2
REMARK    2  A    between atoms: C_4  and  C_5
REMARK    3  A    between atoms: N_11  and  S_12
REMARK    4  A    between atoms: S_12  and  C_15
REMARK                            x       y       z     vdW  Elec       q    Type
REMARK                         _______ _______ _______ _____ _____    ______ ____
ROOT
ATOM      1  C   UNL     1       0.628   9.341  20.436  0.00  0.00    +0.000 C 
ATOM      2  O   UNL     1       0.398   9.359  21.646  0.00  0.00    +0.000 OA
ATOM      3  N   UNL     1       1.492   8.392  19.853  0.00  0.00    +0.000 N 
ATOM      4  C   UNL     1       2.121   7.402  20.733  0.00  0.00    +0.000 C 
ATOM      5  C   UNL     1       1.739   5.941  20.473  0.00  0.00    +0.000 C 
ATOM      6  C   UNL     1       1.771   5.378  19.051  0.00  0.00    +0.000 C 
ATOM      7  N   UNL     1       2.575   6.139  18.081  0.00  0.00    +0.000 NA
ATOM      8  C   UNL     1       1.924   7.378  17.595  0.00  0.00    +0.000 C 
ATOM      9  C   UNL     1       2.149   8.567  18.541  0.00  0.00    +0.000 C 
ENDROOT
BRANCH   1  13
ATOM     10  C   UNL     1      -2.998  10.187  17.175  0.00  0.00    +0.000 C 
ATOM     11  C   UNL     1      -1.895  10.709  18.043  0.00  0.00    +0.000 A 
ATOM     12  C   UNL     1      -1.257   9.879  18.938  0.00  0.00    +0.000 A 
ATOM     13  C   UNL     1      -0.096  10.325  19.572  0.00  0.00    +0.000 A 
ATOM     14  C   UNL     1       0.291  11.687  19.450  0.00  0.00    +0.000 A 
ATOM     15  C   UNL     1       1.389  12.312  20.101  0.00  0.00    +0.000 A 
ATOM     16  C   UNL     1       1.621  13.685  19.990  0.00  0.00    +0.000 A 
ATOM     17  C   UNL     1       0.779  14.459  19.206  0.00  0.00    +0.000 A 
ATOM     18  C   UNL     1      -0.266  13.847  18.513  0.00  0.00    +0.000 A 
ATOM     19  C   UNL     1      -0.518  12.487  18.611  0.00  0.00    +0.000 A 
ATOM     20  N   UNL     1      -1.544  11.999  17.892  0.00  0.00    +0.000 NA
ENDBRANCH   1  13
BRANCH   7  21
ATOM     21  S   UNL     1       4.266   6.137  18.170  0.00  0.00    +0.000 S 
ATOM     22  O   UNL     1       4.721   7.505  18.032  0.00  0.00    +0.000 OA
ATOM     23  O   UNL     1       4.669   5.327  19.300  0.00  0.00    +0.000 OA
BRANCH  21  24
ATOM     24  C   UNL     1       4.792   5.285  16.704  0.00  0.00    +0.000 A 
ATOM     25  C   UNL     1       5.258   6.037  15.607  0.00  0.00    +0.000 A 
ATOM     26  C   UNL     1       5.903   5.390  14.557  0.00  0.00    +0.000 A 
ATOM     27  C   UNL     1       6.091   4.012  14.609  0.00  0.00    +0.000 A 
ATOM     28  F   UNL     1       6.756   3.403  13.621  0.00  0.00    +0.000 F 
ATOM     29  C   UNL     1       5.625   3.261  15.685  0.00  0.00    +0.000 A 
ATOM     30  C   UNL     1       4.974   3.899  16.743  0.00  0.00    +0.000 A 
ENDBRANCH  21  24
ENDBRANCH   7  21
TORSDOF 3
ENDMDL
MODEL 5
REMARK VINA RESULT:      -7.7      5.491      8.067
REMARK  Name = 
REMARK  4 active torsions:
REMARK  status: ('A' for Active; 'I' for Inactive)
REMARK    1  A    between atoms: C_1  and  C_2
REMARK    2  A    between atoms: C_4  and  C_5
REMARK    3  A    between atoms: N_11  and  S_12
REMARK    4  A    between atoms: S_12  and  C_15
REMARK                            x       y       z     vdW  Elec       q    Type
REMARK                         _______ _______ _______ _____ _____    ______ ____
ROOT
ATOM      1  C   UNL     1       0.299  12.848  18.894  0.00  0.00    +0.000 C 
ATOM      2  O   UNL     1      -0.807  13.098  18.413  0.00  0.00    +0.000 OA
ATOM      3  N   UNL     1       1.275  13.848  19.080  0.00  0.00    +0.000 N 
ATOM      4  C   UNL     1       0.940  15.220  18.687  0.00  0.00    +0.000 C 
ATOM      5  C   UNL     1       0.907  16.249  19.822  0.00  0.00    +0.000 C 
ATOM      6  C   UNL     1       2.060  16.327  20.825  0.00  0.00    +0.000 C 
ATOM      7  N   UNL     1       3.324  15.709  20.393  0.00  0.00    +0.000 NA
ATOM      8  C   UNL     1       3.333  14.230  20.470  0.00  0.00    +0.000 C 
ATOM      9  C   UNL     1       2.720  13.575  19.223  0.00  0.00    +0.000 C 
ENDROOT
BRANCH   1  13
ATOM     10  C   UNL     1       2.140   8.376  17.839  0.00  0.00    +0.000 C 
ATOM     11  C   UNL     1       1.515   9.315  18.824  0.00  0.00    +0.000 A 
ATOM     12  C   UNL     1       1.340  10.645  18.509  0.00  0.00    +0.000 A 
ATOM     13  C   UNL     1       0.564  11.447  19.347  0.00  0.00    +0.000 A 
ATOM     14  C   UNL     1       0.145  10.943  20.609  0.00  0.00    +0.000 A 
ATOM     15  C   UNL     1      -0.569  11.662  21.606  0.00  0.00    +0.000 A 
ATOM     16  C   UNL     1      -0.844  11.101  22.855  0.00  0.00    +0.000 A 
ATOM     17  C   UNL     1      -0.435   9.804  23.128  0.00  0.00    +0.000 A 
ATOM     18  C   UNL     1       0.213   9.068  22.135  0.00  0.00    +0.000 A 
ATOM     19  C   UNL     1       0.500   9.605  20.889  0.00  0.00    +0.000 A 
ATOM     20  N   UNL     1       1.118   8.805  20.003  0.00  0.00    +0.000 NA
ENDBRANCH   1  13
BRANCH   7  21
ATOM     21  S   UNL     1       4.266  16.427  19.183  0.00  0.00    +0.000 S 
ATOM     22  O   UNL     1       3.560  16.288  17.926  0.00  0.00    +0.000 OA
ATOM     23  O   UNL     1       4.710  17.723  19.649  0.00  0.00    +0.000 OA
BRANCH  21  24
ATOM     24  C   UNL     1       5.706  15.395  19.063  0.00  0.00    +0.000 A 
ATOM     25  C   UNL     1       5.966  14.723  17.851  0.00  0.00    +0.000 A 
ATOM     26  C   UNL     1       7.204  14.119  17.655  0.00  0.00    +0.000 A 
ATOM     27  C   UNL     1       8.174  14.197  18.650  0.00  0.00    +0.000 A 
ATOM     28  F   UNL     1       9.380  13.658  18.435  0.00  0.00    +0.000 F 
ATOM     29  C   UNL     1       7.922  14.850  19.853  0.00  0.00    +0.000 A 
ATOM     30  C   UNL     1       6.682  15.458  20.062  0.00  0.00    +0.000 A 
ENDBRANCH  21  24
ENDBRANCH   7  21
TORSDOF 3
ENDMDL
MODEL 6
REMARK VINA RESULT:      -7.6      5.180      6.995
REMARK  Name = 
REMARK  4 active torsions:
REMARK  status: ('A' for Active; 'I' for Inactive)
REMARK    1  A    between atoms: C_1  and  C_2
REMARK    2  A    between atoms: C_4  and  C_5
REMARK    3  A    between atoms: N_11  and  S_12
REMARK    4  A    between atoms: S_12  and  C_15
REMARK                            x       y       z     vdW  Elec       q    Type
REMARK                         _______ _______ _______ _____ _____    ______ ____
ROOT
ATOM      1  C   UNL     1      -0.206  11.818  19.044  0.00  0.00    +0.000 C 
ATOM      2  O   UNL     1      -1.313  11.750  18.509  0.00  0.00    +0.000 OA
ATOM      3  N   UNL     1       0.594  12.976  18.966  0.00  0.00    +0.000 N 
ATOM      4  C   UNL     1       0.068  14.126  18.224  0.00  0.00    +0.000 C 
ATOM      5  C   UNL     1      -0.179  15.394  19.048  0.00  0.00    +0.000 C 
ATOM      6  C   UNL     1       0.898  15.916  20.001  0.00  0.00    +0.000 C 
ATOM      7  N   UNL     1       2.263  15.422  19.753  0.00  0.00    +0.000 NA
ATOM      8  C   UNL     1       2.498  14.035  20.217  0.00  0.00    +0.000 C 
ATOM      9  C   UNL     1       2.055  12.989  19.183  0.00  0.00    +0.000 C 
ENDROOT
BRANCH   1  13
ATOM     10  C   UNL     1      -0.114   9.521  23.428  0.00  0.00    +0.000 C 
ATOM     11  C   UNL     1       0.227   9.533  21.970  0.00  0.00    +0.000 A 
ATOM     12  C   UNL     1      -0.252  10.529  21.148  0.00  0.00    +0.000 A 
ATOM     13  C   UNL     1       0.252  10.644  19.852  0.00  0.00    +0.000 A 
ATOM     14  C   UNL     1       1.087   9.618  19.331  0.00  0.00    +0.000 A 
ATOM     15  C   UNL     1       1.605   9.545  18.009  0.00  0.00    +0.000 A 
ATOM     16  C   UNL     1       2.335   8.437  17.570  0.00  0.00    +0.000 A 
ATOM     17  C   UNL     1       2.586   7.392  18.446  0.00  0.00    +0.000 A 
ATOM     18  C   UNL     1       2.136   7.481  19.764  0.00  0.00    +0.000 A 
ATOM     19  C   UNL     1       1.406   8.568  20.222  0.00  0.00    +0.000 A 
ATOM     20  N   UNL     1       1.030   8.556  21.512  0.00  0.00    +0.000 NA
ENDBRANCH   1  13
BRANCH   7  21
ATOM     21  S   UNL     1       3.138  15.945  18.402  0.00  0.00    +0.000 S 
ATOM     22  O   UNL     1       3.076  14.902  17.399  0.00  0.00    +0.000 OA
ATOM     23  O   UNL     1       2.743  17.302  18.091  0.00  0.00    +0.000 OA
BRANCH  21  24
ATOM     24  C   UNL     1       4.824  16.006  18.955  0.00  0.00    +0.000 A 
ATOM     25  C   UNL     1       5.182  16.938  19.951  0.00  0.00    +0.000 A 
ATOM     26  C   UNL     1       6.424  16.833  20.572  0.00  0.00    +0.000 A 
ATOM     27  C   UNL     1       7.289  15.804  20.211  0.00  0.00    +0.000 A 
ATOM     28  F   UNL     1       8.460  15.679  20.847  0.00  0.00    +0.000 F 
ATOM     29  C   UNL     1       6.946  14.886  19.223  0.00  0.00    +0.000 A 
ATOM     30  C   UNL     1       5.705  14.983  18.591  0.00  0.00    +0.000 A 
ENDBRANCH  21  24
ENDBRANCH   7  21
TORSDOF 3
ENDMDL
MODEL 7
REMARK VINA RESULT:      -7.6      3.896      9.360
REMARK  Name = 
REMARK  4 active torsions:
REMARK  status: ('A' for Active; 'I' for Inactive)
REMARK    1  A    between atoms: C_1  and  C_2
REMARK    2  A    between atoms: C_4  and  C_5
REMARK    3  A    between atoms: N_11  and  S_12
REMARK    4  A    between atoms: S_12  and  C_15
REMARK                            x       y       z     vdW  Elec       q    Type
REMARK                         _______ _______ _______ _____ _____    ______ ____
ROOT
ATOM      1  C   UNL     1      -2.367  13.694  20.349  0.00  0.00    +0.000 C 
ATOM      2  O   UNL     1      -2.310  14.896  20.086  0.00  0.00    +0.000 OA
ATOM      3  N   UNL     1      -1.335  12.801  19.997  0.00  0.00    +0.000 N 
ATOM      4  C   UNL     1      -0.164  13.342  19.301  0.00  0.00    +0.000 C 
ATOM      5  C   UNL     1       1.167  13.233  20.052  0.00  0.00    +0.000 C 
ATOM      6  C   UNL     1       1.585  11.907  20.690  0.00  0.00    +0.000 C 
ATOM      7  N   UNL     1       0.896  10.709  20.181  0.00  0.00    +0.000 NA
ATOM      8  C   UNL     1      -0.484  10.541  20.693  0.00  0.00    +0.000 C 
ATOM      9  C   UNL     1      -1.512  11.339  19.876  0.00  0.00    +0.000 C 
ENDROOT
BRANCH   1  13
ATOM     10  C   UNL     1      -4.321  12.588  24.761  0.00  0.00    +0.000 C 
ATOM     11  C   UNL     1      -4.480  12.735  23.279  0.00  0.00    +0.000 A 
ATOM     12  C   UNL     1      -3.469  13.278  22.518  0.00  0.00    +0.000 A 
ATOM     13  C   UNL     1      -3.549  13.205  21.126  0.00  0.00    +0.000 A 
ATOM     14  C   UNL     1      -4.756  12.765  20.516  0.00  0.00    +0.000 A 
ATOM     15  C   UNL     1      -5.024  12.719  19.121  0.00  0.00    +0.000 A 
ATOM     16  C   UNL     1      -6.283  12.365  18.630  0.00  0.00    +0.000 A 
ATOM     17  C   UNL     1      -7.292  12.025  19.518  0.00  0.00    +0.000 A 
ATOM     18  C   UNL     1      -7.023  12.007  20.886  0.00  0.00    +0.000 A 
ATOM     19  C   UNL     1      -5.782  12.359  21.398  0.00  0.00    +0.000 A 
ATOM     20  N   UNL     1      -5.628  12.297  22.731  0.00  0.00    +0.000 NA
ENDBRANCH   1  13
BRANCH   7  21
ATOM     21  S   UNL     1       1.223  10.119  18.628  0.00  0.00    +0.000 S 
ATOM     22  O   UNL     1      -0.043   9.858  17.975  0.00  0.00    +0.000 OA
ATOM     23  O   UNL     1       2.219  10.968  18.011  0.00  0.00    +0.000 OA
BRANCH  21  24
ATOM     24  C   UNL     1       1.981   8.537  18.899  0.00  0.00    +0.000 A 
ATOM     25  C   UNL     1       1.770   7.881  20.128  0.00  0.00    +0.000 A 
ATOM     26  C   UNL     1       2.140   6.546  20.265  0.00  0.00    +0.000 A 
ATOM     27  C   UNL     1       2.702   5.873  19.183  0.00  0.00    +0.000 A 
ATOM     28  F   UNL     1       3.009   4.576  19.305  0.00  0.00    +0.000 F 
ATOM     29  C   UNL     1       2.922   6.517  17.969  0.00  0.00    +0.000 A 
ATOM     30  C   UNL     1       2.556   7.857  17.821  0.00  0.00    +0.000 A 
ENDBRANCH  21  24
ENDBRANCH   7  21
TORSDOF 3
ENDMDL
MODEL 8
REMARK VINA RESULT:      -7.5      5.545      7.850
REMARK  Name = 
REMARK  4 active torsions:
REMARK  status: ('A' for Active; 'I' for Inactive)
REMARK    1  A    between atoms: C_1  and  C_2
REMARK    2  A    between atoms: C_4  and  C_5
REMARK    3  A    between atoms: N_11  and  S_12
REMARK    4  A    between atoms: S_12  and  C_15
REMARK                            x       y       z     vdW  Elec       q    Type
REMARK                         _______ _______ _______ _____ _____    ______ ____
ROOT
ATOM      1  C   UNL     1      -0.107  12.165  18.798  0.00  0.00    +0.000 C 
ATOM      2  O   UNL     1      -1.282  12.230  18.436  0.00  0.00    +0.000 OA
ATOM      3  N   UNL     1       0.749  13.286  18.765  0.00  0.00    +0.000 N 
ATOM      4  C   UNL     1       0.198  14.558  18.287  0.00  0.00    +0.000 C 
ATOM      5  C   UNL     1       0.160  15.695  19.313  0.00  0.00    +0.000 C 
ATOM      6  C   UNL     1       1.397  16.016  20.154  0.00  0.00    +0.000 C 
ATOM      7  N   UNL     1       2.675  15.506  19.629  0.00  0.00    +0.000 NA
ATOM      8  C   UNL     1       2.882  14.055  19.846  0.00  0.00    +0.000 C 
ATOM      9  C   UNL     1       2.223  13.200  18.753  0.00  0.00    +0.000 C 
ENDROOT
BRANCH   1  13
ATOM     10  C   UNL     1       2.303   7.917  17.995  0.00  0.00    +0.000 C 
ATOM     11  C   UNL     1       1.605   8.846  18.939  0.00  0.00    +0.000 A 
ATOM     12  C   UNL     1       1.221  10.103  18.527  0.00  0.00    +0.000 A 
ATOM     13  C   UNL     1       0.385  10.863  19.347  0.00  0.00    +0.000 A 
ATOM     14  C   UNL     1       0.116  10.424  20.672  0.00  0.00    +0.000 A 
ATOM     15  C   UNL     1      -0.638  11.125  21.653  0.00  0.00    +0.000 A 
ATOM     16  C   UNL     1      -0.756  10.649  22.961  0.00  0.00    +0.000 A 
ATOM     17  C   UNL     1      -0.148   9.453  23.312  0.00  0.00    +0.000 A 
ATOM     18  C   UNL     1       0.542   8.726  22.342  0.00  0.00    +0.000 A 
ATOM     19  C   UNL     1       0.677   9.180  21.037  0.00  0.00    +0.000 A 
ATOM     20  N   UNL     1       1.354   8.396  20.181  0.00  0.00    +0.000 NA
ENDBRANCH   1  13
BRANCH   7  21
ATOM     21  S   UNL     1       3.377  16.190  18.248  0.00  0.00    +0.000 S 
ATOM     22  O   UNL     1       3.098  15.317  17.127  0.00  0.00    +0.000 OA
ATOM     23  O   UNL     1       3.033  17.595  18.203  0.00  0.00    +0.000 OA
BRANCH  21  24
ATOM     24  C   UNL     1       5.126  16.090  18.536  0.00  0.00    +0.000 A 
ATOM     25  C   UNL     1       5.857  15.042  17.941  0.00  0.00    +0.000 A 
ATOM     26  C   UNL     1       7.248  15.088  17.946  0.00  0.00    +0.000 A 
ATOM     27  C   UNL     1       7.898  16.173  18.527  0.00  0.00    +0.000 A 
ATOM     28  F   UNL     1       9.234  16.236  18.485  0.00  0.00    +0.000 F 
ATOM     29  C   UNL     1       7.184  17.206  19.126  0.00  0.00    +0.000 A 
ATOM     30  C   UNL     1       5.787  17.169  19.129  0.00  0.00    +0.000 A 
ENDBRANCH  21  24
ENDBRANCH   7  21
TORSDOF 3
ENDMDL
MODEL 9
REMARK VINA RESULT:      -7.4      5.126      7.586
REMARK  Name = 
REMARK  4 active torsions:
REMARK  status: ('A' for Active; 'I' for Inactive)
REMARK    1  A    between atoms: C_1  and  C_2
REMARK    2  A    between atoms: C_4  and  C_5
REMARK    3  A    between atoms: N_11  and  S_12
REMARK    4  A    between atoms: S_12  and  C_15
REMARK                            x       y       z     vdW  Elec       q    Type
REMARK                         _______ _______ _______ _____ _____    ______ ____
ROOT
ATOM      1  C   UNL     1      -0.328  12.488  18.929  0.00  0.00    +0.000 C 
ATOM      2  O   UNL     1      -1.465  12.503  18.457  0.00  0.00    +0.000 OA
ATOM      3  N   UNL     1       0.421  13.668  19.114  0.00  0.00    +0.000 N 
ATOM      4  C   UNL     1      -0.196  14.941  18.731  0.00  0.00    +0.000 C 
ATOM      5  C   UNL     1      -0.435  15.937  19.871  0.00  0.00    +0.000 C 
ATOM      6  C   UNL     1       0.684  16.250  20.867  0.00  0.00    +0.000 C 
ATOM      7  N   UNL     1       2.046  15.911  20.422  0.00  0.00    +0.000 NA
ATOM      8  C   UNL     1       2.364  14.466  20.492  0.00  0.00    +0.000 C 
ATOM      9  C   UNL     1       1.892  13.703  19.246  0.00  0.00    +0.000 C 
ENDROOT
BRANCH   1  13
ATOM     10  C   UNL     1       2.197   8.393  17.764  0.00  0.00    +0.000 C 
ATOM     11  C   UNL     1       1.502   9.232  18.791  0.00  0.00    +0.000 A 
ATOM     12  C   UNL     1       1.060  10.498  18.477  0.00  0.00    +0.000 A 
ATOM     13  C   UNL     1       0.228  11.171  19.373  0.00  0.00    +0.000 A 
ATOM     14  C   UNL     1       0.021  10.637  20.674  0.00  0.00    +0.000 A 
ATOM     15  C   UNL     1      -0.721  11.243  21.724  0.00  0.00    +0.000 A 
ATOM     16  C   UNL     1      -0.777  10.678  23.000  0.00  0.00    +0.000 A 
ATOM     17  C   UNL     1      -0.116   9.485  23.250  0.00  0.00    +0.000 A 
ATOM     18  C   UNL     1       0.564   8.849  22.211  0.00  0.00    +0.000 A 
ATOM     19  C   UNL     1       0.637   9.393  20.937  0.00  0.00    +0.000 A 
ATOM     20  N   UNL     1       1.310   8.692  20.008  0.00  0.00    +0.000 NA
ENDBRANCH   1  13
BRANCH   7  21
ATOM     21  S   UNL     1       2.809  16.814  19.209  0.00  0.00    +0.000 S 
ATOM     22  O   UNL     1       2.260  16.401  17.935  0.00  0.00    +0.000 OA
ATOM     23  O   UNL     1       2.813  18.207  19.603  0.00  0.00    +0.000 OA
BRANCH  21  24
ATOM     24  C   UNL     1       4.495  16.261  19.230  0.00  0.00    +0.000 A 
ATOM     25  C   UNL     1       5.246  16.403  20.415  0.00  0.00    +0.000 A 
ATOM     26  C   UNL     1       6.472  15.755  20.530  0.00  0.00    +0.000 A 
ATOM     27  C   UNL     1       6.935  14.966  19.481  0.00  0.00    +0.000 A 
ATOM     28  F   UNL     1       8.091  14.305  19.618  0.00  0.00    +0.000 F 
ATOM     29  C   UNL     1       6.205  14.828  18.305  0.00  0.00    +0.000 A 
ATOM     30  C   UNL     1       4.974  15.476  18.177  0.00  0.00    +0.000 A 
ENDBRANCH  21  24
ENDBRANCH   7  21
TORSDOF 3
ENDMDL
