MODEL 1
REMARK VINA RESULT:      -8.1      0.000      0.000
REMARK  Name = 
REMARK  5 active torsions:
REMARK  status: ('A' for Active; 'I' for Inactive)
REMARK    1  A    between atoms: C_2  and  C_15
REMARK    2  A    between atoms: N_3  and  C_4
REMARK    3  A    between atoms: C_4  and  C_5
REMARK    4  A    between atoms: C_5  and  C_6
REMARK    5  A    between atoms: C_18  and  C_19
REMARK                            x       y       z     vdW  Elec       q    Type
REMARK                         _______ _______ _______ _____ _____    ______ ____
ROOT
ATOM      1  O   UNL     1       7.565   6.686  16.322  0.00  0.00    +0.000 OA
ATOM      2  C   UNL     1       7.278   5.496  16.339  0.00  0.00    +0.000 C 
ATOM      3  N   UNL     1       7.542   4.661  17.400  0.00  0.00    +0.000 N 
ATOM      4  H   UNL     1       7.347   3.669  17.338  0.00  0.00    +0.000 HD
ENDROOT
BRANCH   2   5
ATOM      5  C   UNL     1       6.633   4.870  15.164  0.00  0.00    +0.000 A 
ATOM      6  C   UNL     1       5.365   4.289  15.213  0.00  0.00    +0.000 A 
ATOM      7  C   UNL     1       4.830   3.717  14.059  0.00  0.00    +0.000 A 
ATOM      8  C   UNL     1       5.571   3.736  12.873  0.00  0.00    +0.000 A 
ATOM      9  N   UNL     1       6.808   4.313  12.816  0.00  0.00    +0.000 NA
ATOM     10  C   UNL     1       7.301   4.872  13.951  0.00  0.00    +0.000 A 
BRANCH   8  11
ATOM     11  C   UNL     1       4.992   3.107  11.609  0.00  0.00    +0.000 C 
ATOM     12  F   UNL     1       3.652   2.845  11.708  0.00  0.00    +0.000 F 
ATOM     13  F   UNL     1       5.124   3.897  10.507  0.00  0.00    +0.000 F 
ATOM     14  F   UNL     1       5.567   1.912  11.294  0.00  0.00    +0.000 F 
ENDBRANCH   8  11
ENDBRANCH   2   5
BRANCH   3  15
ATOM     15  C   UNL     1       8.118   5.162  18.635  0.00  0.00    +0.000 C 
BRANCH  15  16
ATOM     16  C   UNL     1       7.058   5.527  19.674  0.00  0.00    +0.000 C 
BRANCH  16  17
ATOM     17  C   UNL     1       5.695   5.117  19.245  0.00  0.00    +0.000 A 
ATOM     18  C   UNL     1       4.557   5.820  18.907  0.00  0.00    +0.000 A 
ATOM     19  C   UNL     1       3.574   4.858  18.558  0.00  0.00    +0.000 A 
ATOM     20  C   UNL     1       2.237   4.900  18.125  0.00  0.00    +0.000 A 
ATOM     21  C   UNL     1       1.573   3.691  17.872  0.00  0.00    +0.000 A 
ATOM     22  C   UNL     1       2.219   2.464  18.046  0.00  0.00    +0.000 A 
ATOM     23  C   UNL     1       3.549   2.402  18.479  0.00  0.00    +0.000 A 
ATOM     24  C   UNL     1       4.182   3.619  18.717  0.00  0.00    +0.000 A 
ATOM     25  O   UNL     1       5.473   3.774  19.129  0.00  0.00    +0.000 OA
ENDBRANCH  16  17
ENDBRANCH  15  16
ENDBRANCH   3  15
TORSDOF 5
ENDMDL
MODEL 2
REMARK VINA RESULT:      -8.1      0.678      1.269
REMARK  Name = 
REMARK  5 active torsions:
REMARK  status: ('A' for Active; 'I' for Inactive)
REMARK    1  A    between atoms: C_2  and  C_15
REMARK    2  A    between atoms: N_3  and  C_4
REMARK    3  A    between atoms: C_4  and  C_5
REMARK    4  A    between atoms: C_5  and  C_6
REMARK    5  A    between atoms: C_18  and  C_19
REMARK                            x       y       z     vdW  Elec       q    Type
REMARK                         _______ _______ _______ _____ _____    ______ ____
ROOT
ATOM      1  O   UNL     1       7.728   6.443  16.137  0.00  0.00    +0.000 OA
ATOM      2  C   UNL     1       7.282   5.302  16.131  0.00  0.00    +0.000 C 
ATOM      3  N   UNL     1       7.359   4.446  17.205  0.00  0.00    +0.000 N 
ATOM      4  H   UNL     1       7.036   3.489  17.128  0.00  0.00    +0.000 HD
ENDROOT
BRANCH   2   5
ATOM      5  C   UNL     1       6.641   4.761  14.913  0.00  0.00    +0.000 A 
ATOM      6  C   UNL     1       7.294   4.683  13.681  0.00  0.00    +0.000 A 
ATOM      7  C   UNL     1       6.615   4.161  12.580  0.00  0.00    +0.000 A 
ATOM      8  C   UNL     1       5.295   3.724  12.727  0.00  0.00    +0.000 A 
ATOM      9  N   UNL     1       4.654   3.788  13.932  0.00  0.00    +0.000 NA
ATOM     10  C   UNL     1       5.341   4.291  14.991  0.00  0.00    +0.000 A 
BRANCH   8  11
ATOM     11  C   UNL     1       4.546   3.158  11.525  0.00  0.00    +0.000 C 
ATOM     12  F   UNL     1       4.402   4.064  10.509  0.00  0.00    +0.000 F 
ATOM     13  F   UNL     1       5.169   2.084  10.962  0.00  0.00    +0.000 F 
ATOM     14  F   UNL     1       3.280   2.752  11.824  0.00  0.00    +0.000 F 
ENDBRANCH   8  11
ENDBRANCH   2   5
BRANCH   3  15
ATOM     15  C   UNL     1       7.912   4.873  18.478  0.00  0.00    +0.000 C 
BRANCH  15  16
ATOM     16  C   UNL     1       6.870   5.532  19.382  0.00  0.00    +0.000 C 
BRANCH  16  17
ATOM     17  C   UNL     1       5.492   5.065  19.074  0.00  0.00    +0.000 A 
ATOM     18  C   UNL     1       4.352   5.704  18.635  0.00  0.00    +0.000 A 
ATOM     19  C   UNL     1       3.352   4.705  18.503  0.00  0.00    +0.000 A 
ATOM     20  C   UNL     1       2.004   4.680  18.104  0.00  0.00    +0.000 A 
ATOM     21  C   UNL     1       1.324   3.454  18.106  0.00  0.00    +0.000 A 
ATOM     22  C   UNL     1       1.964   2.275  18.500  0.00  0.00    +0.000 A 
ATOM     23  C   UNL     1       3.304   2.281  18.904  0.00  0.00    +0.000 A 
ATOM     24  C   UNL     1       3.954   3.512  18.885  0.00  0.00    +0.000 A 
ATOM     25  O   UNL     1       5.256   3.728  19.227  0.00  0.00    +0.000 OA
ENDBRANCH  16  17
ENDBRANCH  15  16
ENDBRANCH   3  15
TORSDOF 5
ENDMDL
MODEL 3
REMARK VINA RESULT:      -7.7      5.470      8.138
REMARK  Name = 
REMARK  5 active torsions:
REMARK  status: ('A' for Active; 'I' for Inactive)
REMARK    1  A    between atoms: C_2  and  C_15
REMARK    2  A    between atoms: N_3  and  C_4
REMARK    3  A    between atoms: C_4  and  C_5
REMARK    4  A    between atoms: C_5  and  C_6
REMARK    5  A    between atoms: C_18  and  C_19
REMARK                            x       y       z     vdW  Elec       q    Type
REMARK                         _______ _______ _______ _____ _____    ______ ____
ROOT
ATOM      1  O   UNL     1       7.367   4.321  18.325  0.00  0.00    +0.000 OA
ATOM      2  C   UNL     1       6.490   5.117  18.635  0.00  0.00    +0.000 C 
ATOM      3  N   UNL     1       6.667   6.482  18.649  0.00  0.00    +0.000 N 
ATOM      4  H   UNL     1       5.931   7.094  18.979  0.00  0.00    +0.000 HD
ENDROOT
BRANCH   2   5
ATOM      5  C   UNL     1       5.157   4.630  19.050  0.00  0.00    +0.000 A 
ATOM      6  C   UNL     1       4.884   3.283  19.299  0.00  0.00    +0.000 A 
ATOM      7  C   UNL     1       3.597   2.907  19.684  0.00  0.00    +0.000 A 
ATOM      8  C   UNL     1       2.604   3.883  19.816  0.00  0.00    +0.000 A 
ATOM      9  N   UNL     1       2.868   5.203  19.585  0.00  0.00    +0.000 NA
ATOM     10  C   UNL     1       4.131   5.544  19.221  0.00  0.00    +0.000 A 
BRANCH   8  11
ATOM     11  C   UNL     1       1.194   3.475  20.232  0.00  0.00    +0.000 C 
ATOM     12  F   UNL     1       0.509   2.829  19.239  0.00  0.00    +0.000 F 
ATOM     13  F   UNL     1       1.172   2.624  21.296  0.00  0.00    +0.000 F 
ATOM     14  F   UNL     1       0.409   4.535  20.576  0.00  0.00    +0.000 F 
ENDBRANCH   8  11
ENDBRANCH   2   5
BRANCH   3  15
ATOM     15  C   UNL     1       7.909   7.091  18.209  0.00  0.00    +0.000 C 
BRANCH  15  16
ATOM     16  C   UNL     1       7.692   8.434  17.512  0.00  0.00    +0.000 C 
BRANCH  16  17
ATOM     17  C   UNL     1       8.436   9.533  18.182  0.00  0.00    +0.000 A 
ATOM     18  C   UNL     1       9.213   9.594  19.320  0.00  0.00    +0.000 A 
ATOM     19  C   UNL     1       9.675  10.932  19.425  0.00  0.00    +0.000 A 
ATOM     20  C   UNL     1      10.490  11.645  20.322  0.00  0.00    +0.000 A 
ATOM     21  C   UNL     1      10.724  13.007  20.081  0.00  0.00    +0.000 A 
ATOM     22  C   UNL     1      10.160  13.651  18.977  0.00  0.00    +0.000 A 
ATOM     23  C   UNL     1       9.344  12.958  18.075  0.00  0.00    +0.000 A 
ATOM     24  C   UNL     1       9.135  11.607  18.337  0.00  0.00    +0.000 A 
ATOM     25  O   UNL     1       8.386  10.758  17.577  0.00  0.00    +0.000 OA
ENDBRANCH  16  17
ENDBRANCH  15  16
ENDBRANCH   3  15
TORSDOF 5
ENDMDL
MODEL 4
REMARK VINA RESULT:      -7.6      5.122      7.859
REMARK  Name = 
REMARK  5 active torsions:
REMARK  status: ('A' for Active; 'I' for Inactive)
REMARK    1  A    between atoms: C_2  and  C_15
REMARK    2  A    between atoms: N_3  and  C_4
REMARK    3  A    between atoms: C_4  and  C_5
REMARK    4  A    between atoms: C_5  and  C_6
REMARK    5  A    between atoms: C_18  and  C_19
REMARK                            x       y       z     vdW  Elec       q    Type
REMARK                         _______ _______ _______ _____ _____    ______ ____
ROOT
ATOM      1  O   UNL     1       7.431   5.583  20.032  0.00  0.00    +0.000 OA
ATOM      2  C   UNL     1       6.684   5.780  19.082  0.00  0.00    +0.000 C 
ATOM      3  N   UNL     1       6.902   6.744  18.125  0.00  0.00    +0.000 N 
ATOM      4  H   UNL     1       6.220   6.914  17.397  0.00  0.00    +0.000 HD
ENDROOT
BRANCH   2   5
ATOM      5  C   UNL     1       5.450   4.980  18.929  0.00  0.00    +0.000 A 
ATOM      6  C   UNL     1       4.297   5.209  19.682  0.00  0.00    +0.000 A 
ATOM      7  C   UNL     1       3.175   4.405  19.477  0.00  0.00    +0.000 A 
ATOM      8  C   UNL     1       3.223   3.386  18.520  0.00  0.00    +0.000 A 
ATOM      9  N   UNL     1       4.345   3.165  17.772  0.00  0.00    +0.000 NA
ATOM     10  C   UNL     1       5.419   3.967  17.984  0.00  0.00    +0.000 A 
BRANCH   8  11
ATOM     11  C   UNL     1       2.001   2.501  18.296  0.00  0.00    +0.000 C 
ATOM     12  F   UNL     1       0.850   3.217  18.108  0.00  0.00    +0.000 F 
ATOM     13  F   UNL     1       2.110   1.702  17.197  0.00  0.00    +0.000 F 
ATOM     14  F   UNL     1       1.739   1.673  19.346  0.00  0.00    +0.000 F 
ENDBRANCH   8  11
ENDBRANCH   2   5
BRANCH   3  15
ATOM     15  C   UNL     1       8.105   7.558  18.128  0.00  0.00    +0.000 C 
BRANCH  15  16
ATOM     16  C   UNL     1       7.832   9.015  17.756  0.00  0.00    +0.000 C 
BRANCH  16  17
ATOM     17  C   UNL     1       8.853   9.934  18.326  0.00  0.00    +0.000 A 
ATOM     18  C   UNL     1       9.254  10.222  19.613  0.00  0.00    +0.000 A 
ATOM     19  C   UNL     1      10.300  11.176  19.509  0.00  0.00    +0.000 A 
ATOM     20  C   UNL     1      11.127  11.862  20.415  0.00  0.00    +0.000 A 
ATOM     21  C   UNL     1      12.080  12.759  19.911  0.00  0.00    +0.000 A 
ATOM     22  C   UNL     1      12.210  12.975  18.536  0.00  0.00    +0.000 A 
ATOM     23  C   UNL     1      11.394  12.303  17.619  0.00  0.00    +0.000 A 
ATOM     24  C   UNL     1      10.461  11.415  18.150  0.00  0.00    +0.000 A 
ATOM     25  O   UNL     1       9.587  10.657  17.428  0.00  0.00    +0.000 OA
ENDBRANCH  16  17
ENDBRANCH  15  16
ENDBRANCH   3  15
TORSDOF 5
ENDMDL
MODEL 5
REMARK VINA RESULT:      -7.5      0.905      1.763
REMARK  Name = 
REMARK  5 active torsions:
REMARK  status: ('A' for Active; 'I' for Inactive)
REMARK    1  A    between atoms: C_2  and  C_15
REMARK    2  A    between atoms: N_3  and  C_4
REMARK    3  A    between atoms: C_4  and  C_5
REMARK    4  A    between atoms: C_5  and  C_6
REMARK    5  A    between atoms: C_18  and  C_19
REMARK                            x       y       z     vdW  Elec       q    Type
REMARK                         _______ _______ _______ _____ _____    ______ ____
ROOT
ATOM      1  O   UNL     1       7.686   6.415  16.040  0.00  0.00    +0.000 OA
ATOM      2  C   UNL     1       7.212   5.287  16.053  0.00  0.00    +0.000 C 
ATOM      3  N   UNL     1       7.238   4.458  17.151  0.00  0.00    +0.000 N 
ATOM      4  H   UNL     1       6.894   3.508  17.091  0.00  0.00    +0.000 HD
ENDROOT
BRANCH   2   5
ATOM      5  C   UNL     1       6.590   4.728  14.833  0.00  0.00    +0.000 A 
ATOM      6  C   UNL     1       7.279   4.585  13.626  0.00  0.00    +0.000 A 
ATOM      7  C   UNL     1       6.616   4.051  12.521  0.00  0.00    +0.000 A 
ATOM      8  C   UNL     1       5.277   3.667  12.639  0.00  0.00    +0.000 A 
ATOM      9  N   UNL     1       4.601   3.794  13.819  0.00  0.00    +0.000 NA
ATOM     10  C   UNL     1       5.272   4.308  14.883  0.00  0.00    +0.000 A 
BRANCH   8  11
ATOM     11  C   UNL     1       4.547   3.088  11.431  0.00  0.00    +0.000 C 
ATOM     12  F   UNL     1       4.499   3.952  10.370  0.00  0.00    +0.000 F 
ATOM     13  F   UNL     1       5.126   1.955  10.945  0.00  0.00    +0.000 F 
ATOM     14  F   UNL     1       3.247   2.771  11.692  0.00  0.00    +0.000 F 
ENDBRANCH   8  11
ENDBRANCH   2   5
BRANCH   3  15
ATOM     15  C   UNL     1       7.768   4.906  18.427  0.00  0.00    +0.000 C 
BRANCH  15  16
ATOM     16  C   UNL     1       6.676   5.397  19.379  0.00  0.00    +0.000 C 
BRANCH  16  17
ATOM     17  C   UNL     1       5.394   4.672  19.173  0.00  0.00    +0.000 A 
ATOM     18  C   UNL     1       4.951   3.415  19.525  0.00  0.00    +0.000 A 
ATOM     19  C   UNL     1       3.612   3.313  19.065  0.00  0.00    +0.000 A 
ATOM     20  C   UNL     1       2.609   2.328  19.102  0.00  0.00    +0.000 A 
ATOM     21  C   UNL     1       1.366   2.610  18.517  0.00  0.00    +0.000 A 
ATOM     22  C   UNL     1       1.121   3.842  17.904  0.00  0.00    +0.000 A 
ATOM     23  C   UNL     1       2.108   4.834  17.854  0.00  0.00    +0.000 A 
ATOM     24  C   UNL     1       3.329   4.526  18.449  0.00  0.00    +0.000 A 
ATOM     25  O   UNL     1       4.409   5.356  18.518  0.00  0.00    +0.000 OA
ENDBRANCH  16  17
ENDBRANCH  15  16
ENDBRANCH   3  15
TORSDOF 5
ENDMDL
MODEL 6
REMARK VINA RESULT:      -7.5      5.007      7.346
REMARK  Name = 
REMARK  5 active torsions:
REMARK  status: ('A' for Active; 'I' for Inactive)
REMARK    1  A    between atoms: C_2  and  C_15
REMARK    2  A    between atoms: N_3  and  C_4
REMARK    3  A    between atoms: C_4  and  C_5
REMARK    4  A    between atoms: C_5  and  C_6
REMARK    5  A    between atoms: C_18  and  C_19
REMARK                            x       y       z     vdW  Elec       q    Type
REMARK                         _______ _______ _______ _____ _____    ______ ____
ROOT
ATOM      1  O   UNL     1       2.590   4.850  21.136  0.00  0.00    +0.000 OA
ATOM      2  C   UNL     1       2.243   5.147  20.000  0.00  0.00    +0.000 C 
ATOM      3  N   UNL     1       2.058   4.229  18.992  0.00  0.00    +0.000 N 
ATOM      4  H   UNL     1       1.837   4.531  18.051  0.00  0.00    +0.000 HD
ENDROOT
BRANCH   2   5
ATOM      5  C   UNL     1       2.023   6.564  19.637  0.00  0.00    +0.000 A 
ATOM      6  C   UNL     1       2.316   7.078  18.372  0.00  0.00    +0.000 A 
ATOM      7  C   UNL     1       2.081   8.428  18.112  0.00  0.00    +0.000 A 
ATOM      8  C   UNL     1       1.556   9.243  19.120  0.00  0.00    +0.000 A 
ATOM      9  N   UNL     1       1.257   8.743  20.356  0.00  0.00    +0.000 NA
ATOM     10  C   UNL     1       1.486   7.424  20.580  0.00  0.00    +0.000 A 
BRANCH   8  11
ATOM     11  C   UNL     1       1.303  10.722  18.842  0.00  0.00    +0.000 C 
ATOM     12  F   UNL     1       2.220  11.269  17.986  0.00  0.00    +0.000 F 
ATOM     13  F   UNL     1       0.089  10.961  18.270  0.00  0.00    +0.000 F 
ATOM     14  F   UNL     1       1.355  11.494  19.964  0.00  0.00    +0.000 F 
ENDBRANCH   8  11
ENDBRANCH   2   5
BRANCH   3  15
ATOM     15  C   UNL     1       2.185   2.803  19.232  0.00  0.00    +0.000 C 
BRANCH  15  16
ATOM     16  C   UNL     1       3.458   2.213  18.625  0.00  0.00    +0.000 C 
BRANCH  16  17
ATOM     17  C   UNL     1       4.417   3.271  18.209  0.00  0.00    +0.000 A 
ATOM     18  C   UNL     1       4.678   3.893  17.006  0.00  0.00    +0.000 A 
ATOM     19  C   UNL     1       5.700   4.846  17.255  0.00  0.00    +0.000 A 
ATOM     20  C   UNL     1       6.401   5.791  16.485  0.00  0.00    +0.000 A 
ATOM     21  C   UNL     1       7.376   6.579  17.112  0.00  0.00    +0.000 A 
ATOM     22  C   UNL     1       7.656   6.434  18.473  0.00  0.00    +0.000 A 
ATOM     23  C   UNL     1       6.970   5.497  19.256  0.00  0.00    +0.000 A 
ATOM     24  C   UNL     1       6.004   4.733  18.606  0.00  0.00    +0.000 A 
ATOM     25  O   UNL     1       5.222   3.780  19.189  0.00  0.00    +0.000 OA
ENDBRANCH  16  17
ENDBRANCH  15  16
ENDBRANCH   3  15
TORSDOF 5
ENDMDL
MODEL 7
REMARK VINA RESULT:      -7.5      6.736      8.076
REMARK  Name = 
REMARK  5 active torsions:
REMARK  status: ('A' for Active; 'I' for Inactive)
REMARK    1  A    between atoms: C_2  and  C_15
REMARK    2  A    between atoms: N_3  and  C_4
REMARK    3  A    between atoms: C_4  and  C_5
REMARK    4  A    between atoms: C_5  and  C_6
REMARK    5  A    between atoms: C_18  and  C_19
REMARK                            x       y       z     vdW  Elec       q    Type
REMARK                         _______ _______ _______ _____ _____    ______ ____
ROOT
ATOM      1  O   UNL     1       7.529   9.034  17.184  0.00  0.00    +0.000 OA
ATOM      2  C   UNL     1       8.264   8.938  18.158  0.00  0.00    +0.000 C 
ATOM      3  N   UNL     1       8.502   7.757  18.824  0.00  0.00    +0.000 N 
ATOM      4  H   UNL     1       9.064   7.743  19.665  0.00  0.00    +0.000 HD
ENDROOT
BRANCH   2   5
ATOM      5  C   UNL     1       8.936  10.138  18.703  0.00  0.00    +0.000 A 
ATOM      6  C   UNL     1       9.417  10.211  20.012  0.00  0.00    +0.000 A 
ATOM      7  C   UNL     1      10.037  11.381  20.448  0.00  0.00    +0.000 A 
ATOM      8  C   UNL     1      10.167  12.461  19.569  0.00  0.00    +0.000 A 
ATOM      9  N   UNL     1       9.709  12.392  18.284  0.00  0.00    +0.000 NA
ATOM     10  C   UNL     1       9.119  11.237  17.881  0.00  0.00    +0.000 A 
BRANCH   8  11
ATOM     11  C   UNL     1      10.840  13.746  20.043  0.00  0.00    +0.000 C 
ATOM     12  F   UNL     1      10.417  14.854  19.360  0.00  0.00    +0.000 F 
ATOM     13  F   UNL     1      10.604  14.022  21.356  0.00  0.00    +0.000 F 
ATOM     14  F   UNL     1      12.194  13.729  19.893  0.00  0.00    +0.000 F 
ENDBRANCH   8  11
ENDBRANCH   2   5
BRANCH   3  15
ATOM     15  C   UNL     1       7.950   6.499  18.356  0.00  0.00    +0.000 C 
BRANCH  15  16
ATOM     16  C   UNL     1       7.279   5.698  19.473  0.00  0.00    +0.000 C 
BRANCH  16  17
ATOM     17  C   UNL     1       5.942   5.190  19.065  0.00  0.00    +0.000 A 
ATOM     18  C   UNL     1       4.870   5.764  18.416  0.00  0.00    +0.000 A 
ATOM     19  C   UNL     1       3.880   4.754  18.295  0.00  0.00    +0.000 A 
ATOM     20  C   UNL     1       2.589   4.673  17.745  0.00  0.00    +0.000 A 
ATOM     21  C   UNL     1       1.899   3.455  17.823  0.00  0.00    +0.000 A 
ATOM     22  C   UNL     1       2.473   2.339  18.436  0.00  0.00    +0.000 A 
ATOM     23  C   UNL     1       3.757   2.400  18.992  0.00  0.00    +0.000 A 
ATOM     24  C   UNL     1       4.419   3.621  18.894  0.00  0.00    +0.000 A 
ATOM     25  O   UNL     1       5.674   3.883  19.358  0.00  0.00    +0.000 OA
ENDBRANCH  16  17
ENDBRANCH  15  16
ENDBRANCH   3  15
TORSDOF 5
ENDMDL
MODEL 8
REMARK VINA RESULT:      -7.4      4.919      7.314
REMARK  Name = 
REMARK  5 active torsions:
REMARK  status: ('A' for Active; 'I' for Inactive)
REMARK    1  A    between atoms: C_2  and  C_15
REMARK    2  A    between atoms: N_3  and  C_4
REMARK    3  A    between atoms: C_4  and  C_5
REMARK    4  A    between atoms: C_5  and  C_6
REMARK    5  A    between atoms: C_18  and  C_19
REMARK                            x       y       z     vdW  Elec       q    Type
REMARK                         _______ _______ _______ _____ _____    ______ ____
ROOT
ATOM      1  O   UNL     1       2.570   4.691  21.392  0.00  0.00    +0.000 OA
ATOM      2  C   UNL     1       2.264   5.039  20.259  0.00  0.00    +0.000 C 
ATOM      3  N   UNL     1       2.176   4.176  19.190  0.00  0.00    +0.000 N 
ATOM      4  H   UNL     1       1.987   4.524  18.259  0.00  0.00    +0.000 HD
ENDROOT
BRANCH   2   5
ATOM      5  C   UNL     1       1.992   6.464  19.967  0.00  0.00    +0.000 A 
ATOM      6  C   UNL     1       1.394   7.327  20.888  0.00  0.00    +0.000 A 
ATOM      7  C   UNL     1       1.170   8.656  20.532  0.00  0.00    +0.000 A 
ATOM      8  C   UNL     1       1.547   9.103  19.261  0.00  0.00    +0.000 A 
ATOM      9  N   UNL     1       2.142   8.266  18.360  0.00  0.00    +0.000 NA
ATOM     10  C   UNL     1       2.359   6.979  18.735  0.00  0.00    +0.000 A 
BRANCH   8  11
ATOM     11  C   UNL     1       1.298  10.555  18.865  0.00  0.00    +0.000 C 
ATOM     12  F   UNL     1       2.211  11.027  17.961  0.00  0.00    +0.000 F 
ATOM     13  F   UNL     1       0.082  10.753  18.284  0.00  0.00    +0.000 F 
ATOM     14  F   UNL     1       1.362  11.417  19.920  0.00  0.00    +0.000 F 
ENDBRANCH   8  11
ENDBRANCH   2   5
BRANCH   3  15
ATOM     15  C   UNL     1       2.363   2.746  19.354  0.00  0.00    +0.000 C 
BRANCH  15  16
ATOM     16  C   UNL     1       3.562   2.214  18.569  0.00  0.00    +0.000 C 
BRANCH  16  17
ATOM     17  C   UNL     1       4.495   3.303  18.176  0.00  0.00    +0.000 A 
ATOM     18  C   UNL     1       4.719   3.975  16.993  0.00  0.00    +0.000 A 
ATOM     19  C   UNL     1       5.732   4.934  17.257  0.00  0.00    +0.000 A 
ATOM     20  C   UNL     1       6.402   5.920  16.510  0.00  0.00    +0.000 A 
ATOM     21  C   UNL     1       7.379   6.698  17.146  0.00  0.00    +0.000 A 
ATOM     22  C   UNL     1       7.691   6.503  18.494  0.00  0.00    +0.000 A 
ATOM     23  C   UNL     1       7.038   5.526  19.253  0.00  0.00    +0.000 A 
ATOM     24  C   UNL     1       6.068   4.773  18.595  0.00  0.00    +0.000 A 
ATOM     25  O   UNL     1       5.314   3.785  19.157  0.00  0.00    +0.000 OA
ENDBRANCH  16  17
ENDBRANCH  15  16
ENDBRANCH   3  15
TORSDOF 5
ENDMDL
MODEL 9
REMARK VINA RESULT:      -7.4      5.247      7.768
REMARK  Name = 
REMARK  5 active torsions:
REMARK  status: ('A' for Active; 'I' for Inactive)
REMARK    1  A    between atoms: C_2  and  C_15
REMARK    2  A    between atoms: N_3  and  C_4
REMARK    3  A    between atoms: C_4  and  C_5
REMARK    4  A    between atoms: C_5  and  C_6
REMARK    5  A    between atoms: C_18  and  C_19
REMARK                            x       y       z     vdW  Elec       q    Type
REMARK                         _______ _______ _______ _____ _____    ______ ____
ROOT
ATOM      1  O   UNL     1       2.583   4.884  18.146  0.00  0.00    +0.000 OA
ATOM      2  C   UNL     1       3.192   5.873  18.532  0.00  0.00    +0.000 C 
ATOM      3  N   UNL     1       4.539   5.881  18.813  0.00  0.00    +0.000 N 
ATOM      4  H   UNL     1       4.983   6.706  19.195  0.00  0.00    +0.000 HD
ENDROOT
BRANCH   2   5
ATOM      5  C   UNL     1       2.476   7.149  18.750  0.00  0.00    +0.000 A 
ATOM      6  C   UNL     1       2.239   8.071  17.728  0.00  0.00    +0.000 A 
ATOM      7  C   UNL     1       1.558   9.253  18.019  0.00  0.00    +0.000 A 
ATOM      8  C   UNL     1       1.122   9.495  19.326  0.00  0.00    +0.000 A 
ATOM      9  N   UNL     1       1.341   8.591  20.327  0.00  0.00    +0.000 NA
ATOM     10  C   UNL     1       1.997   7.444  20.015  0.00  0.00    +0.000 A 
BRANCH   8  11
ATOM     11  C   UNL     1       0.381  10.788  19.649  0.00  0.00    +0.000 C 
ATOM     12  F   UNL     1       1.089  11.909  19.309  0.00  0.00    +0.000 F 
ATOM     13  F   UNL     1      -0.809  10.903  18.996  0.00  0.00    +0.000 F 
ATOM     14  F   UNL     1       0.105  10.930  20.976  0.00  0.00    +0.000 F 
ENDBRANCH   8  11
ENDBRANCH   2   5
BRANCH   3  15
ATOM     15  C   UNL     1       5.367   4.710  18.586  0.00  0.00    +0.000 C 
BRANCH  15  16
ATOM     16  C   UNL     1       6.669   5.042  17.856  0.00  0.00    +0.000 C 
BRANCH  16  17
ATOM     17  C   UNL     1       6.598   4.699  16.411  0.00  0.00    +0.000 A 
ATOM     18  C   UNL     1       5.826   3.818  15.684  0.00  0.00    +0.000 A 
ATOM     19  C   UNL     1       6.210   3.966  14.326  0.00  0.00    +0.000 A 
ATOM     20  C   UNL     1       5.822   3.389  13.104  0.00  0.00    +0.000 A 
ATOM     21  C   UNL     1       6.458   3.812  11.928  0.00  0.00    +0.000 A 
ATOM     22  C   UNL     1       7.461   4.784  11.961  0.00  0.00    +0.000 A 
ATOM     23  C   UNL     1       7.863   5.369  13.168  0.00  0.00    +0.000 A 
ATOM     24  C   UNL     1       7.208   4.932  14.317  0.00  0.00    +0.000 A 
ATOM     25  O   UNL     1       7.442   5.383  15.583  0.00  0.00    +0.000 OA
ENDBRANCH  16  17
ENDBRANCH  15  16
ENDBRANCH   3  15
TORSDOF 5
ENDMDL
