MODEL 1
REMARK VINA RESULT:      -8.8      0.000      0.000
REMARK  Name = 
REMARK  6 active torsions:
REMARK  status: ('A' for Active; 'I' for Inactive)
REMARK    1  A    between atoms: C_1  and  N_2
REMARK    2  A    between atoms: N_2  and  C_24
REMARK    3  A    between atoms: C_3  and  C_5
REMARK    4  A    between atoms: C_8  and  S_9
REMARK    5  A    between atoms: S_9  and  N_12
REMARK    6  A    between atoms: C_20  and  O_21
REMARK                            x       y       z     vdW  Elec       q    Type
REMARK                         _______ _______ _______ _____ _____    ______ ____
ROOT
ATOM      1  C   UNL     1       1.007   9.358  19.527  0.00  0.00    +0.000 A 
ATOM      2  C   UNL     1       1.325   8.451  20.535  0.00  0.00    +0.000 A 
ATOM      3  C   UNL     1       1.968   7.257  20.222  0.00  0.00    +0.000 A 
ATOM      4  C   UNL     1       2.310   6.955  18.905  0.00  0.00    +0.000 A 
ATOM      5  C   UNL     1       2.116   7.898  17.892  0.00  0.00    +0.000 A 
ATOM      6  C   UNL     1       1.456   9.101  18.209  0.00  0.00    +0.000 A 
ENDROOT
BRANCH   1   9
ATOM      7  C   UNL     1       1.423  12.244  20.737  0.00  0.00    +0.000 C 
ATOM      8  N   UNL     1       0.149  11.570  20.469  0.00  0.00    +0.000 N 
ATOM      9  C   UNL     1      -0.061  10.395  19.742  0.00  0.00    +0.000 C 
ATOM     10  O   UNL     1      -1.168  10.084  19.289  0.00  0.00    +0.000 OA
BRANCH   8  11
ATOM     11  C   UNL     1      -0.999  12.234  21.009  0.00  0.00    +0.000 A 
ATOM     12  C   UNL     1      -1.662  13.215  20.263  0.00  0.00    +0.000 A 
ATOM     13  C   UNL     1      -2.825  13.807  20.762  0.00  0.00    +0.000 A 
ATOM     14  C   UNL     1      -3.298  13.457  22.028  0.00  0.00    +0.000 A 
ATOM     15  C   UNL     1      -2.630  12.497  22.784  0.00  0.00    +0.000 A 
ATOM     16  C   UNL     1      -1.491  11.873  22.269  0.00  0.00    +0.000 A 
ENDBRANCH   8  11
ENDBRANCH   1   9
BRANCH   4  17
ATOM     17  S   UNL     1       2.797   5.267  18.575  0.00  0.00    +0.000 S 
ATOM     18  O   UNL     1       3.023   4.641  19.861  0.00  0.00    +0.000 OA
ATOM     19  O   UNL     1       1.832   4.739  17.635  0.00  0.00    +0.000 OA
BRANCH  17  20
ATOM     20  N   UNL     1       4.235   5.404  17.773  0.00  0.00    +0.000 NA
ATOM     21  C   UNL     1       4.510   4.953  16.407  0.00  0.00    +0.000 C 
ATOM     22  C   UNL     1       5.899   5.545  16.093  0.00  0.00    +0.000 C 
ATOM     23  C   UNL     1       7.102   4.681  16.536  0.00  0.00    +0.000 C 
ATOM     24  C   UNL     1       7.565   5.378  17.832  0.00  0.00    +0.000 C 
ATOM     25  C   UNL     1       7.464   6.851  17.443  0.00  0.00    +0.000 C 
ATOM     26  C   UNL     1       6.002   6.752  17.052  0.00  0.00    +0.000 C 
ATOM     27  C   UNL     1       5.346   6.165  18.315  0.00  0.00    +0.000 C 
ATOM     28  C   UNL     1       6.462   5.244  18.901  0.00  0.00    +0.000 C 
BRANCH  28  29
ATOM     29  O   UNL     1       6.113   3.874  19.046  0.00  0.00    +0.000 OA
ATOM     30  H   UNL     1       6.922   3.362  19.205  0.00  0.00    +0.000 HD
ENDBRANCH  28  29
ENDBRANCH  17  20
ENDBRANCH   4  17
TORSDOF 5
ENDMDL
MODEL 2
REMARK VINA RESULT:      -8.1      1.066      1.499
REMARK  Name = 
REMARK  6 active torsions:
REMARK  status: ('A' for Active; 'I' for Inactive)
REMARK    1  A    between atoms: C_1  and  N_2
REMARK    2  A    between atoms: N_2  and  C_24
REMARK    3  A    between atoms: C_3  and  C_5
REMARK    4  A    between atoms: C_8  and  S_9
REMARK    5  A    between atoms: S_9  and  N_12
REMARK    6  A    between atoms: C_20  and  O_21
REMARK                            x       y       z     vdW  Elec       q    Type
REMARK                         _______ _______ _______ _____ _____    ______ ____
ROOT
ATOM      1  C   UNL     1       1.250   9.117  20.015  0.00  0.00    +0.000 A 
ATOM      2  C   UNL     1       1.447   8.040  20.876  0.00  0.00    +0.000 A 
ATOM      3  C   UNL     1       1.979   6.848  20.393  0.00  0.00    +0.000 A 
ATOM      4  C   UNL     1       2.327   6.716  19.050  0.00  0.00    +0.000 A 
ATOM      5  C   UNL     1       2.256   7.816  18.191  0.00  0.00    +0.000 A 
ATOM      6  C   UNL     1       1.709   9.018  18.680  0.00  0.00    +0.000 A 
ENDROOT
BRANCH   1   9
ATOM      7  C   UNL     1      -1.008  10.296  18.150  0.00  0.00    +0.000 C 
ATOM      8  N   UNL     1      -0.554  10.829  19.437  0.00  0.00    +0.000 N 
ATOM      9  C   UNL     1       0.283  10.212  20.372  0.00  0.00    +0.000 C 
ATOM     10  O   UNL     1       0.345  10.579  21.550  0.00  0.00    +0.000 OA
BRANCH   8  11
ATOM     11  C   UNL     1      -1.065  12.129  19.756  0.00  0.00    +0.000 A 
ATOM     12  C   UNL     1      -2.315  12.262  20.370  0.00  0.00    +0.000 A 
ATOM     13  C   UNL     1      -2.777  13.526  20.747  0.00  0.00    +0.000 A 
ATOM     14  C   UNL     1      -2.016  14.661  20.465  0.00  0.00    +0.000 A 
ATOM     15  C   UNL     1      -0.781  14.535  19.833  0.00  0.00    +0.000 A 
ATOM     16  C   UNL     1      -0.298  13.269  19.494  0.00  0.00    +0.000 A 
ENDBRANCH   8  11
ENDBRANCH   1   9
BRANCH   4  17
ATOM     17  S   UNL     1       2.655   5.056  18.472  0.00  0.00    +0.000 S 
ATOM     18  O   UNL     1       2.838   4.235  19.649  0.00  0.00    +0.000 OA
ATOM     19  O   UNL     1       1.635   4.757  17.489  0.00  0.00    +0.000 OA
BRANCH  17  20
ATOM     20  N   UNL     1       4.091   5.179  17.663  0.00  0.00    +0.000 NA
ATOM     21  C   UNL     1       4.373   4.669  16.319  0.00  0.00    +0.000 C 
ATOM     22  C   UNL     1       5.752   5.269  15.976  0.00  0.00    +0.000 C 
ATOM     23  C   UNL     1       6.970   4.447  16.459  0.00  0.00    +0.000 C 
ATOM     24  C   UNL     1       7.420   5.213  17.721  0.00  0.00    +0.000 C 
ATOM     25  C   UNL     1       7.293   6.665  17.261  0.00  0.00    +0.000 C 
ATOM     26  C   UNL     1       5.834   6.522  16.877  0.00  0.00    +0.000 C 
ATOM     27  C   UNL     1       5.188   5.985  18.166  0.00  0.00    +0.000 C 
ATOM     28  C   UNL     1       6.320   5.112  18.796  0.00  0.00    +0.000 C 
BRANCH  28  29
ATOM     29  O   UNL     1       5.994   3.745  19.006  0.00  0.00    +0.000 OA
ATOM     30  H   UNL     1       5.117   3.572  18.627  0.00  0.00    +0.000 HD
ENDBRANCH  28  29
ENDBRANCH  17  20
ENDBRANCH   4  17
TORSDOF 5
ENDMDL
MODEL 3
REMARK VINA RESULT:      -7.9      5.749      8.247
REMARK  Name = 
REMARK  6 active torsions:
REMARK  status: ('A' for Active; 'I' for Inactive)
REMARK    1  A    between atoms: C_1  and  N_2
REMARK    2  A    between atoms: N_2  and  C_24
REMARK    3  A    between atoms: C_3  and  C_5
REMARK    4  A    between atoms: C_8  and  S_9
REMARK    5  A    between atoms: S_9  and  N_12
REMARK    6  A    between atoms: C_20  and  O_21
REMARK                            x       y       z     vdW  Elec       q    Type
REMARK                         _______ _______ _______ _____ _____    ______ ____
ROOT
ATOM      1  C   UNL     1       8.640   9.583  18.466  0.00  0.00    +0.000 A 
ATOM      2  C   UNL     1       7.632   9.553  17.504  0.00  0.00    +0.000 A 
ATOM      3  C   UNL     1       7.036   8.344  17.157  0.00  0.00    +0.000 A 
ATOM      4  C   UNL     1       7.428   7.154  17.766  0.00  0.00    +0.000 A 
ATOM      5  C   UNL     1       8.347   7.170  18.820  0.00  0.00    +0.000 A 
ATOM      6  C   UNL     1       8.956   8.392  19.163  0.00  0.00    +0.000 A 
ENDROOT
BRANCH   1   9
ATOM      7  C   UNL     1       9.246  11.369  20.998  0.00  0.00    +0.000 C 
ATOM      8  N   UNL     1       9.669  11.616  19.617  0.00  0.00    +0.000 N 
ATOM      9  C   UNL     1       9.599  10.740  18.530  0.00  0.00    +0.000 C 
ATOM     10  O   UNL     1      10.268  10.901  17.504  0.00  0.00    +0.000 OA
BRANCH   8  11
ATOM     11  C   UNL     1      10.241  12.910  19.394  0.00  0.00    +0.000 A 
ATOM     12  C   UNL     1      11.568  13.166  19.757  0.00  0.00    +0.000 A 
ATOM     13  C   UNL     1      12.145  14.405  19.470  0.00  0.00    +0.000 A 
ATOM     14  C   UNL     1      11.383  15.407  18.867  0.00  0.00    +0.000 A 
ATOM     15  C   UNL     1      10.056  15.165  18.524  0.00  0.00    +0.000 A 
ATOM     16  C   UNL     1       9.490  13.913  18.771  0.00  0.00    +0.000 A 
ENDBRANCH   8  11
ENDBRANCH   1   9
BRANCH   4  17
ATOM     17  S   UNL     1       6.862   5.642  16.999  0.00  0.00    +0.000 S 
ATOM     18  O   UNL     1       6.532   5.970  15.629  0.00  0.00    +0.000 OA
ATOM     19  O   UNL     1       7.844   4.628  17.320  0.00  0.00    +0.000 OA
BRANCH  17  20
ATOM     20  N   UNL     1       5.479   5.258  17.818  0.00  0.00    +0.000 NA
ATOM     21  C   UNL     1       5.333   5.164  19.273  0.00  0.00    +0.000 C 
ATOM     22  C   UNL     1       3.812   5.027  19.485  0.00  0.00    +0.000 C 
ATOM     23  C   UNL     1       3.262   3.584  19.415  0.00  0.00    +0.000 C 
ATOM     24  C   UNL     1       2.644   3.521  18.003  0.00  0.00    +0.000 C 
ATOM     25  C   UNL     1       1.948   4.878  17.911  0.00  0.00    +0.000 C 
ATOM     26  C   UNL     1       3.211   5.660  18.210  0.00  0.00    +0.000 C 
ATOM     27  C   UNL     1       4.197   5.144  17.148  0.00  0.00    +0.000 C 
ATOM     28  C   UNL     1       3.765   3.656  16.953  0.00  0.00    +0.000 C 
BRANCH  28  29
ATOM     29  O   UNL     1       4.770   2.687  17.213  0.00  0.00    +0.000 OA
ATOM     30  H   UNL     1       4.764   2.478  18.162  0.00  0.00    +0.000 HD
ENDBRANCH  28  29
ENDBRANCH  17  20
ENDBRANCH   4  17
TORSDOF 5
ENDMDL
MODEL 4
REMARK VINA RESULT:      -7.8      0.861      1.522
REMARK  Name = 
REMARK  6 active torsions:
REMARK  status: ('A' for Active; 'I' for Inactive)
REMARK    1  A    between atoms: C_1  and  N_2
REMARK    2  A    between atoms: N_2  and  C_24
REMARK    3  A    between atoms: C_3  and  C_5
REMARK    4  A    between atoms: C_8  and  S_9
REMARK    5  A    between atoms: S_9  and  N_12
REMARK    6  A    between atoms: C_20  and  O_21
REMARK                            x       y       z     vdW  Elec       q    Type
REMARK                         _______ _______ _______ _____ _____    ______ ____
ROOT
ATOM      1  C   UNL     1       0.892   9.593  19.589  0.00  0.00    +0.000 A 
ATOM      2  C   UNL     1       1.246   8.724  20.619  0.00  0.00    +0.000 A 
ATOM      3  C   UNL     1       1.946   7.555  20.336  0.00  0.00    +0.000 A 
ATOM      4  C   UNL     1       2.308   7.239  19.028  0.00  0.00    +0.000 A 
ATOM      5  C   UNL     1       2.075   8.149  17.993  0.00  0.00    +0.000 A 
ATOM      6  C   UNL     1       1.358   9.327  18.280  0.00  0.00    +0.000 A 
ENDROOT
BRANCH   1   9
ATOM      7  C   UNL     1       1.153  12.491  20.814  0.00  0.00    +0.000 C 
ATOM      8  N   UNL     1      -0.083  11.765  20.511  0.00  0.00    +0.000 N 
ATOM      9  C   UNL     1      -0.225  10.583  19.777  0.00  0.00    +0.000 C 
ATOM     10  O   UNL     1      -1.305  10.227  19.295  0.00  0.00    +0.000 OA
BRANCH   8  11
ATOM     11  C   UNL     1      -1.273  12.378  21.021  0.00  0.00    +0.000 A 
ATOM     12  C   UNL     1      -1.814  11.958  22.241  0.00  0.00    +0.000 A 
ATOM     13  C   UNL     1      -2.932  12.608  22.771  0.00  0.00    +0.000 A 
ATOM     14  C   UNL     1      -3.540  13.643  22.060  0.00  0.00    +0.000 A 
ATOM     15  C   UNL     1      -3.018  14.050  20.834  0.00  0.00    +0.000 A 
ATOM     16  C   UNL     1      -1.876  13.430  20.323  0.00  0.00    +0.000 A 
ENDBRANCH   8  11
ENDBRANCH   1   9
BRANCH   4  17
ATOM     17  S   UNL     1       2.874   5.569  18.738  0.00  0.00    +0.000 S 
ATOM     18  O   UNL     1       2.963   4.930  20.034  0.00  0.00    +0.000 OA
ATOM     19  O   UNL     1       2.041   5.031  17.684  0.00  0.00    +0.000 OA
BRANCH  17  20
ATOM     20  N   UNL     1       4.393   5.752  18.114  0.00  0.00    +0.000 NA
ATOM     21  C   UNL     1       4.934   6.966  17.498  0.00  0.00    +0.000 C 
ATOM     22  C   UNL     1       6.436   6.658  17.328  0.00  0.00    +0.000 C 
ATOM     23  C   UNL     1       6.816   5.920  16.024  0.00  0.00    +0.000 C 
ATOM     24  C   UNL     1       7.003   4.464  16.497  0.00  0.00    +0.000 C 
ATOM     25  C   UNL     1       7.761   4.661  17.809  0.00  0.00    +0.000 C 
ATOM     26  C   UNL     1       6.705   5.577  18.398  0.00  0.00    +0.000 C 
ATOM     27  C   UNL     1       5.419   4.740  18.283  0.00  0.00    +0.000 C 
ATOM     28  C   UNL     1       5.648   3.910  16.981  0.00  0.00    +0.000 C 
BRANCH  28  29
ATOM     29  O   UNL     1       4.677   4.091  15.960  0.00  0.00    +0.000 OA
ATOM     30  H   UNL     1       4.543   5.043  15.822  0.00  0.00    +0.000 HD
ENDBRANCH  28  29
ENDBRANCH  17  20
ENDBRANCH   4  17
TORSDOF 5
ENDMDL
MODEL 5
REMARK VINA RESULT:      -7.8      0.878      1.816
REMARK  Name = 
REMARK  6 active torsions:
REMARK  status: ('A' for Active; 'I' for Inactive)
REMARK    1  A    between atoms: C_1  and  N_2
REMARK    2  A    between atoms: N_2  and  C_24
REMARK    3  A    between atoms: C_3  and  C_5
REMARK    4  A    between atoms: C_8  and  S_9
REMARK    5  A    between atoms: S_9  and  N_12
REMARK    6  A    between atoms: C_20  and  O_21
REMARK                            x       y       z     vdW  Elec       q    Type
REMARK                         _______ _______ _______ _____ _____    ______ ____
ROOT
ATOM      1  C   UNL     1       1.060   9.293  19.624  0.00  0.00    +0.000 A 
ATOM      2  C   UNL     1       1.342   8.399  20.655  0.00  0.00    +0.000 A 
ATOM      3  C   UNL     1       1.998   7.203  20.382  0.00  0.00    +0.000 A 
ATOM      4  C   UNL     1       2.388   6.885  19.082  0.00  0.00    +0.000 A 
ATOM      5  C   UNL     1       2.230   7.814  18.051  0.00  0.00    +0.000 A 
ATOM      6  C   UNL     1       1.557   9.019  18.328  0.00  0.00    +0.000 A 
ENDROOT
BRANCH   1   9
ATOM      7  C   UNL     1       1.434  12.210  20.772  0.00  0.00    +0.000 C 
ATOM      8  N   UNL     1       0.170  11.524  20.489  0.00  0.00    +0.000 N 
ATOM      9  C   UNL     1      -0.018  10.330  19.786  0.00  0.00    +0.000 C 
ATOM     10  O   UNL     1      -1.111  10.003  19.314  0.00  0.00    +0.000 OA
BRANCH   8  11
ATOM     11  C   UNL     1      -0.994  12.196  20.983  0.00  0.00    +0.000 A 
ATOM     12  C   UNL     1      -1.512  11.873  22.243  0.00  0.00    +0.000 A 
ATOM     13  C   UNL     1      -2.603  12.582  22.753  0.00  0.00    +0.000 A 
ATOM     14  C   UNL     1      -3.210  13.577  21.985  0.00  0.00    +0.000 A 
ATOM     15  C   UNL     1      -2.712  13.885  20.722  0.00  0.00    +0.000 A 
ATOM     16  C   UNL     1      -1.596  13.208  20.228  0.00  0.00    +0.000 A 
ENDBRANCH   8  11
ENDBRANCH   1   9
BRANCH   4  17
ATOM     17  S   UNL     1       2.890   5.193  18.793  0.00  0.00    +0.000 S 
ATOM     18  O   UNL     1       2.771   4.503  20.060  0.00  0.00    +0.000 OA
ATOM     19  O   UNL     1       2.172   4.749  17.618  0.00  0.00    +0.000 OA
BRANCH  17  20
ATOM     20  N   UNL     1       4.485   5.303  18.378  0.00  0.00    +0.000 NA
ATOM     21  C   UNL     1       5.562   5.836  19.216  0.00  0.00    +0.000 C 
ATOM     22  C   UNL     1       6.848   5.472  18.444  0.00  0.00    +0.000 C 
ATOM     23  C   UNL     1       7.285   6.494  17.369  0.00  0.00    +0.000 C 
ATOM     24  C   UNL     1       6.815   5.831  16.057  0.00  0.00    +0.000 C 
ATOM     25  C   UNL     1       7.206   4.373  16.291  0.00  0.00    +0.000 C 
ATOM     26  C   UNL     1       6.420   4.263  17.582  0.00  0.00    +0.000 C 
ATOM     27  C   UNL     1       5.006   4.701  17.164  0.00  0.00    +0.000 C 
ATOM     28  C   UNL     1       5.274   5.760  16.049  0.00  0.00    +0.000 C 
BRANCH  28  29
ATOM     29  O   UNL     1       4.744   7.055  16.293  0.00  0.00    +0.000 OA
ATOM     30  H   UNL     1       5.340   7.527  16.897  0.00  0.00    +0.000 HD
ENDBRANCH  28  29
ENDBRANCH  17  20
ENDBRANCH   4  17
TORSDOF 5
ENDMDL
MODEL 6
REMARK VINA RESULT:      -7.8      2.519      3.689
REMARK  Name = 
REMARK  6 active torsions:
REMARK  status: ('A' for Active; 'I' for Inactive)
REMARK    1  A    between atoms: C_1  and  N_2
REMARK    2  A    between atoms: N_2  and  C_24
REMARK    3  A    between atoms: C_3  and  C_5
REMARK    4  A    between atoms: C_8  and  S_9
REMARK    5  A    between atoms: S_9  and  N_12
REMARK    6  A    between atoms: C_20  and  O_21
REMARK                            x       y       z     vdW  Elec       q    Type
REMARK                         _______ _______ _______ _____ _____    ______ ____
ROOT
ATOM      1  C   UNL     1       0.890   9.697  19.350  0.00  0.00    +0.000 A 
ATOM      2  C   UNL     1       1.331   9.524  18.040  0.00  0.00    +0.000 A 
ATOM      3  C   UNL     1       2.138   8.438  17.713  0.00  0.00    +0.000 A 
ATOM      4  C   UNL     1       2.509   7.508  18.682  0.00  0.00    +0.000 A 
ATOM      5  C   UNL     1       1.982   7.588  19.974  0.00  0.00    +0.000 A 
ATOM      6  C   UNL     1       1.174   8.692  20.305  0.00  0.00    +0.000 A 
ENDROOT
BRANCH   1   9
ATOM      7  C   UNL     1      -1.886  11.060  18.715  0.00  0.00    +0.000 C 
ATOM      8  N   UNL     1      -0.717  11.681  19.346  0.00  0.00    +0.000 N 
ATOM      9  C   UNL     1       0.432  11.048  19.828  0.00  0.00    +0.000 C 
ATOM     10  O   UNL     1       1.202  11.590  20.628  0.00  0.00    +0.000 OA
BRANCH   8  11
ATOM     11  C   UNL     1      -0.806  13.103  19.493  0.00  0.00    +0.000 A 
ATOM     12  C   UNL     1      -1.563  13.657  20.530  0.00  0.00    +0.000 A 
ATOM     13  C   UNL     1      -1.587  15.042  20.715  0.00  0.00    +0.000 A 
ATOM     14  C   UNL     1      -0.898  15.876  19.834  0.00  0.00    +0.000 A 
ATOM     15  C   UNL     1      -0.161  15.330  18.786  0.00  0.00    +0.000 A 
ATOM     16  C   UNL     1      -0.101  13.944  18.625  0.00  0.00    +0.000 A 
ENDBRANCH   8  11
ENDBRANCH   1   9
BRANCH   4  17
ATOM     17  S   UNL     1       3.820   6.376  18.240  0.00  0.00    +0.000 S 
ATOM     18  O   UNL     1       4.225   6.716  16.892  0.00  0.00    +0.000 OA
ATOM     19  O   UNL     1       4.760   6.388  19.340  0.00  0.00    +0.000 OA
BRANCH  17  20
ATOM     20  N   UNL     1       3.095   4.891  18.234  0.00  0.00    +0.000 NA
ATOM     21  C   UNL     1       1.775   4.574  17.683  0.00  0.00    +0.000 C 
ATOM     22  C   UNL     1       1.716   3.034  17.722  0.00  0.00    +0.000 C 
ATOM     23  C   UNL     1       1.218   2.425  19.054  0.00  0.00    +0.000 C 
ATOM     24  C   UNL     1       2.528   1.971  19.732  0.00  0.00    +0.000 C 
ATOM     25  C   UNL     1       3.287   1.358  18.557  0.00  0.00    +0.000 C 
ATOM     26  C   UNL     1       3.203   2.615  17.715  0.00  0.00    +0.000 C 
ATOM     27  C   UNL     1       3.803   3.690  18.639  0.00  0.00    +0.000 C 
ATOM     28  C   UNL     1       3.383   3.210  20.064  0.00  0.00    +0.000 C 
BRANCH  28  29
ATOM     29  O   UNL     1       2.603   4.130  20.815  0.00  0.00    +0.000 OA
ATOM     30  H   UNL     1       2.918   4.127  21.734  0.00  0.00    +0.000 HD
ENDBRANCH  28  29
ENDBRANCH  17  20
ENDBRANCH   4  17
TORSDOF 5
ENDMDL
MODEL 7
REMARK VINA RESULT:      -7.8      2.844      8.699
REMARK  Name = 
REMARK  6 active torsions:
REMARK  status: ('A' for Active; 'I' for Inactive)
REMARK    1  A    between atoms: C_1  and  N_2
REMARK    2  A    between atoms: N_2  and  C_24
REMARK    3  A    between atoms: C_3  and  C_5
REMARK    4  A    between atoms: C_8  and  S_9
REMARK    5  A    between atoms: S_9  and  N_12
REMARK    6  A    between atoms: C_20  and  O_21
REMARK                            x       y       z     vdW  Elec       q    Type
REMARK                         _______ _______ _______ _____ _____    ______ ____
ROOT
ATOM      1  C   UNL     1       2.045   7.774  19.667  0.00  0.00    +0.000 A 
ATOM      2  C   UNL     1       1.913   8.400  18.430  0.00  0.00    +0.000 A 
ATOM      3  C   UNL     1       1.176   9.575  18.317  0.00  0.00    +0.000 A 
ATOM      4  C   UNL     1       0.569  10.146  19.435  0.00  0.00    +0.000 A 
ATOM      5  C   UNL     1       0.787   9.609  20.707  0.00  0.00    +0.000 A 
ATOM      6  C   UNL     1       1.524   8.415  20.817  0.00  0.00    +0.000 A 
ENDROOT
BRANCH   1   9
ATOM      7  C   UNL     1       4.424   6.361  18.148  0.00  0.00    +0.000 C 
ATOM      8  N   UNL     1       3.344   5.715  18.898  0.00  0.00    +0.000 N 
ATOM      9  C   UNL     1       2.414   6.318  19.750  0.00  0.00    +0.000 C 
ATOM     10  O   UNL     1       1.766   5.677  20.585  0.00  0.00    +0.000 OA
BRANCH   8  11
ATOM     11  C   UNL     1       3.276   4.293  18.738  0.00  0.00    +0.000 A 
ATOM     12  C   UNL     1       2.415   3.732  17.788  0.00  0.00    +0.000 A 
ATOM     13  C   UNL     1       2.405   2.350  17.583  0.00  0.00    +0.000 A 
ATOM     14  C   UNL     1       3.217   1.523  18.361  0.00  0.00    +0.000 A 
ATOM     15  C   UNL     1       4.060   2.075  19.323  0.00  0.00    +0.000 A 
ATOM     16  C   UNL     1       4.102   3.460  19.500  0.00  0.00    +0.000 A 
ENDBRANCH   8  11
ENDBRANCH   1   9
BRANCH   4  17
ATOM     17  S   UNL     1      -0.632  11.431  19.119  0.00  0.00    +0.000 S 
ATOM     18  O   UNL     1      -1.084  11.252  17.756  0.00  0.00    +0.000 OA
ATOM     19  O   UNL     1      -1.556  11.410  20.233  0.00  0.00    +0.000 OA
BRANCH  17  20
ATOM     20  N   UNL     1       0.232  12.836  19.228  0.00  0.00    +0.000 NA
ATOM     21  C   UNL     1      -0.277  14.186  18.977  0.00  0.00    +0.000 C 
ATOM     22  C   UNL     1       0.861  15.108  19.459  0.00  0.00    +0.000 C 
ATOM     23  C   UNL     1       1.956  15.411  18.410  0.00  0.00    +0.000 C 
ATOM     24  C   UNL     1       3.105  14.473  18.835  0.00  0.00    +0.000 C 
ATOM     25  C   UNL     1       3.085  14.630  20.354  0.00  0.00    +0.000 C 
ATOM     26  C   UNL     1       1.627  14.234  20.477  0.00  0.00    +0.000 C 
ATOM     27  C   UNL     1       1.578  12.869  19.768  0.00  0.00    +0.000 C 
ATOM     28  C   UNL     1       2.659  13.009  18.650  0.00  0.00    +0.000 C 
BRANCH  28  29
ATOM     29  O   UNL     1       2.193  12.825  17.321  0.00  0.00    +0.000 OA
ATOM     30  H   UNL     1       1.848  13.671  16.992  0.00  0.00    +0.000 HD
ENDBRANCH  28  29
ENDBRANCH  17  20
ENDBRANCH   4  17
TORSDOF 5
ENDMDL
MODEL 8
REMARK VINA RESULT:      -7.6      0.911      1.057
REMARK  Name = 
REMARK  6 active torsions:
REMARK  status: ('A' for Active; 'I' for Inactive)
REMARK    1  A    between atoms: C_1  and  N_2
REMARK    2  A    between atoms: N_2  and  C_24
REMARK    3  A    between atoms: C_3  and  C_5
REMARK    4  A    between atoms: C_8  and  S_9
REMARK    5  A    between atoms: S_9  and  N_12
REMARK    6  A    between atoms: C_20  and  O_21
REMARK                            x       y       z     vdW  Elec       q    Type
REMARK                         _______ _______ _______ _____ _____    ______ ____
ROOT
ATOM      1  C   UNL     1       1.261   9.593  19.435  0.00  0.00    +0.000 A 
ATOM      2  C   UNL     1       1.406   8.647  20.448  0.00  0.00    +0.000 A 
ATOM      3  C   UNL     1       1.953   7.399  20.166  0.00  0.00    +0.000 A 
ATOM      4  C   UNL     1       2.371   7.080  18.875  0.00  0.00    +0.000 A 
ATOM      5  C   UNL     1       2.353   8.049  17.868  0.00  0.00    +0.000 A 
ATOM      6  C   UNL     1       1.789   9.307  18.154  0.00  0.00    +0.000 A 
ENDROOT
BRANCH   1   9
ATOM      7  C   UNL     1      -0.298  10.381  22.064  0.00  0.00    +0.000 C 
ATOM      8  N   UNL     1      -0.525  10.896  20.711  0.00  0.00    +0.000 N 
ATOM      9  C   UNL     1       0.285  10.727  19.584  0.00  0.00    +0.000 C 
ATOM     10  O   UNL     1       0.198  11.455  18.590  0.00  0.00    +0.000 OA
BRANCH   8  11
ATOM     11  C   UNL     1      -1.712  11.683  20.566  0.00  0.00    +0.000 A 
ATOM     12  C   UNL     1      -2.484  11.585  19.403  0.00  0.00    +0.000 A 
ATOM     13  C   UNL     1      -3.681  12.299  19.296  0.00  0.00    +0.000 A 
ATOM     14  C   UNL     1      -4.081  13.149  20.327  0.00  0.00    +0.000 A 
ATOM     15  C   UNL     1      -3.305  13.267  21.477  0.00  0.00    +0.000 A 
ATOM     16  C   UNL     1      -2.131  12.523  21.604  0.00  0.00    +0.000 A 
ENDBRANCH   8  11
ENDBRANCH   1   9
BRANCH   4  17
ATOM     17  S   UNL     1       2.717   5.356  18.554  0.00  0.00    +0.000 S 
ATOM     18  O   UNL     1       2.892   4.720  19.842  0.00  0.00    +0.000 OA
ATOM     19  O   UNL     1       1.711   4.905  17.616  0.00  0.00    +0.000 OA
BRANCH  17  20
ATOM     20  N   UNL     1       4.161   5.370  17.750  0.00  0.00    +0.000 NA
ATOM     21  C   UNL     1       4.419   4.802  16.424  0.00  0.00    +0.000 C 
ATOM     22  C   UNL     1       5.832   5.310  16.071  0.00  0.00    +0.000 C 
ATOM     23  C   UNL     1       6.997   4.434  16.586  0.00  0.00    +0.000 C 
ATOM     24  C   UNL     1       7.487   5.211  17.826  0.00  0.00    +0.000 C 
ATOM     25  C   UNL     1       7.447   6.652  17.322  0.00  0.00    +0.000 C 
ATOM     26  C   UNL     1       5.983   6.583  16.933  0.00  0.00    +0.000 C 
ATOM     27  C   UNL     1       5.302   6.125  18.235  0.00  0.00    +0.000 C 
ATOM     28  C   UNL     1       6.378   5.207  18.897  0.00  0.00    +0.000 C 
BRANCH  28  29
ATOM     29  O   UNL     1       5.972   3.869  19.147  0.00  0.00    +0.000 OA
ATOM     30  H   UNL     1       5.616   3.493  18.325  0.00  0.00    +0.000 HD
ENDBRANCH  28  29
ENDBRANCH  17  20
ENDBRANCH   4  17
TORSDOF 5
ENDMDL
MODEL 9
REMARK VINA RESULT:      -7.5      1.027      1.094
REMARK  Name = 
REMARK  6 active torsions:
REMARK  status: ('A' for Active; 'I' for Inactive)
REMARK    1  A    between atoms: C_1  and  N_2
REMARK    2  A    between atoms: N_2  and  C_24
REMARK    3  A    between atoms: C_3  and  C_5
REMARK    4  A    between atoms: C_8  and  S_9
REMARK    5  A    between atoms: S_9  and  N_12
REMARK    6  A    between atoms: C_20  and  O_21
REMARK                            x       y       z     vdW  Elec       q    Type
REMARK                         _______ _______ _______ _____ _____    ______ ____
ROOT
ATOM      1  C   UNL     1       1.254   8.839  20.314  0.00  0.00    +0.000 A 
ATOM      2  C   UNL     1       1.612   7.735  21.087  0.00  0.00    +0.000 A 
ATOM      3  C   UNL     1       2.143   6.602  20.480  0.00  0.00    +0.000 A 
ATOM      4  C   UNL     1       2.333   6.554  19.100  0.00  0.00    +0.000 A 
ATOM      5  C   UNL     1       2.100   7.687  18.317  0.00  0.00    +0.000 A 
ATOM      6  C   UNL     1       1.553   8.829  18.931  0.00  0.00    +0.000 A 
ENDROOT
BRANCH   1   9
ATOM      7  C   UNL     1       1.224  11.921  19.635  0.00  0.00    +0.000 C 
ATOM      8  N   UNL     1       0.444  11.234  20.668  0.00  0.00    +0.000 N 
ATOM      9  C   UNL     1       0.280   9.856  20.842  0.00  0.00    +0.000 C 
ATOM     10  O   UNL     1      -0.639   9.377  21.514  0.00  0.00    +0.000 OA
BRANCH   8  11
ATOM     11  C   UNL     1      -0.238  12.105  21.577  0.00  0.00    +0.000 A 
ATOM     12  C   UNL     1       0.223  13.411  21.781  0.00  0.00    +0.000 A 
ATOM     13  C   UNL     1      -0.487  14.282  22.611  0.00  0.00    +0.000 A 
ATOM     14  C   UNL     1      -1.629  13.835  23.278  0.00  0.00    +0.000 A 
ATOM     15  C   UNL     1      -2.079  12.530  23.096  0.00  0.00    +0.000 A 
ATOM     16  C   UNL     1      -1.395  11.671  22.233  0.00  0.00    +0.000 A 
ENDBRANCH   8  11
ENDBRANCH   1   9
BRANCH   4  17
ATOM     17  S   UNL     1       2.677   4.946  18.399  0.00  0.00    +0.000 S 
ATOM     18  O   UNL     1       2.857   4.037  19.511  0.00  0.00    +0.000 OA
ATOM     19  O   UNL     1       1.666   4.716  17.389  0.00  0.00    +0.000 OA
BRANCH  17  20
ATOM     20  N   UNL     1       4.117   5.140  17.613  0.00  0.00    +0.000 NA
ATOM     21  C   UNL     1       4.432   4.681  16.258  0.00  0.00    +0.000 C 
ATOM     22  C   UNL     1       5.795   5.335  15.952  0.00  0.00    +0.000 C 
ATOM     23  C   UNL     1       7.033   4.538  16.425  0.00  0.00    +0.000 C 
ATOM     24  C   UNL     1       7.443   5.278  17.715  0.00  0.00    +0.000 C 
ATOM     25  C   UNL     1       7.275   6.738  17.299  0.00  0.00    +0.000 C 
ATOM     26  C   UNL     1       5.826   6.561  16.892  0.00  0.00    +0.000 C 
ATOM     27  C   UNL     1       5.182   5.964  18.155  0.00  0.00    +0.000 C 
ATOM     28  C   UNL     1       6.334   5.108  18.772  0.00  0.00    +0.000 C 
BRANCH  28  29
ATOM     29  O   UNL     1       6.050   3.726  18.935  0.00  0.00    +0.000 OA
ATOM     30  H   UNL     1       5.853   3.556  19.871  0.00  0.00    +0.000 HD
ENDBRANCH  28  29
ENDBRANCH  17  20
ENDBRANCH   4  17
TORSDOF 5
ENDMDL
