MODEL 1
REMARK VINA RESULT:      -8.5      0.000      0.000
REMARK  Name = 
REMARK  3 active torsions:
REMARK  status: ('A' for Active; 'I' for Inactive)
REMARK    1  A    between atoms: C_1  and  C_2
REMARK    2  A    between atoms: N_10  and  C_11
REMARK    3  A    between atoms: N_18  and  C_19
REMARK                            x       y       z     vdW  Elec       q    Type
REMARK                         _______ _______ _______ _____ _____    ______ ____
ROOT
ATOM      1  C   UNL     1       6.041   3.983  14.220  0.00  0.00    +0.000 C 
ATOM      2  C   UNL     1       5.520   4.737  15.410  0.00  0.00    +0.000 A 
ATOM      3  C   UNL     1       5.369   6.133  15.354  0.00  0.00    +0.000 A 
ATOM      4  C   UNL     1       4.687   6.822  16.360  0.00  0.00    +0.000 A 
ATOM      5  C   UNL     1       4.088   6.100  17.385  0.00  0.00    +0.000 A 
ATOM      6  C   UNL     1       4.277   4.718  17.469  0.00  0.00    +0.000 A 
ATOM      7  C   UNL     1       5.019   4.030  16.513  0.00  0.00    +0.000 A 
ATOM      8  C   UNL     1       3.307   4.094  18.421  0.00  0.00    +0.000 C 
ATOM      9  C   UNL     1       3.744   3.557  19.796  0.00  0.00    +0.000 C 
ATOM     10  N   UNL     1       2.555   2.892  20.358  0.00  0.00    +0.000 NA
ATOM     11  C   UNL     1       2.737   2.189  21.613  0.00  0.00    +0.000 C 
ATOM     12  C   UNL     1       1.322   3.667  20.266  0.00  0.00    +0.000 C 
ATOM     13  C   UNL     1       1.553   5.140  19.932  0.00  0.00    +0.000 C 
ATOM     14  C   UNL     1       2.292   5.261  18.597  0.00  0.00    +0.000 C 
ATOM     15  N   UNL     1       3.049   6.515  18.276  0.00  0.00    +0.000 N 
ATOM     16  C   UNL     1       2.673   7.853  18.371  0.00  0.00    +0.000 C 
ATOM     17  O   UNL     1       3.350   8.790  17.942  0.00  0.00    +0.000 OA
ATOM     18  N   UNL     1       1.475   8.081  19.005  0.00  0.00    +0.000 N 
ATOM     19  H   UNL     1       1.157   7.367  19.625  0.00  0.00    +0.000 HD
ENDROOT
BRANCH  18  20
ATOM     20  C   UNL     1       0.820   9.314  19.213  0.00  0.00    +0.000 A 
ATOM     21  C   UNL     1       0.149  10.042  18.230  0.00  0.00    +0.000 A 
ATOM     22  C   UNL     1      -0.417  11.282  18.546  0.00  0.00    +0.000 A 
ATOM     23  C   UNL     1      -0.324  11.782  19.841  0.00  0.00    +0.000 A 
ATOM     24  F   UNL     1      -0.845  12.983  20.126  0.00  0.00    +0.000 F 
ATOM     25  C   UNL     1       0.301  11.057  20.843  0.00  0.00    +0.000 A 
ATOM     26  C   UNL     1       0.859   9.827  20.521  0.00  0.00    +0.000 A 
ATOM     27  F   UNL     1       1.474   9.120  21.483  0.00  0.00    +0.000 F 
ENDBRANCH  18  20
TORSDOF 1
ENDMDL
MODEL 2
REMARK VINA RESULT:      -8.3      0.917      1.310
REMARK  Name = 
REMARK  3 active torsions:
REMARK  status: ('A' for Active; 'I' for Inactive)
REMARK    1  A    between atoms: C_1  and  C_2
REMARK    2  A    between atoms: N_10  and  C_11
REMARK    3  A    between atoms: N_18  and  C_19
REMARK                            x       y       z     vdW  Elec       q    Type
REMARK                         _______ _______ _______ _____ _____    ______ ____
ROOT
ATOM      1  C   UNL     1       5.818   4.076  14.207  0.00  0.00    +0.000 C 
ATOM      2  C   UNL     1       5.342   4.822  15.420  0.00  0.00    +0.000 A 
ATOM      3  C   UNL     1       5.224   6.222  15.390  0.00  0.00    +0.000 A 
ATOM      4  C   UNL     1       4.581   6.910  16.423  0.00  0.00    +0.000 A 
ATOM      5  C   UNL     1       3.987   6.186  17.448  0.00  0.00    +0.000 A 
ATOM      6  C   UNL     1       4.143   4.798  17.505  0.00  0.00    +0.000 A 
ATOM      7  C   UNL     1       4.847   4.109  16.521  0.00  0.00    +0.000 A 
ATOM      8  C   UNL     1       3.179   4.181  18.467  0.00  0.00    +0.000 C 
ATOM      9  C   UNL     1       3.632   3.610  19.823  0.00  0.00    +0.000 C 
ATOM     10  N   UNL     1       2.439   2.966  20.400  0.00  0.00    +0.000 NA
ATOM     11  C   UNL     1       2.631   2.236  21.639  0.00  0.00    +0.000 C 
ATOM     12  C   UNL     1       1.224   3.771  20.349  0.00  0.00    +0.000 C 
ATOM     13  C   UNL     1       1.485   5.244  20.034  0.00  0.00    +0.000 C 
ATOM     14  C   UNL     1       2.197   5.370  18.685  0.00  0.00    +0.000 C 
ATOM     15  N   UNL     1       2.978   6.611  18.368  0.00  0.00    +0.000 N 
ATOM     16  C   UNL     1       2.637   7.955  18.494  0.00  0.00    +0.000 C 
ATOM     17  O   UNL     1       3.328   8.883  18.066  0.00  0.00    +0.000 OA
ATOM     18  N   UNL     1       1.459   8.202  19.158  0.00  0.00    +0.000 N 
ATOM     19  H   UNL     1       1.136   7.484  19.772  0.00  0.00    +0.000 HD
ENDROOT
BRANCH  18  20
ATOM     20  C   UNL     1       0.839   9.446  19.401  0.00  0.00    +0.000 A 
ATOM     21  C   UNL     1       0.959  10.187  20.577  0.00  0.00    +0.000 A 
ATOM     22  C   UNL     1       0.250  11.384  20.722  0.00  0.00    +0.000 A 
ATOM     23  C   UNL     1      -0.563  11.844  19.689  0.00  0.00    +0.000 A 
ATOM     24  F   UNL     1      -1.259  12.976  19.850  0.00  0.00    +0.000 F 
ATOM     25  C   UNL     1      -0.664  11.145  18.497  0.00  0.00    +0.000 A 
ATOM     26  C   UNL     1       0.044   9.959  18.362  0.00  0.00    +0.000 A 
ATOM     27  F   UNL     1      -0.054   9.271  17.212  0.00  0.00    +0.000 F 
ENDBRANCH  18  20
TORSDOF 1
ENDMDL
MODEL 3
REMARK VINA RESULT:      -7.4      4.594      6.246
REMARK  Name = 
REMARK  3 active torsions:
REMARK  status: ('A' for Active; 'I' for Inactive)
REMARK    1  A    between atoms: C_1  and  C_2
REMARK    2  A    between atoms: N_10  and  C_11
REMARK    3  A    between atoms: N_18  and  C_19
REMARK                            x       y       z     vdW  Elec       q    Type
REMARK                         _______ _______ _______ _____ _____    ______ ____
ROOT
ATOM      1  C   UNL     1       7.373   3.693  11.986  0.00  0.00    +0.000 C 
ATOM      2  C   UNL     1       6.602   4.192  13.175  0.00  0.00    +0.000 A 
ATOM      3  C   UNL     1       5.365   3.615  13.508  0.00  0.00    +0.000 A 
ATOM      4  C   UNL     1       4.740   3.910  14.724  0.00  0.00    +0.000 A 
ATOM      5  C   UNL     1       5.397   4.723  15.639  0.00  0.00    +0.000 A 
ATOM      6  C   UNL     1       6.604   5.335  15.290  0.00  0.00    +0.000 A 
ATOM      7  C   UNL     1       7.198   5.109  14.051  0.00  0.00    +0.000 A 
ATOM      8  C   UNL     1       7.301   5.887  16.493  0.00  0.00    +0.000 C 
ATOM      9  C   UNL     1       7.391   7.400  16.760  0.00  0.00    +0.000 C 
ATOM     10  N   UNL     1       8.271   7.544  17.933  0.00  0.00    +0.000 NA
ATOM     11  C   UNL     1       8.619   8.897  18.322  0.00  0.00    +0.000 C 
ATOM     12  C   UNL     1       7.958   6.651  19.045  0.00  0.00    +0.000 C 
ATOM     13  C   UNL     1       6.583   5.994  18.927  0.00  0.00    +0.000 C 
ATOM     14  C   UNL     1       6.502   5.186  17.630  0.00  0.00    +0.000 C 
ATOM     15  N   UNL     1       5.163   4.851  17.044  0.00  0.00    +0.000 N 
ATOM     16  C   UNL     1       4.020   4.317  17.635  0.00  0.00    +0.000 C 
ATOM     17  O   UNL     1       3.022   3.961  17.005  0.00  0.00    +0.000 OA
ATOM     18  N   UNL     1       4.060   4.221  19.006  0.00  0.00    +0.000 N 
ATOM     19  H   UNL     1       4.702   4.824  19.476  0.00  0.00    +0.000 HD
ENDROOT
BRANCH  18  20
ATOM     20  C   UNL     1       3.081   3.688  19.871  0.00  0.00    +0.000 A 
ATOM     21  C   UNL     1       1.761   4.132  19.961  0.00  0.00    +0.000 A 
ATOM     22  C   UNL     1       0.896   3.560  20.899  0.00  0.00    +0.000 A 
ATOM     23  C   UNL     1       1.345   2.539  21.732  0.00  0.00    +0.000 A 
ATOM     24  F   UNL     1       0.516   2.018  22.646  0.00  0.00    +0.000 F 
ATOM     25  C   UNL     1       2.639   2.055  21.633  0.00  0.00    +0.000 A 
ATOM     26  C   UNL     1       3.491   2.628  20.698  0.00  0.00    +0.000 A 
ATOM     27  F   UNL     1       4.750   2.171  20.600  0.00  0.00    +0.000 F 
ENDBRANCH  18  20
TORSDOF 1
ENDMDL
MODEL 4
REMARK VINA RESULT:      -7.3      2.995      8.437
REMARK  Name = 
REMARK  3 active torsions:
REMARK  status: ('A' for Active; 'I' for Inactive)
REMARK    1  A    between atoms: C_1  and  C_2
REMARK    2  A    between atoms: N_10  and  C_11
REMARK    3  A    between atoms: N_18  and  C_19
REMARK                            x       y       z     vdW  Elec       q    Type
REMARK                         _______ _______ _______ _____ _____    ______ ____
ROOT
ATOM      1  C   UNL     1      -2.680  12.106  23.487  0.00  0.00    +0.000 C 
ATOM      2  C   UNL     1      -1.451  11.484  22.890  0.00  0.00    +0.000 A 
ATOM      3  C   UNL     1      -1.195  10.113  23.064  0.00  0.00    +0.000 A 
ATOM      4  C   UNL     1      -0.184   9.474  22.341  0.00  0.00    +0.000 A 
ATOM      5  C   UNL     1       0.520  10.196  21.385  0.00  0.00    +0.000 A 
ATOM      6  C   UNL     1       0.300  11.569  21.244  0.00  0.00    +0.000 A 
ATOM      7  C   UNL     1      -0.652  12.231  22.013  0.00  0.00    +0.000 A 
ATOM      8  C   UNL     1       0.895  12.087  19.973  0.00  0.00    +0.000 C 
ATOM      9  C   UNL     1       2.154  12.972  19.963  0.00  0.00    +0.000 C 
ATOM     10  N   UNL     1       2.329  13.396  18.563  0.00  0.00    +0.000 NA
ATOM     11  C   UNL     1       3.390  14.349  18.301  0.00  0.00    +0.000 C 
ATOM     12  C   UNL     1       2.218  12.323  17.580  0.00  0.00    +0.000 C 
ATOM     13  C   UNL     1       2.292  10.925  18.197  0.00  0.00    +0.000 C 
ATOM     14  C   UNL     1       1.171  10.750  19.224  0.00  0.00    +0.000 C 
ATOM     15  N   UNL     1       1.294   9.701  20.289  0.00  0.00    +0.000 N 
ATOM     16  C   UNL     1       1.642   8.355  20.202  0.00  0.00    +0.000 C 
ATOM     17  O   UNL     1       1.573   7.564  21.146  0.00  0.00    +0.000 OA
ATOM     18  N   UNL     1       2.099   7.946  18.972  0.00  0.00    +0.000 N 
ATOM     19  H   UNL     1       2.465   8.657  18.375  0.00  0.00    +0.000 HD
ENDROOT
BRANCH  18  20
ATOM     20  C   UNL     1       2.482   6.648  18.572  0.00  0.00    +0.000 A 
ATOM     21  C   UNL     1       1.791   5.476  18.880  0.00  0.00    +0.000 A 
ATOM     22  C   UNL     1       2.301   4.239  18.472  0.00  0.00    +0.000 A 
ATOM     23  C   UNL     1       3.487   4.177  17.747  0.00  0.00    +0.000 A 
ATOM     24  F   UNL     1       3.981   2.985  17.387  0.00  0.00    +0.000 F 
ATOM     25  C   UNL     1       4.168   5.331  17.395  0.00  0.00    +0.000 A 
ATOM     26  C   UNL     1       3.655   6.554  17.803  0.00  0.00    +0.000 A 
ATOM     27  F   UNL     1       4.313   7.678  17.473  0.00  0.00    +0.000 F 
ENDBRANCH  18  20
TORSDOF 1
ENDMDL
MODEL 5
REMARK VINA RESULT:      -7.1      3.112      8.845
REMARK  Name = 
REMARK  3 active torsions:
REMARK  status: ('A' for Active; 'I' for Inactive)
REMARK    1  A    between atoms: C_1  and  C_2
REMARK    2  A    between atoms: N_10  and  C_11
REMARK    3  A    between atoms: N_18  and  C_19
REMARK                            x       y       z     vdW  Elec       q    Type
REMARK                         _______ _______ _______ _____ _____    ______ ____
ROOT
ATOM      1  C   UNL     1      -3.345  13.130  23.539  0.00  0.00    +0.000 C 
ATOM      2  C   UNL     1      -2.077  12.472  23.074  0.00  0.00    +0.000 A 
ATOM      3  C   UNL     1      -1.827  11.123  23.380  0.00  0.00    +0.000 A 
ATOM      4  C   UNL     1      -0.769  10.436  22.778  0.00  0.00    +0.000 A 
ATOM      5  C   UNL     1      -0.010  11.081  21.809  0.00  0.00    +0.000 A 
ATOM      6  C   UNL     1      -0.228  12.434  21.538  0.00  0.00    +0.000 A 
ATOM      7  C   UNL     1      -1.230  13.150  22.188  0.00  0.00    +0.000 A 
ATOM      8  C   UNL     1       0.442  12.849  20.267  0.00  0.00    +0.000 C 
ATOM      9  C   UNL     1       1.696  13.743  20.260  0.00  0.00    +0.000 C 
ATOM     10  N   UNL     1       1.956  14.048  18.841  0.00  0.00    +0.000 NA
ATOM     11  C   UNL     1       3.026  14.986  18.565  0.00  0.00    +0.000 C 
ATOM     12  C   UNL     1       1.911  12.894  17.949  0.00  0.00    +0.000 C 
ATOM     13  C   UNL     1       1.953  11.555  18.686  0.00  0.00    +0.000 C 
ATOM     14  C   UNL     1       0.771  11.456  19.654  0.00  0.00    +0.000 C 
ATOM     15  N   UNL     1       0.833  10.503  20.810  0.00  0.00    +0.000 N 
ATOM     16  C   UNL     1       1.193   9.158  20.860  0.00  0.00    +0.000 C 
ATOM     17  O   UNL     1       1.068   8.450  21.861  0.00  0.00    +0.000 OA
ATOM     18  N   UNL     1       1.727   8.651  19.699  0.00  0.00    +0.000 N 
ATOM     19  H   UNL     1       2.126   9.312  19.067  0.00  0.00    +0.000 HD
ENDROOT
BRANCH  18  20
ATOM     20  C   UNL     1       2.141   7.328  19.436  0.00  0.00    +0.000 A 
ATOM     21  C   UNL     1       1.897   6.230  20.262  0.00  0.00    +0.000 A 
ATOM     22  C   UNL     1       2.406   4.973  19.920  0.00  0.00    +0.000 A 
ATOM     23  C   UNL     1       3.143   4.813  18.750  0.00  0.00    +0.000 A 
ATOM     24  F   UNL     1       3.651   3.611  18.447  0.00  0.00    +0.000 F 
ATOM     25  C   UNL     1       3.363   5.880  17.894  0.00  0.00    +0.000 A 
ATOM     26  C   UNL     1       2.852   7.124  18.241  0.00  0.00    +0.000 A 
ATOM     27  F   UNL     1       3.067   8.166  17.421  0.00  0.00    +0.000 F 
ENDBRANCH  18  20
TORSDOF 1
ENDMDL
MODEL 6
REMARK VINA RESULT:      -7.0      1.801      4.278
REMARK  Name = 
REMARK  3 active torsions:
REMARK  status: ('A' for Active; 'I' for Inactive)
REMARK    1  A    between atoms: C_1  and  C_2
REMARK    2  A    between atoms: N_10  and  C_11
REMARK    3  A    between atoms: N_18  and  C_19
REMARK                            x       y       z     vdW  Elec       q    Type
REMARK                         _______ _______ _______ _____ _____    ______ ____
ROOT
ATOM      1  C   UNL     1       5.163   0.706  21.568  0.00  0.00    +0.000 C 
ATOM      2  C   UNL     1       4.377   1.780  20.871  0.00  0.00    +0.000 A 
ATOM      3  C   UNL     1       3.290   2.394  21.516  0.00  0.00    +0.000 A 
ATOM      4  C   UNL     1       2.689   3.536  20.979  0.00  0.00    +0.000 A 
ATOM      5  C   UNL     1       3.229   4.106  19.833  0.00  0.00    +0.000 A 
ATOM      6  C   UNL     1       4.279   3.471  19.164  0.00  0.00    +0.000 A 
ATOM      7  C   UNL     1       4.837   2.291  19.649  0.00  0.00    +0.000 A 
ATOM      8  C   UNL     1       4.923   4.385  18.172  0.00  0.00    +0.000 C 
ATOM      9  C   UNL     1       4.740   4.201  16.654  0.00  0.00    +0.000 C 
ATOM     10  N   UNL     1       5.640   5.183  16.025  0.00  0.00    +0.000 NA
ATOM     11  C   UNL     1       5.748   5.132  14.579  0.00  0.00    +0.000 C 
ATOM     12  C   UNL     1       5.562   6.529  16.583  0.00  0.00    +0.000 C 
ATOM     13  C   UNL     1       4.331   6.751  17.462  0.00  0.00    +0.000 C 
ATOM     14  C   UNL     1       4.333   5.753  18.622  0.00  0.00    +0.000 C 
ATOM     15  N   UNL     1       3.051   5.434  19.332  0.00  0.00    +0.000 N 
ATOM     16  C   UNL     1       2.063   6.271  19.845  0.00  0.00    +0.000 C 
ATOM     17  O   UNL     1       1.117   5.879  20.532  0.00  0.00    +0.000 OA
ATOM     18  N   UNL     1       2.195   7.600  19.519  0.00  0.00    +0.000 N 
ATOM     19  H   UNL     1       2.736   7.808  18.706  0.00  0.00    +0.000 HD
ENDROOT
BRANCH  18  20
ATOM     20  C   UNL     1       1.382   8.681  19.922  0.00  0.00    +0.000 A 
ATOM     21  C   UNL     1       0.964   8.927  21.231  0.00  0.00    +0.000 A 
ATOM     22  C   UNL     1       0.112  10.003  21.499  0.00  0.00    +0.000 A 
ATOM     23  C   UNL     1      -0.308  10.837  20.466  0.00  0.00    +0.000 A 
ATOM     24  F   UNL     1      -1.146  11.847  20.730  0.00  0.00    +0.000 F 
ATOM     25  C   UNL     1       0.128  10.636  19.166  0.00  0.00    +0.000 A 
ATOM     26  C   UNL     1       0.974   9.566  18.909  0.00  0.00    +0.000 A 
ATOM     27  F   UNL     1       1.396   9.358  17.650  0.00  0.00    +0.000 F 
ENDBRANCH  18  20
TORSDOF 1
ENDMDL
MODEL 7
REMARK VINA RESULT:      -6.9      3.038      7.967
REMARK  Name = 
REMARK  3 active torsions:
REMARK  status: ('A' for Active; 'I' for Inactive)
REMARK    1  A    between atoms: C_1  and  C_2
REMARK    2  A    between atoms: N_10  and  C_11
REMARK    3  A    between atoms: N_18  and  C_19
REMARK                            x       y       z     vdW  Elec       q    Type
REMARK                         _______ _______ _______ _____ _____    ______ ____
ROOT
ATOM      1  C   UNL     1       2.736  16.629  18.935  0.00  0.00    +0.000 C 
ATOM      2  C   UNL     1       2.150  15.249  18.845  0.00  0.00    +0.000 A 
ATOM      3  C   UNL     1       2.710  14.297  17.976  0.00  0.00    +0.000 A 
ATOM      4  C   UNL     1       2.322  12.955  18.035  0.00  0.00    +0.000 A 
ATOM      5  C   UNL     1       1.429  12.555  19.021  0.00  0.00    +0.000 A 
ATOM      6  C   UNL     1       0.836  13.507  19.855  0.00  0.00    +0.000 A 
ATOM      7  C   UNL     1       1.157  14.858  19.754  0.00  0.00    +0.000 A 
ATOM      8  C   UNL     1       0.179  12.863  21.034  0.00  0.00    +0.000 C 
ATOM      9  C   UNL     1      -1.352  12.777  21.169  0.00  0.00    +0.000 C 
ATOM     10  N   UNL     1      -1.601  12.224  22.512  0.00  0.00    +0.000 NA
ATOM     11  C   UNL     1      -2.985  12.156  22.939  0.00  0.00    +0.000 C 
ATOM     12  C   UNL     1      -0.801  11.052  22.849  0.00  0.00    +0.000 C 
ATOM     13  C   UNL     1      -0.121  10.413  21.637  0.00  0.00    +0.000 C 
ATOM     14  C   UNL     1       0.792  11.434  20.954  0.00  0.00    +0.000 C 
ATOM     15  N   UNL     1       1.189  11.237  19.521  0.00  0.00    +0.000 N 
ATOM     16  C   UNL     1       1.684  10.114  18.862  0.00  0.00    +0.000 C 
ATOM     17  O   UNL     1       2.102  10.127  17.702  0.00  0.00    +0.000 OA
ATOM     18  N   UNL     1       1.666   8.950  19.592  0.00  0.00    +0.000 N 
ATOM     19  H   UNL     1       1.019   8.911  20.351  0.00  0.00    +0.000 HD
ENDROOT
BRANCH  18  20
ATOM     20  C   UNL     1       2.136   7.675  19.212  0.00  0.00    +0.000 A 
ATOM     21  C   UNL     1       2.862   7.400  18.052  0.00  0.00    +0.000 A 
ATOM     22  C   UNL     1       3.226   6.083  17.754  0.00  0.00    +0.000 A 
ATOM     23  C   UNL     1       2.880   5.049  18.620  0.00  0.00    +0.000 A 
ATOM     24  F   UNL     1       3.209   3.789  18.312  0.00  0.00    +0.000 F 
ATOM     25  C   UNL     1       2.196   5.305  19.798  0.00  0.00    +0.000 A 
ATOM     26  C   UNL     1       1.839   6.616  20.086  0.00  0.00    +0.000 A 
ATOM     27  F   UNL     1       1.168   6.872  21.221  0.00  0.00    +0.000 F 
ENDBRANCH  18  20
TORSDOF 1
ENDMDL
MODEL 8
REMARK VINA RESULT:      -6.9      4.179      6.203
REMARK  Name = 
REMARK  3 active torsions:
REMARK  status: ('A' for Active; 'I' for Inactive)
REMARK    1  A    between atoms: C_1  and  C_2
REMARK    2  A    between atoms: N_10  and  C_11
REMARK    3  A    between atoms: N_18  and  C_19
REMARK                            x       y       z     vdW  Elec       q    Type
REMARK                         _______ _______ _______ _____ _____    ______ ____
ROOT
ATOM      1  C   UNL     1       7.297   3.746  11.986  0.00  0.00    +0.000 C 
ATOM      2  C   UNL     1       6.559   4.214  13.207  0.00  0.00    +0.000 A 
ATOM      3  C   UNL     1       5.371   3.576  13.604  0.00  0.00    +0.000 A 
ATOM      4  C   UNL     1       4.791   3.849  14.847  0.00  0.00    +0.000 A 
ATOM      5  C   UNL     1       5.446   4.706  15.723  0.00  0.00    +0.000 A 
ATOM      6  C   UNL     1       6.600   5.377  15.312  0.00  0.00    +0.000 A 
ATOM      7  C   UNL     1       7.146   5.170  14.048  0.00  0.00    +0.000 A 
ATOM      8  C   UNL     1       7.324   5.977  16.475  0.00  0.00    +0.000 C 
ATOM      9  C   UNL     1       7.344   7.496  16.727  0.00  0.00    +0.000 C 
ATOM     10  N   UNL     1       8.271   7.697  17.855  0.00  0.00    +0.000 NA
ATOM     11  C   UNL     1       8.564   9.071  18.217  0.00  0.00    +0.000 C 
ATOM     12  C   UNL     1       8.060   6.801  18.987  0.00  0.00    +0.000 C 
ATOM     13  C   UNL     1       6.718   6.070  18.941  0.00  0.00    +0.000 C 
ATOM     14  C   UNL     1       6.618   5.246  17.655  0.00  0.00    +0.000 C 
ATOM     15  N   UNL     1       5.272   4.834  17.136  0.00  0.00    +0.000 N 
ATOM     16  C   UNL     1       4.190   4.246  17.786  0.00  0.00    +0.000 C 
ATOM     17  O   UNL     1       3.183   3.831  17.208  0.00  0.00    +0.000 OA
ATOM     18  N   UNL     1       4.300   4.166  19.154  0.00  0.00    +0.000 N 
ATOM     19  H   UNL     1       4.930   4.807  19.588  0.00  0.00    +0.000 HD
ENDROOT
BRANCH  18  20
ATOM     20  C   UNL     1       3.394   3.590  20.070  0.00  0.00    +0.000 A 
ATOM     21  C   UNL     1       3.597   2.391  20.754  0.00  0.00    +0.000 A 
ATOM     22  C   UNL     1       2.598   1.892  21.597  0.00  0.00    +0.000 A 
ATOM     23  C   UNL     1       1.410   2.598  21.765  0.00  0.00    +0.000 A 
ATOM     24  F   UNL     1       0.449   2.097  22.552  0.00  0.00    +0.000 F 
ATOM     25  C   UNL     1       1.204   3.810  21.128  0.00  0.00    +0.000 A 
ATOM     26  C   UNL     1       2.201   4.298  20.294  0.00  0.00    +0.000 A 
ATOM     27  F   UNL     1       2.007   5.470  19.666  0.00  0.00    +0.000 F 
ENDBRANCH  18  20
TORSDOF 1
ENDMDL
MODEL 9
REMARK VINA RESULT:      -6.7      4.365      9.608
REMARK  Name = 
REMARK  3 active torsions:
REMARK  status: ('A' for Active; 'I' for Inactive)
REMARK    1  A    between atoms: C_1  and  C_2
REMARK    2  A    between atoms: N_10  and  C_11
REMARK    3  A    between atoms: N_18  and  C_19
REMARK                            x       y       z     vdW  Elec       q    Type
REMARK                         _______ _______ _______ _____ _____    ______ ____
ROOT
ATOM      1  C   UNL     1      -7.232  14.100  17.050  0.00  0.00    +0.000 C 
ATOM      2  C   UNL     1      -6.267  13.196  17.762  0.00  0.00    +0.000 A 
ATOM      3  C   UNL     1      -5.600  12.178  17.059  0.00  0.00    +0.000 A 
ATOM      4  C   UNL     1      -4.545  11.474  17.646  0.00  0.00    +0.000 A 
ATOM      5  C   UNL     1      -4.108  11.845  18.912  0.00  0.00    +0.000 A 
ATOM      6  C   UNL     1      -4.800  12.824  19.631  0.00  0.00    +0.000 A 
ATOM      7  C   UNL     1      -5.900  13.479  19.085  0.00  0.00    +0.000 A 
ATOM      8  C   UNL     1      -4.002  13.306  20.800  0.00  0.00    +0.000 C 
ATOM      9  C   UNL     1      -4.374  12.939  22.248  0.00  0.00    +0.000 C 
ATOM     10  N   UNL     1      -3.458  13.718  23.101  0.00  0.00    +0.000 NA
ATOM     11  C   UNL     1      -3.683  13.644  24.532  0.00  0.00    +0.000 C 
ATOM     12  C   UNL     1      -2.055  13.664  22.701  0.00  0.00    +0.000 C 
ATOM     13  C   UNL     1      -1.752  12.546  21.703  0.00  0.00    +0.000 C 
ATOM     14  C   UNL     1      -2.600  12.730  20.442  0.00  0.00    +0.000 C 
ATOM     15  N   UNL     1      -2.855  11.559  19.540  0.00  0.00    +0.000 N 
ATOM     16  C   UNL     1      -1.981  10.615  19.006  0.00  0.00    +0.000 C 
ATOM     17  O   UNL     1      -2.304   9.778  18.161  0.00  0.00    +0.000 OA
ATOM     18  N   UNL     1      -0.699  10.658  19.502  0.00  0.00    +0.000 N 
ATOM     19  H   UNL     1      -0.582  11.085  20.397  0.00  0.00    +0.000 HD
ENDROOT
BRANCH  18  20
ATOM     20  C   UNL     1       0.407   9.866  19.128  0.00  0.00    +0.000 A 
ATOM     21  C   UNL     1       1.116   9.990  17.933  0.00  0.00    +0.000 A 
ATOM     22  C   UNL     1       2.164   9.107  17.650  0.00  0.00    +0.000 A 
ATOM     23  C   UNL     1       2.509   8.116  18.564  0.00  0.00    +0.000 A 
ATOM     24  F   UNL     1       3.494   7.258  18.270  0.00  0.00    +0.000 F 
ATOM     25  C   UNL     1       1.845   8.001  19.775  0.00  0.00    +0.000 A 
ATOM     26  C   UNL     1       0.807   8.882  20.048  0.00  0.00    +0.000 A 
ATOM     27  F   UNL     1       0.153   8.773  21.216  0.00  0.00    +0.000 F 
ENDBRANCH  18  20
TORSDOF 1
ENDMDL
