MODEL 1
REMARK VINA RESULT:      -8.5      0.000      0.000
REMARK  Name = 
REMARK  3 active torsions:
REMARK  status: ('A' for Active; 'I' for Inactive)
REMARK    1  A    between atoms: C_2  and  C_14
REMARK    2  A    between atoms: N_3  and  C_4
REMARK    3  A    between atoms: C_17  and  C_18
REMARK                            x       y       z     vdW  Elec       q    Type
REMARK                         _______ _______ _______ _____ _____    ______ ____
ROOT
ATOM      1  O   UNL     1       1.155   5.619  20.833  0.00  0.00    +0.000 OA
ATOM      2  C   UNL     1       2.123   6.022  20.187  0.00  0.00    +0.000 C 
ATOM      3  N   UNL     1       2.381   7.371  19.983  0.00  0.00    +0.000 N 
ATOM      4  H   UNL     1       2.895   7.589  19.130  0.00  0.00    +0.000 HD
ENDROOT
BRANCH   3   5
ATOM      5  C   UNL     1       1.523   8.371  20.500  0.00  0.00    +0.000 A 
ATOM      6  C   UNL     1       1.134   8.405  21.846  0.00  0.00    +0.000 A 
ATOM      7  C   UNL     1       0.233   9.380  22.321  0.00  0.00    +0.000 A 
ATOM      8  C   UNL     1      -0.319  10.332  21.459  0.00  0.00    +0.000 A 
ATOM      9  C   UNL     1       0.064  10.297  20.129  0.00  0.00    +0.000 A 
ATOM     10  C   UNL     1       0.992   9.350  19.680  0.00  0.00    +0.000 A 
ATOM     11  C   UNL     1       1.134   9.527  18.232  0.00  0.00    +0.000 C 
ATOM     12  O   UNL     1       1.838   8.856  17.503  0.00  0.00    +0.000 OA
ATOM     13  N   UNL     1       0.311  10.571  17.871  0.00  0.00    +0.000 N 
ATOM     14  C   UNL     1      -0.423  11.120  18.985  0.00  0.00    +0.000 C 
ATOM     15  H   UNL     1       0.189  10.833  16.902  0.00  0.00    +0.000 HD
ENDBRANCH   3   5
BRANCH   2  16
ATOM     16  C   UNL     1       3.010   5.087  19.521  0.00  0.00    +0.000 A 
ATOM     17  C   UNL     1       3.502   3.892  20.008  0.00  0.00    +0.000 A 
ATOM     18  C   UNL     1       4.427   3.413  19.062  0.00  0.00    +0.000 A 
ATOM     19  C   UNL     1       4.470   4.343  18.040  0.00  0.00    +0.000 A 
ATOM     20  O   UNL     1       3.560   5.343  18.286  0.00  0.00    +0.000 OA
BRANCH  19  21
ATOM     21  C   UNL     1       5.321   4.458  16.860  0.00  0.00    +0.000 A 
ATOM     22  C   UNL     1       4.846   4.164  15.576  0.00  0.00    +0.000 A 
ATOM     23  C   UNL     1       5.690   4.278  14.463  0.00  0.00    +0.000 A 
ATOM     24  C   UNL     1       7.012   4.698  14.617  0.00  0.00    +0.000 A 
ATOM     25  C   UNL     1       7.498   4.989  15.888  0.00  0.00    +0.000 A 
ATOM     26  C   UNL     1       6.659   4.860  16.992  0.00  0.00    +0.000 A 
ATOM     27  F   UNL     1       7.170   5.153  18.200  0.00  0.00    +0.000 F 
ENDBRANCH  19  21
ENDBRANCH   2  16
TORSDOF 3
ENDMDL
MODEL 2
REMARK VINA RESULT:      -8.2      2.772      4.306
REMARK  Name = 
REMARK  3 active torsions:
REMARK  status: ('A' for Active; 'I' for Inactive)
REMARK    1  A    between atoms: C_2  and  C_14
REMARK    2  A    between atoms: N_3  and  C_4
REMARK    3  A    between atoms: C_17  and  C_18
REMARK                            x       y       z     vdW  Elec       q    Type
REMARK                         _______ _______ _______ _____ _____    ______ ____
ROOT
ATOM      1  O   UNL     1      -0.356   8.830  21.059  0.00  0.00    +0.000 OA
ATOM      2  C   UNL     1       0.393   9.497  20.343  0.00  0.00    +0.000 C 
ATOM      3  N   UNL     1       0.314  10.881  20.258  0.00  0.00    +0.000 N 
ATOM      4  H   UNL     1       0.635  11.279  19.377  0.00  0.00    +0.000 HD
ENDROOT
BRANCH   3   5
ATOM      5  C   UNL     1      -0.656  11.609  20.987  0.00  0.00    +0.000 A 
ATOM      6  C   UNL     1      -0.505  11.908  22.348  0.00  0.00    +0.000 A 
ATOM      7  C   UNL     1      -1.513  12.586  23.064  0.00  0.00    +0.000 A 
ATOM      8  C   UNL     1      -2.707  12.964  22.442  0.00  0.00    +0.000 A 
ATOM      9  C   UNL     1      -2.857  12.667  21.099  0.00  0.00    +0.000 A 
ATOM     10  C   UNL     1      -1.830  12.031  20.391  0.00  0.00    +0.000 A 
ATOM     11  C   UNL     1      -2.315  11.798  19.027  0.00  0.00    +0.000 C 
ATOM     12  O   UNL     1      -1.698  11.239  18.142  0.00  0.00    +0.000 OA
ATOM     13  N   UNL     1      -3.591  12.311  18.961  0.00  0.00    +0.000 N 
ATOM     14  C   UNL     1      -4.040  12.869  20.214  0.00  0.00    +0.000 C 
ATOM     15  H   UNL     1      -4.159  12.203  18.131  0.00  0.00    +0.000 HD
ENDBRANCH   3   5
BRANCH   2  16
ATOM     16  C   UNL     1       1.353   8.850  19.470  0.00  0.00    +0.000 A 
ATOM     17  C   UNL     1       1.804   9.282  18.237  0.00  0.00    +0.000 A 
ATOM     18  C   UNL     1       2.615   8.258  17.716  0.00  0.00    +0.000 A 
ATOM     19  C   UNL     1       2.617   7.237  18.647  0.00  0.00    +0.000 A 
ATOM     20  O   UNL     1       1.893   7.617  19.752  0.00  0.00    +0.000 OA
BRANCH  19  21
ATOM     21  C   UNL     1       3.168   5.885  18.613  0.00  0.00    +0.000 A 
ATOM     22  C   UNL     1       4.422   5.586  19.160  0.00  0.00    +0.000 A 
ATOM     23  C   UNL     1       4.926   4.280  19.105  0.00  0.00    +0.000 A 
ATOM     24  C   UNL     1       4.181   3.256  18.518  0.00  0.00    +0.000 A 
ATOM     25  C   UNL     1       2.936   3.541  17.967  0.00  0.00    +0.000 A 
ATOM     26  C   UNL     1       2.445   4.844  18.011  0.00  0.00    +0.000 A 
ATOM     27  F   UNL     1       1.238   5.073  17.469  0.00  0.00    +0.000 F 
ENDBRANCH  19  21
ENDBRANCH   2  16
TORSDOF 3
ENDMDL
MODEL 3
REMARK VINA RESULT:      -8.0      2.845      3.988
REMARK  Name = 
REMARK  3 active torsions:
REMARK  status: ('A' for Active; 'I' for Inactive)
REMARK    1  A    between atoms: C_2  and  C_14
REMARK    2  A    between atoms: N_3  and  C_4
REMARK    3  A    between atoms: C_17  and  C_18
REMARK                            x       y       z     vdW  Elec       q    Type
REMARK                         _______ _______ _______ _____ _____    ______ ____
ROOT
ATOM      1  O   UNL     1       0.765   8.819  20.765  0.00  0.00    +0.000 OA
ATOM      2  C   UNL     1       1.220   9.062  19.646  0.00  0.00    +0.000 C 
ATOM      3  N   UNL     1       0.871  10.195  18.924  0.00  0.00    +0.000 N 
ATOM      4  H   UNL     1       0.931  10.097  17.911  0.00  0.00    +0.000 HD
ENDROOT
BRANCH   3   5
ATOM      5  C   UNL     1      -0.053  11.138  19.434  0.00  0.00    +0.000 A 
ATOM      6  C   UNL     1       0.254  11.985  20.508  0.00  0.00    +0.000 A 
ATOM      7  C   UNL     1      -0.705  12.876  21.033  0.00  0.00    +0.000 A 
ATOM      8  C   UNL     1      -2.001  12.928  20.510  0.00  0.00    +0.000 A 
ATOM      9  C   UNL     1      -2.305  12.090  19.451  0.00  0.00    +0.000 A 
ATOM     10  C   UNL     1      -1.330  11.241  18.913  0.00  0.00    +0.000 A 
ATOM     11  C   UNL     1      -1.972  10.445  17.863  0.00  0.00    +0.000 C 
ATOM     12  O   UNL     1      -1.432   9.581  17.200  0.00  0.00    +0.000 OA
ATOM     13  N   UNL     1      -3.286  10.851  17.797  0.00  0.00    +0.000 N 
ATOM     14  C   UNL     1      -3.610  11.872  18.764  0.00  0.00    +0.000 C 
ATOM     15  H   UNL     1      -3.949  10.390  17.187  0.00  0.00    +0.000 HD
ENDBRANCH   3   5
BRANCH   2  16
ATOM     16  C   UNL     1       2.091   8.113  18.979  0.00  0.00    +0.000 A 
ATOM     17  C   UNL     1       2.878   8.325  17.863  0.00  0.00    +0.000 A 
ATOM     18  C   UNL     1       3.429   7.080  17.508  0.00  0.00    +0.000 A 
ATOM     19  C   UNL     1       2.946   6.156  18.417  0.00  0.00    +0.000 A 
ATOM     20  O   UNL     1       2.172   6.793  19.356  0.00  0.00    +0.000 OA
BRANCH  19  21
ATOM     21  C   UNL     1       3.062   4.703  18.486  0.00  0.00    +0.000 A 
ATOM     22  C   UNL     1       4.136   4.079  19.133  0.00  0.00    +0.000 A 
ATOM     23  C   UNL     1       4.223   2.681  19.177  0.00  0.00    +0.000 A 
ATOM     24  C   UNL     1       3.234   1.890  18.589  0.00  0.00    +0.000 A 
ATOM     25  C   UNL     1       2.164   2.498  17.940  0.00  0.00    +0.000 A 
ATOM     26  C   UNL     1       2.090   3.887  17.886  0.00  0.00    +0.000 A 
ATOM     27  F   UNL     1       1.038   4.431  17.251  0.00  0.00    +0.000 F 
ENDBRANCH  19  21
ENDBRANCH   2  16
TORSDOF 3
ENDMDL
MODEL 4
REMARK VINA RESULT:      -7.9      2.587      4.110
REMARK  Name = 
REMARK  3 active torsions:
REMARK  status: ('A' for Active; 'I' for Inactive)
REMARK    1  A    between atoms: C_2  and  C_14
REMARK    2  A    between atoms: N_3  and  C_4
REMARK    3  A    between atoms: C_17  and  C_18
REMARK                            x       y       z     vdW  Elec       q    Type
REMARK                         _______ _______ _______ _____ _____    ______ ____
ROOT
ATOM      1  O   UNL     1      -0.180   8.900  21.075  0.00  0.00    +0.000 OA
ATOM      2  C   UNL     1       0.422   9.607  20.265  0.00  0.00    +0.000 C 
ATOM      3  N   UNL     1       0.201  10.973  20.150  0.00  0.00    +0.000 N 
ATOM      4  H   UNL     1       0.389  11.365  19.228  0.00  0.00    +0.000 HD
ENDROOT
BRANCH   3   5
ATOM      5  C   UNL     1      -0.755  11.634  20.957  0.00  0.00    +0.000 A 
ATOM      6  C   UNL     1      -0.570  11.831  22.332  0.00  0.00    +0.000 A 
ATOM      7  C   UNL     1      -1.565  12.443  23.123  0.00  0.00    +0.000 A 
ATOM      8  C   UNL     1      -2.778  12.855  22.562  0.00  0.00    +0.000 A 
ATOM      9  C   UNL     1      -2.962  12.658  21.205  0.00  0.00    +0.000 A 
ATOM     10  C   UNL     1      -1.948  12.087  20.424  0.00  0.00    +0.000 A 
ATOM     11  C   UNL     1      -2.468  11.953  19.060  0.00  0.00    +0.000 C 
ATOM     12  O   UNL     1      -1.869  11.469  18.120  0.00  0.00    +0.000 OA
ATOM     13  N   UNL     1      -3.750  12.457  19.066  0.00  0.00    +0.000 N 
ATOM     14  C   UNL     1      -4.169  12.914  20.369  0.00  0.00    +0.000 C 
ATOM     15  H   UNL     1      -4.338  12.406  18.245  0.00  0.00    +0.000 HD
ENDBRANCH   3   5
BRANCH   2  16
ATOM     16  C   UNL     1       1.347   9.020  19.314  0.00  0.00    +0.000 A 
ATOM     17  C   UNL     1       1.865   9.596  18.170  0.00  0.00    +0.000 A 
ATOM     18  C   UNL     1       2.599   8.597  17.504  0.00  0.00    +0.000 A 
ATOM     19  C   UNL     1       2.488   7.447  18.264  0.00  0.00    +0.000 A 
ATOM     20  O   UNL     1       1.770   7.715  19.405  0.00  0.00    +0.000 OA
BRANCH  19  21
ATOM     21  C   UNL     1       2.921   6.074  18.025  0.00  0.00    +0.000 A 
ATOM     22  C   UNL     1       2.016   5.006  18.021  0.00  0.00    +0.000 A 
ATOM     23  C   UNL     1       2.464   3.697  17.795  0.00  0.00    +0.000 A 
ATOM     24  C   UNL     1       3.815   3.441  17.558  0.00  0.00    +0.000 A 
ATOM     25  C   UNL     1       4.725   4.494  17.563  0.00  0.00    +0.000 A 
ATOM     26  C   UNL     1       4.277   5.790  17.802  0.00  0.00    +0.000 A 
ATOM     27  F   UNL     1       5.190   6.776  17.796  0.00  0.00    +0.000 F 
ENDBRANCH  19  21
ENDBRANCH   2  16
TORSDOF 3
ENDMDL
MODEL 5
REMARK VINA RESULT:      -7.9      3.038      8.416
REMARK  Name = 
REMARK  3 active torsions:
REMARK  status: ('A' for Active; 'I' for Inactive)
REMARK    1  A    between atoms: C_2  and  C_14
REMARK    2  A    between atoms: N_3  and  C_4
REMARK    3  A    between atoms: C_17  and  C_18
REMARK                            x       y       z     vdW  Elec       q    Type
REMARK                         _______ _______ _______ _____ _____    ______ ____
ROOT
ATOM      1  O   UNL     1       2.034   8.013  18.135  0.00  0.00    +0.000 OA
ATOM      2  C   UNL     1       2.089   7.721  19.330  0.00  0.00    +0.000 C 
ATOM      3  N   UNL     1       2.711   6.569  19.793  0.00  0.00    +0.000 N 
ATOM      4  H   UNL     1       2.345   6.203  20.671  0.00  0.00    +0.000 HD
ENDROOT
BRANCH   3   5
ATOM      5  C   UNL     1       3.309   5.646  18.902  0.00  0.00    +0.000 A 
ATOM      6  C   UNL     1       4.429   5.970  18.124  0.00  0.00    +0.000 A 
ATOM      7  C   UNL     1       4.970   5.050  17.202  0.00  0.00    +0.000 A 
ATOM      8  C   UNL     1       4.392   3.790  17.020  0.00  0.00    +0.000 A 
ATOM      9  C   UNL     1       3.284   3.471  17.786  0.00  0.00    +0.000 A 
ATOM     10  C   UNL     1       2.783   4.379  18.727  0.00  0.00    +0.000 A 
ATOM     11  C   UNL     1       1.583   3.781  19.319  0.00  0.00    +0.000 C 
ATOM     12  O   UNL     1       0.872   4.302  20.155  0.00  0.00    +0.000 OA
ATOM     13  N   UNL     1       1.418   2.545  18.733  0.00  0.00    +0.000 N 
ATOM     14  C   UNL     1       2.424   2.254  17.740  0.00  0.00    +0.000 C 
ATOM     15  H   UNL     1       0.609   1.972  18.934  0.00  0.00    +0.000 HD
ENDBRANCH   3   5
BRANCH   2  16
ATOM     16  C   UNL     1       1.418   8.536  20.324  0.00  0.00    +0.000 A 
ATOM     17  C   UNL     1       1.325   8.309  21.684  0.00  0.00    +0.000 A 
ATOM     18  C   UNL     1       0.463   9.291  22.206  0.00  0.00    +0.000 A 
ATOM     19  C   UNL     1       0.056  10.072  21.140  0.00  0.00    +0.000 A 
ATOM     20  O   UNL     1       0.684   9.651  19.992  0.00  0.00    +0.000 OA
BRANCH  19  21
ATOM     21  C   UNL     1      -0.922  11.150  21.037  0.00  0.00    +0.000 A 
ATOM     22  C   UNL     1      -1.410  11.588  19.800  0.00  0.00    +0.000 A 
ATOM     23  C   UNL     1      -2.344  12.630  19.733  0.00  0.00    +0.000 A 
ATOM     24  C   UNL     1      -2.812  13.238  20.899  0.00  0.00    +0.000 A 
ATOM     25  C   UNL     1      -2.331  12.816  22.135  0.00  0.00    +0.000 A 
ATOM     26  C   UNL     1      -1.392  11.790  22.194  0.00  0.00    +0.000 A 
ATOM     27  F   UNL     1      -0.957  11.413  23.409  0.00  0.00    +0.000 F 
ENDBRANCH  19  21
ENDBRANCH   2  16
TORSDOF 3
ENDMDL
MODEL 6
REMARK VINA RESULT:      -7.9      2.890      8.346
REMARK  Name = 
REMARK  3 active torsions:
REMARK  status: ('A' for Active; 'I' for Inactive)
REMARK    1  A    between atoms: C_2  and  C_14
REMARK    2  A    between atoms: N_3  and  C_4
REMARK    3  A    between atoms: C_17  and  C_18
REMARK                            x       y       z     vdW  Elec       q    Type
REMARK                         _______ _______ _______ _____ _____    ______ ____
ROOT
ATOM      1  O   UNL     1       2.165   8.002  18.126  0.00  0.00    +0.000 OA
ATOM      2  C   UNL     1       2.166   7.696  19.319  0.00  0.00    +0.000 C 
ATOM      3  N   UNL     1       2.737   6.522  19.792  0.00  0.00    +0.000 N 
ATOM      4  H   UNL     1       2.327   6.158  20.652  0.00  0.00    +0.000 HD
ENDROOT
BRANCH   3   5
ATOM      5  C   UNL     1       3.342   5.592  18.915  0.00  0.00    +0.000 A 
ATOM      6  C   UNL     1       4.486   5.900  18.165  0.00  0.00    +0.000 A 
ATOM      7  C   UNL     1       5.035   4.973  17.256  0.00  0.00    +0.000 A 
ATOM      8  C   UNL     1       4.443   3.722  17.057  0.00  0.00    +0.000 A 
ATOM      9  C   UNL     1       3.312   3.419  17.795  0.00  0.00    +0.000 A 
ATOM     10  C   UNL     1       2.802   4.333  18.725  0.00  0.00    +0.000 A 
ATOM     11  C   UNL     1       1.579   3.752  19.286  0.00  0.00    +0.000 C 
ATOM     12  O   UNL     1       0.855   4.283  20.105  0.00  0.00    +0.000 OA
ATOM     13  N   UNL     1       1.409   2.520  18.694  0.00  0.00    +0.000 N 
ATOM     14  C   UNL     1       2.434   2.215  17.726  0.00  0.00    +0.000 C 
ATOM     15  H   UNL     1       0.587   1.959  18.874  0.00  0.00    +0.000 HD
ENDBRANCH   3   5
BRANCH   2  16
ATOM     16  C   UNL     1       1.481   8.521  20.296  0.00  0.00    +0.000 A 
ATOM     17  C   UNL     1       1.154   8.196  21.599  0.00  0.00    +0.000 A 
ATOM     18  C   UNL     1       0.377   9.255  22.102  0.00  0.00    +0.000 A 
ATOM     19  C   UNL     1       0.250  10.178  21.081  0.00  0.00    +0.000 A 
ATOM     20  O   UNL     1       0.974   9.762  19.989  0.00  0.00    +0.000 OA
BRANCH  19  21
ATOM     21  C   UNL     1      -0.535  11.404  20.963  0.00  0.00    +0.000 A 
ATOM     22  C   UNL     1      -0.361  12.478  21.844  0.00  0.00    +0.000 A 
ATOM     23  C   UNL     1      -1.135  13.639  21.709  0.00  0.00    +0.000 A 
ATOM     24  C   UNL     1      -2.080  13.746  20.688  0.00  0.00    +0.000 A 
ATOM     25  C   UNL     1      -2.265  12.683  19.808  0.00  0.00    +0.000 A 
ATOM     26  C   UNL     1      -1.504  11.527  19.955  0.00  0.00    +0.000 A 
ATOM     27  F   UNL     1      -1.715  10.527  19.083  0.00  0.00    +0.000 F 
ENDBRANCH  19  21
ENDBRANCH   2  16
TORSDOF 3
ENDMDL
MODEL 7
REMARK VINA RESULT:      -7.9      2.859      4.135
REMARK  Name = 
REMARK  3 active torsions:
REMARK  status: ('A' for Active; 'I' for Inactive)
REMARK    1  A    between atoms: C_2  and  C_14
REMARK    2  A    between atoms: N_3  and  C_4
REMARK    3  A    between atoms: C_17  and  C_18
REMARK                            x       y       z     vdW  Elec       q    Type
REMARK                         _______ _______ _______ _____ _____    ______ ____
ROOT
ATOM      1  O   UNL     1       1.141   9.122  20.331  0.00  0.00    +0.000 OA
ATOM      2  C   UNL     1       1.425   9.067  19.134  0.00  0.00    +0.000 C 
ATOM      3  N   UNL     1       0.863   9.913  18.188  0.00  0.00    +0.000 N 
ATOM      4  H   UNL     1       0.811   9.533  17.244  0.00  0.00    +0.000 HD
ENDROOT
BRANCH   3   5
ATOM      5  C   UNL     1      -0.096  10.889  18.552  0.00  0.00    +0.000 A 
ATOM      6  C   UNL     1      -1.452  10.583  18.723  0.00  0.00    +0.000 A 
ATOM      7  C   UNL     1      -2.395  11.585  19.029  0.00  0.00    +0.000 A 
ATOM      8  C   UNL     1      -2.009  12.923  19.152  0.00  0.00    +0.000 A 
ATOM      9  C   UNL     1      -0.669  13.227  18.981  0.00  0.00    +0.000 A 
ATOM     10  C   UNL     1       0.262  12.215  18.718  0.00  0.00    +0.000 A 
ATOM     11  C   UNL     1       1.565  12.857  18.524  0.00  0.00    +0.000 C 
ATOM     12  O   UNL     1       2.602  12.285  18.249  0.00  0.00    +0.000 OA
ATOM     13  N   UNL     1       1.376  14.211  18.691  0.00  0.00    +0.000 N 
ATOM     14  C   UNL     1       0.003  14.558  18.967  0.00  0.00    +0.000 C 
ATOM     15  H   UNL     1       2.127  14.870  18.534  0.00  0.00    +0.000 HD
ENDBRANCH   3   5
BRANCH   2  16
ATOM     16  C   UNL     1       2.314   8.036  18.631  0.00  0.00    +0.000 A 
ATOM     17  C   UNL     1       3.242   8.141  17.613  0.00  0.00    +0.000 A 
ATOM     18  C   UNL     1       3.758   6.850  17.394  0.00  0.00    +0.000 A 
ATOM     19  C   UNL     1       3.113   6.007  18.281  0.00  0.00    +0.000 A 
ATOM     20  O   UNL     1       2.269   6.738  19.082  0.00  0.00    +0.000 OA
BRANCH  19  21
ATOM     21  C   UNL     1       3.134   4.556  18.439  0.00  0.00    +0.000 A 
ATOM     22  C   UNL     1       4.174   3.902  19.109  0.00  0.00    +0.000 A 
ATOM     23  C   UNL     1       4.169   2.506  19.238  0.00  0.00    +0.000 A 
ATOM     24  C   UNL     1       3.119   1.750  18.714  0.00  0.00    +0.000 A 
ATOM     25  C   UNL     1       2.081   2.388  18.042  0.00  0.00    +0.000 A 
ATOM     26  C   UNL     1       2.099   3.774  17.904  0.00  0.00    +0.000 A 
ATOM     27  F   UNL     1       1.075   4.347  17.250  0.00  0.00    +0.000 F 
ENDBRANCH  19  21
ENDBRANCH   2  16
TORSDOF 3
ENDMDL
MODEL 8
REMARK VINA RESULT:      -7.9      2.598      3.740
REMARK  Name = 
REMARK  3 active torsions:
REMARK  status: ('A' for Active; 'I' for Inactive)
REMARK    1  A    between atoms: C_2  and  C_14
REMARK    2  A    between atoms: N_3  and  C_4
REMARK    3  A    between atoms: C_17  and  C_18
REMARK                            x       y       z     vdW  Elec       q    Type
REMARK                         _______ _______ _______ _____ _____    ______ ____
ROOT
ATOM      1  O   UNL     1       0.448   8.779  20.983  0.00  0.00    +0.000 OA
ATOM      2  C   UNL     1       0.985   9.233  19.971  0.00  0.00    +0.000 C 
ATOM      3  N   UNL     1       0.745  10.519  19.508  0.00  0.00    +0.000 N 
ATOM      4  H   UNL     1       0.862  10.646  18.503  0.00  0.00    +0.000 HD
ENDROOT
BRANCH   3   5
ATOM      5  C   UNL     1      -0.156  11.386  20.172  0.00  0.00    +0.000 A 
ATOM      6  C   UNL     1       0.158  12.006  21.389  0.00  0.00    +0.000 A 
ATOM      7  C   UNL     1      -0.779  12.819  22.059  0.00  0.00    +0.000 A 
ATOM      8  C   UNL     1      -2.062  13.017  21.538  0.00  0.00    +0.000 A 
ATOM      9  C   UNL     1      -2.373  12.403  20.337  0.00  0.00    +0.000 A 
ATOM     10  C   UNL     1      -1.418  11.631  19.663  0.00  0.00    +0.000 A 
ATOM     11  C   UNL     1      -2.066  11.070  18.475  0.00  0.00    +0.000 C 
ATOM     12  O   UNL     1      -1.543  10.325  17.669  0.00  0.00    +0.000 OA
ATOM     13  N   UNL     1      -3.364  11.530  18.468  0.00  0.00    +0.000 N 
ATOM     14  C   UNL     1      -3.671  12.366  19.604  0.00  0.00    +0.000 C 
ATOM     15  H   UNL     1      -4.030  11.216  17.775  0.00  0.00    +0.000 HD
ENDBRANCH   3   5
BRANCH   2  16
ATOM     16  C   UNL     1       1.843   8.400  19.150  0.00  0.00    +0.000 A 
ATOM     17  C   UNL     1       2.460   8.734  17.959  0.00  0.00    +0.000 A 
ATOM     18  C   UNL     1       3.066   7.562  17.471  0.00  0.00    +0.000 A 
ATOM     19  C   UNL     1       2.784   6.558  18.378  0.00  0.00    +0.000 A 
ATOM     20  O   UNL     1       2.084   7.078  19.440  0.00  0.00    +0.000 OA
BRANCH  19  21
ATOM     21  C   UNL     1       3.034   5.120  18.351  0.00  0.00    +0.000 A 
ATOM     22  C   UNL     1       2.178   4.236  17.684  0.00  0.00    +0.000 A 
ATOM     23  C   UNL     1       2.441   2.859  17.681  0.00  0.00    +0.000 A 
ATOM     24  C   UNL     1       3.566   2.351  18.333  0.00  0.00    +0.000 A 
ATOM     25  C   UNL     1       4.422   3.219  19.004  0.00  0.00    +0.000 A 
ATOM     26  C   UNL     1       4.148   4.584  19.014  0.00  0.00    +0.000 A 
ATOM     27  F   UNL     1       5.003   5.385  19.673  0.00  0.00    +0.000 F 
ENDBRANCH  19  21
ENDBRANCH   2  16
TORSDOF 3
ENDMDL
MODEL 9
REMARK VINA RESULT:      -7.9      3.023      5.062
REMARK  Name = 
REMARK  3 active torsions:
REMARK  status: ('A' for Active; 'I' for Inactive)
REMARK    1  A    between atoms: C_2  and  C_14
REMARK    2  A    between atoms: N_3  and  C_4
REMARK    3  A    between atoms: C_17  and  C_18
REMARK                            x       y       z     vdW  Elec       q    Type
REMARK                         _______ _______ _______ _____ _____    ______ ____
ROOT
ATOM      1  O   UNL     1       2.169  10.748  18.466  0.00  0.00    +0.000 OA
ATOM      2  C   UNL     1       1.527   9.745  18.781  0.00  0.00    +0.000 C 
ATOM      3  N   UNL     1       0.252   9.809  19.325  0.00  0.00    +0.000 N 
ATOM      4  H   UNL     1      -0.001   9.028  19.929  0.00  0.00    +0.000 HD
ENDROOT
BRANCH   3   5
ATOM      5  C   UNL     1      -0.384  11.051  19.567  0.00  0.00    +0.000 A 
ATOM      6  C   UNL     1      -0.595  11.996  18.554  0.00  0.00    +0.000 A 
ATOM      7  C   UNL     1      -1.179  13.249  18.834  0.00  0.00    +0.000 A 
ATOM      8  C   UNL     1      -1.549  13.595  20.137  0.00  0.00    +0.000 A 
ATOM      9  C   UNL     1      -1.338  12.663  21.138  0.00  0.00    +0.000 A 
ATOM     10  C   UNL     1      -0.795  11.407  20.838  0.00  0.00    +0.000 A 
ATOM     11  C   UNL     1      -0.637  10.684  22.103  0.00  0.00    +0.000 C 
ATOM     12  O   UNL     1      -0.166   9.570  22.227  0.00  0.00    +0.000 OA
ATOM     13  N   UNL     1      -1.099  11.512  23.101  0.00  0.00    +0.000 N 
ATOM     14  C   UNL     1      -1.550  12.791  22.608  0.00  0.00    +0.000 C 
ATOM     15  H   UNL     1      -1.025  11.253  24.076  0.00  0.00    +0.000 HD
ENDBRANCH   3   5
BRANCH   2  16
ATOM     16  C   UNL     1       2.120   8.425  18.679  0.00  0.00    +0.000 A 
ATOM     17  C   UNL     1       2.995   7.961  17.715  0.00  0.00    +0.000 A 
ATOM     18  C   UNL     1       3.178   6.587  17.955  0.00  0.00    +0.000 A 
ATOM     19  C   UNL     1       2.396   6.265  19.049  0.00  0.00    +0.000 A 
ATOM     20  O   UNL     1       1.790   7.399  19.534  0.00  0.00    +0.000 OA
BRANCH  19  21
ATOM     21  C   UNL     1       2.079   4.988  19.680  0.00  0.00    +0.000 A 
ATOM     22  C   UNL     1       2.408   4.723  21.015  0.00  0.00    +0.000 A 
ATOM     23  C   UNL     1       2.096   3.484  21.591  0.00  0.00    +0.000 A 
ATOM     24  C   UNL     1       1.442   2.502  20.847  0.00  0.00    +0.000 A 
ATOM     25  C   UNL     1       1.113   2.750  19.517  0.00  0.00    +0.000 A 
ATOM     26  C   UNL     1       1.438   3.978  18.946  0.00  0.00    +0.000 A 
ATOM     27  F   UNL     1       1.100   4.175  17.661  0.00  0.00    +0.000 F 
ENDBRANCH  19  21
ENDBRANCH   2  16
TORSDOF 3
ENDMDL
