MODEL 1
REMARK VINA RESULT:      -8.3      0.000      0.000
REMARK  Name = 
REMARK  9 active torsions:
REMARK  status: ('A' for Active; 'I' for Inactive)
REMARK    1  A    between atoms: C_1  and  N_2
REMARK    2  A    between atoms: C_6  and  C_7
REMARK    3  A    between atoms: C_7  and  N_8
REMARK    4  A    between atoms: C_7  and  O_9
REMARK    5  A    between atoms: O_9  and  C_10
REMARK    6  A    between atoms: C_10  and  C_11
REMARK    7  A    between atoms: C_11  and  C_12
REMARK    8  A    between atoms: C_16  and  N_17
REMARK    9  A    between atoms: C_24  and  C_25
REMARK                            x       y       z     vdW  Elec       q    Type
REMARK                         _______ _______ _______ _____ _____    ______ ____
ROOT
ATOM      1  C   UNL     1       1.272   8.913  19.824  0.00  0.00    +0.000 A 
ATOM      2  C   UNL     1       1.775   9.366  18.598  0.00  0.00    +0.000 A 
ATOM      3  C   UNL     1       2.387   8.483  17.717  0.00  0.00    +0.000 A 
ATOM      4  C   UNL     1       2.624   7.172  18.111  0.00  0.00    +0.000 A 
ATOM      5  C   UNL     1       2.374   6.796  19.443  0.00  0.00    +0.000 A 
ATOM      6  C   UNL     1       1.554   7.605  20.232  0.00  0.00    +0.000 A 
ENDROOT
BRANCH   5   7
ATOM      7  N   UNL     1       3.309   5.914  20.123  0.00  0.00    +0.000 N 
ATOM      8  C   UNL     1       4.467   5.609  19.237  0.00  0.00    +0.000 C 
ATOM      9  C   UNL     1       4.008   4.369  18.535  0.00  0.00    +0.000 A 
ATOM     10  C   UNL     1       3.103   3.726  19.390  0.00  0.00    +0.000 A 
ATOM     11  C   UNL     1       2.349   2.632  18.992  0.00  0.00    +0.000 A 
ATOM     12  C   UNL     1       2.514   2.182  17.683  0.00  0.00    +0.000 A 
ATOM     13  C   UNL     1       3.411   2.829  16.811  0.00  0.00    +0.000 A 
ATOM     14  C   UNL     1       4.181   3.938  17.224  0.00  0.00    +0.000 A 
ATOM     15  C   UNL     1       2.785   4.645  20.496  0.00  0.00    +0.000 C 
ATOM     16  O   UNL     1       2.026   4.385  21.410  0.00  0.00    +0.000 OA
BRANCH  14  17
ATOM     17  C   UNL     1       5.044   4.652  16.214  0.00  0.00    +0.000 C 
ATOM     18  F   UNL     1       4.687   5.945  15.987  0.00  0.00    +0.000 F 
ATOM     19  F   UNL     1       6.352   4.694  16.594  0.00  0.00    +0.000 F 
ATOM     20  F   UNL     1       5.031   4.044  14.995  0.00  0.00    +0.000 F 
ENDBRANCH  14  17
ENDBRANCH   5   7
BRANCH   1  21
ATOM     21  C   UNL     1       0.541   9.847  20.758  0.00  0.00    +0.000 C 
BRANCH  21  22
ATOM     22  C   UNL     1       0.057  11.113  20.058  0.00  0.00    +0.000 C 
BRANCH  22  23
ATOM     23  O   UNL     1      -1.299  10.931  19.621  0.00  0.00    +0.000 OA
BRANCH  23  24
ATOM     24  C   UNL     1      -1.436  11.179  18.229  0.00  0.00    +0.000 C 
BRANCH  24  30
ATOM     25  C   UNL     1      -2.940  10.798  15.440  0.00  0.00    +0.000 C 
ATOM     26  N   UNL     1      -3.501  11.237  16.688  0.00  0.00    +0.000 N 
ATOM     27  C   UNL     1      -4.808  11.602  16.874  0.00  0.00    +0.000 A 
ATOM     28  N   UNL     1      -4.987  11.967  18.120  0.00  0.00    +0.000 NA
ATOM     29  N   UNL     1      -3.788  11.845  18.767  0.00  0.00    +0.000 NA
ATOM     30  C   UNL     1      -2.884  11.396  17.905  0.00  0.00    +0.000 A 
ENDBRANCH  24  30
BRANCH  24  31
ATOM     31  N   UNL     1      -0.669  12.368  17.879  0.00  0.00    +0.000 NA
ATOM     32  H   UNL     1      -0.301  12.189  16.946  0.00  0.00    +0.000 HD
ATOM     33  H   UNL     1       0.165  12.356  18.474  0.00  0.00    +0.000 HD
ENDBRANCH  24  31
ENDBRANCH  23  24
ENDBRANCH  22  23
ENDBRANCH  21  22
ENDBRANCH   1  21
TORSDOF 8
ENDMDL
MODEL 2
REMARK VINA RESULT:      -8.1      2.595      3.247
REMARK  Name = 
REMARK  9 active torsions:
REMARK  status: ('A' for Active; 'I' for Inactive)
REMARK    1  A    between atoms: C_1  and  N_2
REMARK    2  A    between atoms: C_6  and  C_7
REMARK    3  A    between atoms: C_7  and  N_8
REMARK    4  A    between atoms: C_7  and  O_9
REMARK    5  A    between atoms: O_9  and  C_10
REMARK    6  A    between atoms: C_10  and  C_11
REMARK    7  A    between atoms: C_11  and  C_12
REMARK    8  A    between atoms: C_16  and  N_17
REMARK    9  A    between atoms: C_24  and  C_25
REMARK                            x       y       z     vdW  Elec       q    Type
REMARK                         _______ _______ _______ _____ _____    ______ ____
ROOT
ATOM      1  C   UNL     1       1.221   9.133  19.254  0.00  0.00    +0.000 A 
ATOM      2  C   UNL     1       0.969   8.517  20.486  0.00  0.00    +0.000 A 
ATOM      3  C   UNL     1       1.675   7.381  20.864  0.00  0.00    +0.000 A 
ATOM      4  C   UNL     1       2.538   6.775  19.961  0.00  0.00    +0.000 A 
ATOM      5  C   UNL     1       2.576   7.230  18.631  0.00  0.00    +0.000 A 
ATOM      6  C   UNL     1       2.057   8.491  18.332  0.00  0.00    +0.000 A 
ENDROOT
BRANCH   5   7
ATOM      7  N   UNL     1       2.670   6.264  17.548  0.00  0.00    +0.000 N 
ATOM      8  C   UNL     1       1.750   5.120  17.797  0.00  0.00    +0.000 C 
ATOM      9  C   UNL     1       2.628   4.168  18.549  0.00  0.00    +0.000 A 
ATOM     10  C   UNL     1       3.946   4.427  18.152  0.00  0.00    +0.000 A 
ATOM     11  C   UNL     1       5.041   3.846  18.774  0.00  0.00    +0.000 A 
ATOM     12  C   UNL     1       4.790   2.981  19.837  0.00  0.00    +0.000 A 
ATOM     13  C   UNL     1       3.468   2.723  20.254  0.00  0.00    +0.000 A 
ATOM     14  C   UNL     1       2.358   3.313  19.612  0.00  0.00    +0.000 A 
ATOM     15  C   UNL     1       3.953   5.675  17.369  0.00  0.00    +0.000 C 
ATOM     16  O   UNL     1       4.947   6.174  16.878  0.00  0.00    +0.000 OA
BRANCH  14  17
ATOM     17  C   UNL     1       0.976   3.080  20.170  0.00  0.00    +0.000 C 
ATOM     18  F   UNL     1       0.151   2.381  19.345  0.00  0.00    +0.000 F 
ATOM     19  F   UNL     1       1.005   2.382  21.339  0.00  0.00    +0.000 F 
ATOM     20  F   UNL     1       0.325   4.244  20.448  0.00  0.00    +0.000 F 
ENDBRANCH  14  17
ENDBRANCH   5   7
BRANCH   1  21
ATOM     21  C   UNL     1       0.514  10.406  18.861  0.00  0.00    +0.000 C 
BRANCH  21  22
ATOM     22  C   UNL     1      -0.077  11.140  20.061  0.00  0.00    +0.000 C 
BRANCH  22  23
ATOM     23  O   UNL     1      -1.135  12.005  19.622  0.00  0.00    +0.000 OA
BRANCH  23  24
ATOM     24  C   UNL     1      -1.372  11.873  18.227  0.00  0.00    +0.000 C 
BRANCH  24  30
ATOM     25  C   UNL     1      -2.845  10.828  15.596  0.00  0.00    +0.000 C 
ATOM     26  N   UNL     1      -3.445  11.226  16.840  0.00  0.00    +0.000 N 
ATOM     27  C   UNL     1      -4.792  11.248  17.088  0.00  0.00    +0.000 A 
ATOM     28  N   UNL     1      -5.005  11.676  18.309  0.00  0.00    +0.000 NA
ATOM     29  N   UNL     1      -3.789  11.942  18.875  0.00  0.00    +0.000 NA
ATOM     30  C   UNL     1      -2.838  11.664  17.991  0.00  0.00    +0.000 A 
ENDBRANCH  24  30
BRANCH  24  31
ATOM     31  N   UNL     1      -0.932  13.087  17.553  0.00  0.00    +0.000 NA
ATOM     32  H   UNL     1       0.064  13.167  17.758  0.00  0.00    +0.000 HD
ATOM     33  H   UNL     1      -1.348  13.868  18.068  0.00  0.00    +0.000 HD
ENDBRANCH  24  31
ENDBRANCH  23  24
ENDBRANCH  22  23
ENDBRANCH  21  22
ENDBRANCH   1  21
TORSDOF 8
ENDMDL
MODEL 3
REMARK VINA RESULT:      -8.0      5.991      8.294
REMARK  Name = 
REMARK  9 active torsions:
REMARK  status: ('A' for Active; 'I' for Inactive)
REMARK    1  A    between atoms: C_1  and  N_2
REMARK    2  A    between atoms: C_6  and  C_7
REMARK    3  A    between atoms: C_7  and  N_8
REMARK    4  A    between atoms: C_7  and  O_9
REMARK    5  A    between atoms: O_9  and  C_10
REMARK    6  A    between atoms: C_10  and  C_11
REMARK    7  A    between atoms: C_11  and  C_12
REMARK    8  A    between atoms: C_16  and  N_17
REMARK    9  A    between atoms: C_24  and  C_25
REMARK                            x       y       z     vdW  Elec       q    Type
REMARK                         _______ _______ _______ _____ _____    ______ ____
ROOT
ATOM      1  C   UNL     1       7.819   7.686  17.810  0.00  0.00    +0.000 A 
ATOM      2  C   UNL     1       7.863   6.863  18.943  0.00  0.00    +0.000 A 
ATOM      3  C   UNL     1       7.745   5.485  18.819  0.00  0.00    +0.000 A 
ATOM      4  C   UNL     1       7.446   4.928  17.582  0.00  0.00    +0.000 A 
ATOM      5  C   UNL     1       7.123   5.773  16.505  0.00  0.00    +0.000 A 
ATOM      6  C   UNL     1       7.471   7.123  16.577  0.00  0.00    +0.000 A 
ENDROOT
BRANCH   5   7
ATOM      7  N   UNL     1       6.044   5.400  15.604  0.00  0.00    +0.000 N 
ATOM      8  C   UNL     1       4.847   6.250  15.854  0.00  0.00    +0.000 C 
ATOM      9  C   UNL     1       4.099   5.448  16.873  0.00  0.00    +0.000 A 
ATOM     10  C   UNL     1       4.448   4.106  16.674  0.00  0.00    +0.000 A 
ATOM     11  C   UNL     1       4.073   3.099  17.550  0.00  0.00    +0.000 A 
ATOM     12  C   UNL     1       3.326   3.467  18.668  0.00  0.00    +0.000 A 
ATOM     13  C   UNL     1       2.981   4.816  18.886  0.00  0.00    +0.000 A 
ATOM     14  C   UNL     1       3.360   5.835  17.986  0.00  0.00    +0.000 A 
ATOM     15  C   UNL     1       5.580   4.062  15.732  0.00  0.00    +0.000 C 
ATOM     16  O   UNL     1       6.119   3.041  15.352  0.00  0.00    +0.000 OA
BRANCH  14  17
ATOM     17  C   UNL     1       3.050   7.271  18.328  0.00  0.00    +0.000 C 
ATOM     18  F   UNL     1       4.060   8.141  18.057  0.00  0.00    +0.000 F 
ATOM     19  F   UNL     1       1.969   7.740  17.646  0.00  0.00    +0.000 F 
ATOM     20  F   UNL     1       2.760   7.441  19.649  0.00  0.00    +0.000 F 
ENDBRANCH  14  17
ENDBRANCH   5   7
BRANCH   1  21
ATOM     21  C   UNL     1       8.017   9.177  17.922  0.00  0.00    +0.000 C 
BRANCH  21  22
ATOM     22  C   UNL     1       8.974   9.556  19.049  0.00  0.00    +0.000 C 
BRANCH  22  23
ATOM     23  O   UNL     1       9.855  10.597  18.600  0.00  0.00    +0.000 OA
BRANCH  23  24
ATOM     24  C   UNL     1      10.161  11.508  19.646  0.00  0.00    +0.000 C 
BRANCH  24  30
ATOM     25  C   UNL     1      11.015  13.512  17.314  0.00  0.00    +0.000 C 
ATOM     26  N   UNL     1       9.994  13.703  18.307  0.00  0.00    +0.000 N 
ATOM     27  C   UNL     1       9.222  14.828  18.431  0.00  0.00    +0.000 A 
ATOM     28  N   UNL     1       8.404  14.688  19.446  0.00  0.00    +0.000 NA
ATOM     29  N   UNL     1       8.636  13.460  20.002  0.00  0.00    +0.000 NA
ATOM     30  C   UNL     1       9.595  12.855  19.311  0.00  0.00    +0.000 A 
ENDBRANCH  24  30
BRANCH  24  31
ATOM     31  N   UNL     1       9.574  11.021  20.888  0.00  0.00    +0.000 NA
ATOM     32  H   UNL     1       9.679  11.785  21.555  0.00  0.00    +0.000 HD
ATOM     33  H   UNL     1      10.211  10.301  21.243  0.00  0.00    +0.000 HD
ENDBRANCH  24  31
ENDBRANCH  23  24
ENDBRANCH  22  23
ENDBRANCH  21  22
ENDBRANCH   1  21
TORSDOF 8
ENDMDL
MODEL 4
REMARK VINA RESULT:      -8.0      2.991      3.825
REMARK  Name = 
REMARK  9 active torsions:
REMARK  status: ('A' for Active; 'I' for Inactive)
REMARK    1  A    between atoms: C_1  and  N_2
REMARK    2  A    between atoms: C_6  and  C_7
REMARK    3  A    between atoms: C_7  and  N_8
REMARK    4  A    between atoms: C_7  and  O_9
REMARK    5  A    between atoms: O_9  and  C_10
REMARK    6  A    between atoms: C_10  and  C_11
REMARK    7  A    between atoms: C_11  and  C_12
REMARK    8  A    between atoms: C_16  and  N_17
REMARK    9  A    between atoms: C_24  and  C_25
REMARK                            x       y       z     vdW  Elec       q    Type
REMARK                         _______ _______ _______ _____ _____    ______ ____
ROOT
ATOM      1  C   UNL     1       2.117   7.520  19.692  0.00  0.00    +0.000 A 
ATOM      2  C   UNL     1       2.504   8.251  18.561  0.00  0.00    +0.000 A 
ATOM      3  C   UNL     1       3.021   7.604  17.446  0.00  0.00    +0.000 A 
ATOM      4  C   UNL     1       3.284   6.242  17.501  0.00  0.00    +0.000 A 
ATOM      5  C   UNL     1       3.161   5.564  18.727  0.00  0.00    +0.000 A 
ATOM      6  C   UNL     1       2.428   6.157  19.757  0.00  0.00    +0.000 A 
ENDROOT
BRANCH   5   7
ATOM      7  N   UNL     1       4.150   4.562  19.092  0.00  0.00    +0.000 N 
ATOM      8  C   UNL     1       5.492   5.192  19.233  0.00  0.00    +0.000 C 
ATOM      9  C   UNL     1       6.052   5.053  17.851  0.00  0.00    +0.000 A 
ATOM     10  C   UNL     1       5.439   3.935  17.272  0.00  0.00    +0.000 A 
ATOM     11  C   UNL     1       5.593   3.609  15.933  0.00  0.00    +0.000 A 
ATOM     12  C   UNL     1       6.388   4.450  15.156  0.00  0.00    +0.000 A 
ATOM     13  C   UNL     1       6.998   5.585  15.725  0.00  0.00    +0.000 A 
ATOM     14  C   UNL     1       6.843   5.908  17.090  0.00  0.00    +0.000 A 
ATOM     15  C   UNL     1       4.331   3.515  18.147  0.00  0.00    +0.000 C 
ATOM     16  O   UNL     1       3.599   2.570  17.924  0.00  0.00    +0.000 OA
BRANCH  14  17
ATOM     17  C   UNL     1       7.435   7.192  17.616  0.00  0.00    +0.000 C 
ATOM     18  F   UNL     1       6.515   8.136  17.949  0.00  0.00    +0.000 F 
ATOM     19  F   UNL     1       8.180   6.992  18.738  0.00  0.00    +0.000 F 
ATOM     20  F   UNL     1       8.269   7.786  16.717  0.00  0.00    +0.000 F 
ENDBRANCH  14  17
ENDBRANCH   5   7
BRANCH   1  21
ATOM     21  C   UNL     1       1.488   8.201  20.881  0.00  0.00    +0.000 C 
BRANCH  21  22
ATOM     22  C   UNL     1       0.507   9.297  20.476  0.00  0.00    +0.000 C 
BRANCH  22  23
ATOM     23  O   UNL     1      -0.523   9.411  21.470  0.00  0.00    +0.000 OA
BRANCH  23  24
ATOM     24  C   UNL     1      -0.215  10.412  22.429  0.00  0.00    +0.000 C 
BRANCH  24  30
ATOM     25  C   UNL     1      -0.790  12.774  20.361  0.00  0.00    +0.000 C 
ATOM     26  N   UNL     1      -1.526  12.449  21.551  0.00  0.00    +0.000 N 
ATOM     27  C   UNL     1      -2.610  13.146  22.016  0.00  0.00    +0.000 A 
ATOM     28  N   UNL     1      -3.036  12.602  23.130  0.00  0.00    +0.000 NA
ATOM     29  N   UNL     1      -2.226  11.534  23.408  0.00  0.00    +0.000 NA
ATOM     30  C   UNL     1      -1.312  11.433  22.450  0.00  0.00    +0.000 A 
ENDBRANCH  24  30
BRANCH  24  31
ATOM     31  N   UNL     1      -0.093   9.792  23.742  0.00  0.00    +0.000 NA
ATOM     32  H   UNL     1       0.868   9.456  23.796  0.00  0.00    +0.000 HD
ATOM     33  H   UNL     1      -0.648   8.932  23.705  0.00  0.00    +0.000 HD
ENDBRANCH  24  31
ENDBRANCH  23  24
ENDBRANCH  22  23
ENDBRANCH  21  22
ENDBRANCH   1  21
TORSDOF 8
ENDMDL
MODEL 5
REMARK VINA RESULT:      -8.0      1.928      2.689
REMARK  Name = 
REMARK  9 active torsions:
REMARK  status: ('A' for Active; 'I' for Inactive)
REMARK    1  A    between atoms: C_1  and  N_2
REMARK    2  A    between atoms: C_6  and  C_7
REMARK    3  A    between atoms: C_7  and  N_8
REMARK    4  A    between atoms: C_7  and  O_9
REMARK    5  A    between atoms: O_9  and  C_10
REMARK    6  A    between atoms: C_10  and  C_11
REMARK    7  A    between atoms: C_11  and  C_12
REMARK    8  A    between atoms: C_16  and  N_17
REMARK    9  A    between atoms: C_24  and  C_25
REMARK                            x       y       z     vdW  Elec       q    Type
REMARK                         _______ _______ _______ _____ _____    ______ ____
ROOT
ATOM      1  C   UNL     1       1.997   7.621  19.791  0.00  0.00    +0.000 A 
ATOM      2  C   UNL     1       2.425   8.363  18.682  0.00  0.00    +0.000 A 
ATOM      3  C   UNL     1       2.971   7.724  17.575  0.00  0.00    +0.000 A 
ATOM      4  C   UNL     1       3.220   6.359  17.622  0.00  0.00    +0.000 A 
ATOM      5  C   UNL     1       3.053   5.668  18.835  0.00  0.00    +0.000 A 
ATOM      6  C   UNL     1       2.293   6.255  19.849  0.00  0.00    +0.000 A 
ENDROOT
BRANCH   5   7
ATOM      7  N   UNL     1       4.021   4.652  19.218  0.00  0.00    +0.000 N 
ATOM      8  C   UNL     1       5.380   5.251  19.323  0.00  0.00    +0.000 C 
ATOM      9  C   UNL     1       5.918   5.056  17.939  0.00  0.00    +0.000 A 
ATOM     10  C   UNL     1       5.269   3.936  17.402  0.00  0.00    +0.000 A 
ATOM     11  C   UNL     1       5.397   3.566  16.072  0.00  0.00    +0.000 A 
ATOM     12  C   UNL     1       6.202   4.362  15.260  0.00  0.00    +0.000 A 
ATOM     13  C   UNL     1       6.849   5.498  15.786  0.00  0.00    +0.000 A 
ATOM     14  C   UNL     1       6.720   5.866  17.142  0.00  0.00    +0.000 A 
ATOM     15  C   UNL     1       4.162   3.572  18.304  0.00  0.00    +0.000 C 
ATOM     16  O   UNL     1       3.404   2.639  18.120  0.00  0.00    +0.000 OA
BRANCH  14  17
ATOM     17  C   UNL     1       7.352   7.150  17.620  0.00  0.00    +0.000 C 
ATOM     18  F   UNL     1       8.111   7.016  18.741  0.00  0.00    +0.000 F 
ATOM     19  F   UNL     1       8.174   7.698  16.683  0.00  0.00    +0.000 F 
ATOM     20  F   UNL     1       6.427   8.107  17.910  0.00  0.00    +0.000 F 
ENDBRANCH  14  17
ENDBRANCH   5   7
BRANCH   1  21
ATOM     21  C   UNL     1       1.338   8.294  20.969  0.00  0.00    +0.000 C 
BRANCH  21  22
ATOM     22  C   UNL     1       0.890   9.718  20.653  0.00  0.00    +0.000 C 
BRANCH  22  23
ATOM     23  O   UNL     1      -0.413   9.689  20.049  0.00  0.00    +0.000 OA
BRANCH  23  24
ATOM     24  C   UNL     1      -0.485  10.552  18.923  0.00  0.00    +0.000 C 
BRANCH  24  30
ATOM     25  C   UNL     1      -2.580   9.868  16.615  0.00  0.00    +0.000 C 
ATOM     26  N   UNL     1      -2.769  10.735  17.745  0.00  0.00    +0.000 N 
ATOM     27  C   UNL     1      -3.908  11.452  18.000  0.00  0.00    +0.000 A 
ATOM     28  N   UNL     1      -3.748  12.153  19.096  0.00  0.00    +0.000 NA
ATOM     29  N   UNL     1      -2.491  11.901  19.572  0.00  0.00    +0.000 NA
ATOM     30  C   UNL     1      -1.894  11.036  18.759  0.00  0.00    +0.000 A 
ENDBRANCH  24  30
BRANCH  24  31
ATOM     31  N   UNL     1       0.405  11.686  19.135  0.00  0.00    +0.000 NA
ATOM     32  H   UNL     1       1.174  11.555  18.479  0.00  0.00    +0.000 HD
ATOM     33  H   UNL     1       0.841  11.541  20.051  0.00  0.00    +0.000 HD
ENDBRANCH  24  31
ENDBRANCH  23  24
ENDBRANCH  22  23
ENDBRANCH  21  22
ENDBRANCH   1  21
TORSDOF 8
ENDMDL
MODEL 6
REMARK VINA RESULT:      -7.9      0.820      1.262
REMARK  Name = 
REMARK  9 active torsions:
REMARK  status: ('A' for Active; 'I' for Inactive)
REMARK    1  A    between atoms: C_1  and  N_2
REMARK    2  A    between atoms: C_6  and  C_7
REMARK    3  A    between atoms: C_7  and  N_8
REMARK    4  A    between atoms: C_7  and  O_9
REMARK    5  A    between atoms: O_9  and  C_10
REMARK    6  A    between atoms: C_10  and  C_11
REMARK    7  A    between atoms: C_11  and  C_12
REMARK    8  A    between atoms: C_16  and  N_17
REMARK    9  A    between atoms: C_24  and  C_25
REMARK                            x       y       z     vdW  Elec       q    Type
REMARK                         _______ _______ _______ _____ _____    ______ ____
ROOT
ATOM      1  C   UNL     1       1.475   8.954  19.319  0.00  0.00    +0.000 A 
ATOM      2  C   UNL     1       2.106   9.244  18.103  0.00  0.00    +0.000 A 
ATOM      3  C   UNL     1       2.732   8.238  17.377  0.00  0.00    +0.000 A 
ATOM      4  C   UNL     1       2.851   6.967  17.923  0.00  0.00    +0.000 A 
ATOM      5  C   UNL     1       2.467   6.751  19.258  0.00  0.00    +0.000 A 
ATOM      6  C   UNL     1       1.638   7.684  19.884  0.00  0.00    +0.000 A 
ENDROOT
BRANCH   5   7
ATOM      7  N   UNL     1       3.284   5.898  20.107  0.00  0.00    +0.000 N 
ATOM      8  C   UNL     1       4.517   5.481  19.383  0.00  0.00    +0.000 C 
ATOM      9  C   UNL     1       4.086   4.203  18.734  0.00  0.00    +0.000 A 
ATOM     10  C   UNL     1       3.067   3.664  19.530  0.00  0.00    +0.000 A 
ATOM     11  C   UNL     1       2.314   2.567  19.138  0.00  0.00    +0.000 A 
ATOM     12  C   UNL     1       2.601   2.004  17.896  0.00  0.00    +0.000 A 
ATOM     13  C   UNL     1       3.615   2.546  17.081  0.00  0.00    +0.000 A 
ATOM     14  C   UNL     1       4.381   3.659  17.488  0.00  0.00    +0.000 A 
ATOM     15  C   UNL     1       2.669   4.682  20.518  0.00  0.00    +0.000 C 
ATOM     16  O   UNL     1       1.805   4.525  21.358  0.00  0.00    +0.000 OA
BRANCH  14  17
ATOM     17  C   UNL     1       5.380   4.257  16.529  0.00  0.00    +0.000 C 
ATOM     18  F   UNL     1       5.694   3.455  15.477  0.00  0.00    +0.000 F 
ATOM     19  F   UNL     1       4.933   5.422  15.982  0.00  0.00    +0.000 F 
ATOM     20  F   UNL     1       6.564   4.559  17.131  0.00  0.00    +0.000 F 
ENDBRANCH  14  17
ENDBRANCH   5   7
BRANCH   1  21
ATOM     21  C   UNL     1       0.731  10.021  20.083  0.00  0.00    +0.000 C 
BRANCH  21  22
ATOM     22  C   UNL     1       0.065  11.041  19.164  0.00  0.00    +0.000 C 
BRANCH  22  23
ATOM     23  O   UNL     1      -1.161  10.497  18.651  0.00  0.00    +0.000 OA
BRANCH  23  24
ATOM     24  C   UNL     1      -1.896  11.466  17.918  0.00  0.00    +0.000 C 
BRANCH  24  30
ATOM     25  C   UNL     1      -4.966  11.361  17.053  0.00  0.00    +0.000 C 
ATOM     26  N   UNL     1      -4.419  11.824  18.299  0.00  0.00    +0.000 N 
ATOM     27  C   UNL     1      -5.154  12.339  19.334  0.00  0.00    +0.000 A 
ATOM     28  N   UNL     1      -4.352  12.682  20.312  0.00  0.00    +0.000 NA
ATOM     29  N   UNL     1      -3.073  12.394  19.923  0.00  0.00    +0.000 NA
ATOM     30  C   UNL     1      -3.108  11.868  18.704  0.00  0.00    +0.000 A 
ENDBRANCH  24  30
BRANCH  24  31
ATOM     31  N   UNL     1      -1.050  12.631  17.688  0.00  0.00    +0.000 NA
ATOM     32  H   UNL     1      -1.207  12.893  16.715  0.00  0.00    +0.000 HD
ATOM     33  H   UNL     1      -0.084  12.289  17.693  0.00  0.00    +0.000 HD
ENDBRANCH  24  31
ENDBRANCH  23  24
ENDBRANCH  22  23
ENDBRANCH  21  22
ENDBRANCH   1  21
TORSDOF 8
ENDMDL
MODEL 7
REMARK VINA RESULT:      -7.9      3.561      4.430
REMARK  Name = 
REMARK  9 active torsions:
REMARK  status: ('A' for Active; 'I' for Inactive)
REMARK    1  A    between atoms: C_1  and  N_2
REMARK    2  A    between atoms: C_6  and  C_7
REMARK    3  A    between atoms: C_7  and  N_8
REMARK    4  A    between atoms: C_7  and  O_9
REMARK    5  A    between atoms: O_9  and  C_10
REMARK    6  A    between atoms: C_10  and  C_11
REMARK    7  A    between atoms: C_11  and  C_12
REMARK    8  A    between atoms: C_16  and  N_17
REMARK    9  A    between atoms: C_24  and  C_25
REMARK                            x       y       z     vdW  Elec       q    Type
REMARK                         _______ _______ _______ _____ _____    ______ ____
ROOT
ATOM      1  C   UNL     1       1.936   8.991  18.488  0.00  0.00    +0.000 A 
ATOM      2  C   UNL     1       1.476   8.622  19.759  0.00  0.00    +0.000 A 
ATOM      3  C   UNL     1       1.927   7.454  20.360  0.00  0.00    +0.000 A 
ATOM      4  C   UNL     1       2.732   6.578  19.644  0.00  0.00    +0.000 A 
ATOM      5  C   UNL     1       2.961   6.813  18.276  0.00  0.00    +0.000 A 
ATOM      6  C   UNL     1       2.709   8.084  17.756  0.00  0.00    +0.000 A 
ENDROOT
BRANCH   5   7
ATOM      7  N   UNL     1       2.962   5.692  17.350  0.00  0.00    +0.000 N 
ATOM      8  C   UNL     1       1.920   4.702  17.740  0.00  0.00    +0.000 C 
ATOM      9  C   UNL     1       2.680   3.785  18.647  0.00  0.00    +0.000 A 
ATOM     10  C   UNL     1       4.023   3.840  18.253  0.00  0.00    +0.000 A 
ATOM     11  C   UNL     1       5.041   3.246  18.983  0.00  0.00    +0.000 A 
ATOM     12  C   UNL     1       4.685   2.581  20.155  0.00  0.00    +0.000 A 
ATOM     13  C   UNL     1       3.338   2.530  20.568  0.00  0.00    +0.000 A 
ATOM     14  C   UNL     1       2.306   3.131  19.816  0.00  0.00    +0.000 A 
ATOM     15  C   UNL     1       4.174   4.950  17.295  0.00  0.00    +0.000 C 
ATOM     16  O   UNL     1       5.222   5.262  16.764  0.00  0.00    +0.000 OA
BRANCH  14  17
ATOM     17  C   UNL     1       0.901   3.132  20.364  0.00  0.00    +0.000 C 
ATOM     18  F   UNL     1       0.364   4.371  20.526  0.00  0.00    +0.000 F 
ATOM     19  F   UNL     1       0.034   2.459  19.557  0.00  0.00    +0.000 F 
ATOM     20  F   UNL     1       0.817   2.530  21.584  0.00  0.00    +0.000 F 
ENDBRANCH  14  17
ENDBRANCH   5   7
BRANCH   1  21
ATOM     21  C   UNL     1       1.509  10.292  17.854  0.00  0.00    +0.000 C 
BRANCH  21  22
ATOM     22  C   UNL     1       1.654  11.479  18.801  0.00  0.00    +0.000 C 
BRANCH  22  23
ATOM     23  O   UNL     1       0.362  11.853  19.304  0.00  0.00    +0.000 OA
BRANCH  23  24
ATOM     24  C   UNL     1       0.466  12.590  20.513  0.00  0.00    +0.000 C 
BRANCH  24  30
ATOM     25  C   UNL     1      -2.440  12.903  21.793  0.00  0.00    +0.000 C 
ATOM     26  N   UNL     1      -1.411  11.973  22.168  0.00  0.00    +0.000 N 
ATOM     27  C   UNL     1      -1.509  11.064  23.188  0.00  0.00    +0.000 A 
ATOM     28  N   UNL     1      -0.392  10.383  23.277  0.00  0.00    +0.000 NA
ATOM     29  N   UNL     1       0.456  10.845  22.308  0.00  0.00    +0.000 NA
ATOM     30  C   UNL     1      -0.159  11.805  21.627  0.00  0.00    +0.000 A 
ENDBRANCH  24  30
BRANCH  24  31
ATOM     31  N   UNL     1       1.874  12.826  20.807  0.00  0.00    +0.000 NA
ATOM     32  H   UNL     1       2.010  12.506  21.765  0.00  0.00    +0.000 HD
ATOM     33  H   UNL     1       1.986  13.843  20.874  0.00  0.00    +0.000 HD
ENDBRANCH  24  31
ENDBRANCH  23  24
ENDBRANCH  22  23
ENDBRANCH  21  22
ENDBRANCH   1  21
TORSDOF 8
ENDMDL
MODEL 8
REMARK VINA RESULT:      -7.9      8.039     11.245
REMARK  Name = 
REMARK  9 active torsions:
REMARK  status: ('A' for Active; 'I' for Inactive)
REMARK    1  A    between atoms: C_1  and  N_2
REMARK    2  A    between atoms: C_6  and  C_7
REMARK    3  A    between atoms: C_7  and  N_8
REMARK    4  A    between atoms: C_7  and  O_9
REMARK    5  A    between atoms: O_9  and  C_10
REMARK    6  A    between atoms: C_10  and  C_11
REMARK    7  A    between atoms: C_11  and  C_12
REMARK    8  A    between atoms: C_16  and  N_17
REMARK    9  A    between atoms: C_24  and  C_25
REMARK                            x       y       z     vdW  Elec       q    Type
REMARK                         _______ _______ _______ _____ _____    ______ ____
ROOT
ATOM      1  C   UNL     1       9.081  10.806  18.262  0.00  0.00    +0.000 A 
ATOM      2  C   UNL     1       8.141  11.663  17.676  0.00  0.00    +0.000 A 
ATOM      3  C   UNL     1       8.476  12.978  17.378  0.00  0.00    +0.000 A 
ATOM      4  C   UNL     1       9.702  13.486  17.787  0.00  0.00    +0.000 A 
ATOM      5  C   UNL     1      10.527  12.710  18.620  0.00  0.00    +0.000 A 
ATOM      6  C   UNL     1      10.296  11.336  18.712  0.00  0.00    +0.000 A 
ENDROOT
BRANCH   5   7
ATOM      7  N   UNL     1      11.239  13.349  19.715  0.00  0.00    +0.000 N 
ATOM      8  C   UNL     1      10.816  12.762  21.017  0.00  0.00    +0.000 C 
ATOM      9  C   UNL     1       9.678  13.653  21.408  0.00  0.00    +0.000 A 
ATOM     10  C   UNL     1       9.908  14.898  20.809  0.00  0.00    +0.000 A 
ATOM     11  C   UNL     1       8.966  15.916  20.817  0.00  0.00    +0.000 A 
ATOM     12  C   UNL     1       7.750  15.659  21.448  0.00  0.00    +0.000 A 
ATOM     13  C   UNL     1       7.503  14.406  22.043  0.00  0.00    +0.000 A 
ATOM     14  C   UNL     1       8.468  13.376  22.036  0.00  0.00    +0.000 A 
ATOM     15  C   UNL     1      11.016  14.748  19.850  0.00  0.00    +0.000 C 
ATOM     16  O   UNL     1      11.460  15.649  19.166  0.00  0.00    +0.000 OA
BRANCH  14  17
ATOM     17  C   UNL     1       8.105  12.023  22.597  0.00  0.00    +0.000 C 
ATOM     18  F   UNL     1       6.779  11.862  22.854  0.00  0.00    +0.000 F 
ATOM     19  F   UNL     1       8.441  11.010  21.751  0.00  0.00    +0.000 F 
ATOM     20  F   UNL     1       8.746  11.758  23.770  0.00  0.00    +0.000 F 
ENDBRANCH  14  17
ENDBRANCH   5   7
BRANCH   1  21
ATOM     21  C   UNL     1       8.755   9.357  18.525  0.00  0.00    +0.000 C 
BRANCH  21  22
ATOM     22  C   UNL     1       7.538   8.880  17.739  0.00  0.00    +0.000 C 
BRANCH  22  23
ATOM     23  O   UNL     1       7.846   7.643  17.079  0.00  0.00    +0.000 OA
BRANCH  23  24
ATOM     24  C   UNL     1       7.044   6.577  17.566  0.00  0.00    +0.000 C 
BRANCH  24  30
ATOM     25  C   UNL     1       4.991   4.135  17.477  0.00  0.00    +0.000 C 
ATOM     26  N   UNL     1       5.918   4.541  16.457  0.00  0.00    +0.000 N 
ATOM     27  C   UNL     1       6.093   3.903  15.257  0.00  0.00    +0.000 A 
ATOM     28  N   UNL     1       7.024   4.516  14.567  0.00  0.00    +0.000 NA
ATOM     29  N   UNL     1       7.473   5.569  15.316  0.00  0.00    +0.000 NA
ATOM     30  C   UNL     1       6.801   5.593  16.461  0.00  0.00    +0.000 A 
ENDBRANCH  24  30
BRANCH  24  31
ATOM     31  N   UNL     1       7.741   5.920  18.666  0.00  0.00    +0.000 NA
ATOM     32  H   UNL     1       7.429   6.399  19.510  0.00  0.00    +0.000 HD
ATOM     33  H   UNL     1       8.725   6.191  18.583  0.00  0.00    +0.000 HD
ENDBRANCH  24  31
ENDBRANCH  23  24
ENDBRANCH  22  23
ENDBRANCH  21  22
ENDBRANCH   1  21
TORSDOF 8
ENDMDL
MODEL 9
REMARK VINA RESULT:      -7.9      2.692      3.633
REMARK  Name = 
REMARK  9 active torsions:
REMARK  status: ('A' for Active; 'I' for Inactive)
REMARK    1  A    between atoms: C_1  and  N_2
REMARK    2  A    between atoms: C_6  and  C_7
REMARK    3  A    between atoms: C_7  and  N_8
REMARK    4  A    between atoms: C_7  and  O_9
REMARK    5  A    between atoms: O_9  and  C_10
REMARK    6  A    between atoms: C_10  and  C_11
REMARK    7  A    between atoms: C_11  and  C_12
REMARK    8  A    between atoms: C_16  and  N_17
REMARK    9  A    between atoms: C_24  and  C_25
REMARK                            x       y       z     vdW  Elec       q    Type
REMARK                         _______ _______ _______ _____ _____    ______ ____
ROOT
ATOM      1  C   UNL     1       1.807   7.482  19.949  0.00  0.00    +0.000 A 
ATOM      2  C   UNL     1       2.304   8.366  18.982  0.00  0.00    +0.000 A 
ATOM      3  C   UNL     1       2.994   7.884  17.876  0.00  0.00    +0.000 A 
ATOM      4  C   UNL     1       3.312   6.535  17.797  0.00  0.00    +0.000 A 
ATOM      5  C   UNL     1       3.060   5.700  18.900  0.00  0.00    +0.000 A 
ATOM      6  C   UNL     1       2.170   6.132  19.885  0.00  0.00    +0.000 A 
ENDROOT
BRANCH   5   7
ATOM      7  N   UNL     1       4.038   4.689  19.269  0.00  0.00    +0.000 N 
ATOM      8  C   UNL     1       5.398   5.292  19.342  0.00  0.00    +0.000 C 
ATOM      9  C   UNL     1       5.907   5.089  17.948  0.00  0.00    +0.000 A 
ATOM     10  C   UNL     1       5.250   3.965  17.432  0.00  0.00    +0.000 A 
ATOM     11  C   UNL     1       5.351   3.587  16.102  0.00  0.00    +0.000 A 
ATOM     12  C   UNL     1       6.137   4.380  15.268  0.00  0.00    +0.000 A 
ATOM     13  C   UNL     1       6.792   5.520  15.774  0.00  0.00    +0.000 A 
ATOM     14  C   UNL     1       6.691   5.896  17.130  0.00  0.00    +0.000 A 
ATOM     15  C   UNL     1       4.163   3.604  18.358  0.00  0.00    +0.000 C 
ATOM     16  O   UNL     1       3.403   2.669  18.196  0.00  0.00    +0.000 OA
BRANCH  14  17
ATOM     17  C   UNL     1       7.329   7.184  17.587  0.00  0.00    +0.000 C 
ATOM     18  F   UNL     1       8.057   7.073  18.731  0.00  0.00    +0.000 F 
ATOM     19  F   UNL     1       8.184   7.693  16.657  0.00  0.00    +0.000 F 
ATOM     20  F   UNL     1       6.412   8.163  17.825  0.00  0.00    +0.000 F 
ENDBRANCH  14  17
ENDBRANCH   5   7
BRANCH   1  21
ATOM     21  C   UNL     1       0.995   7.984  21.116  0.00  0.00    +0.000 C 
BRANCH  21  22
ATOM     22  C   UNL     1       1.733   9.043  21.930  0.00  0.00    +0.000 C 
BRANCH  22  23
ATOM     23  O   UNL     1       0.787   9.972  22.480  0.00  0.00    +0.000 OA
BRANCH  23  24
ATOM     24  C   UNL     1       0.311  10.877  21.493  0.00  0.00    +0.000 C 
BRANCH  24  30
ATOM     25  C   UNL     1      -2.041  12.193  19.784  0.00  0.00    +0.000 C 
ATOM     26  N   UNL     1      -1.949  12.085  21.214  0.00  0.00    +0.000 N 
ATOM     27  C   UNL     1      -2.874  12.573  22.098  0.00  0.00    +0.000 A 
ATOM     28  N   UNL     1      -2.482  12.325  23.324  0.00  0.00    +0.000 NA
ATOM     29  N   UNL     1      -1.285  11.666  23.253  0.00  0.00    +0.000 NA
ATOM     30  C   UNL     1      -0.959  11.512  21.975  0.00  0.00    +0.000 A 
ENDBRANCH  24  30
BRANCH  24  31
ATOM     31  N   UNL     1       1.319  11.904  21.263  0.00  0.00    +0.000 NA
ATOM     32  H   UNL     1       0.957  12.746  21.710  0.00  0.00    +0.000 HD
ATOM     33  H   UNL     1       1.280  12.124  20.263  0.00  0.00    +0.000 HD
ENDBRANCH  24  31
ENDBRANCH  23  24
ENDBRANCH  22  23
ENDBRANCH  21  22
ENDBRANCH   1  21
TORSDOF 8
ENDMDL
