MODEL 1
REMARK VINA RESULT:      -8.2      0.000      0.000
REMARK  Name = 
REMARK  5 active torsions:
REMARK  status: ('A' for Active; 'I' for Inactive)
REMARK    1  A    between atoms: C_1  and  C_2
REMARK    2  A    between atoms: C_3  and  N_4
REMARK    3  A    between atoms: C_5  and  C_7
REMARK    4  A    between atoms: C_10  and  N_11
REMARK    5  A    between atoms: N_21  and  C_22
REMARK                            x       y       z     vdW  Elec       q    Type
REMARK                         _______ _______ _______ _____ _____    ______ ____
ROOT
ATOM      1  N   UNL     1       1.093   9.218  20.163  0.00  0.00    +0.000 N 
ATOM      2  C   UNL     1       0.074  10.007  19.666  0.00  0.00    +0.000 C 
ATOM      3  O   UNL     1      -0.366   9.969  18.523  0.00  0.00    +0.000 OA
ATOM      4  H   UNL     1       1.118   9.053  21.160  0.00  0.00    +0.000 HD
ENDROOT
BRANCH   1   7
ATOM      5  C   UNL     1       1.581   6.231  20.838  0.00  0.00    +0.000 C 
ATOM      6  C   UNL     1       2.022   7.011  19.654  0.00  0.00    +0.000 A 
ATOM      7  C   UNL     1       1.788   8.339  19.354  0.00  0.00    +0.000 A 
ATOM      8  C   UNL     1       2.406   8.554  18.113  0.00  0.00    +0.000 A 
ATOM      9  N   UNL     1       3.057   7.475  17.682  0.00  0.00    +0.000 NA
ATOM     10  N   UNL     1       2.752   6.497  18.573  0.00  0.00    +0.000 N 
BRANCH  10  11
ATOM     11  C   UNL     1       3.126   5.152  18.295  0.00  0.00    +0.000 A 
ATOM     12  C   UNL     1       4.387   4.654  18.654  0.00  0.00    +0.000 A 
ATOM     13  C   UNL     1       4.729   3.325  18.382  0.00  0.00    +0.000 A 
ATOM     14  C   UNL     1       3.818   2.479  17.757  0.00  0.00    +0.000 A 
ATOM     15  C   UNL     1       2.556   2.958  17.414  0.00  0.00    +0.000 A 
ATOM     16  C   UNL     1       2.208   4.284  17.690  0.00  0.00    +0.000 A 
ATOM     17  F   UNL     1       1.000   4.696  17.287  0.00  0.00    +0.000 F 
ENDBRANCH  10  11
ENDBRANCH   1   7
BRANCH   2  18
ATOM     18  C   UNL     1      -0.590  10.874  20.675  0.00  0.00    +0.000 A 
ATOM     19  C   UNL     1      -1.353  11.978  20.282  0.00  0.00    +0.000 A 
ATOM     20  C   UNL     1      -2.013  12.745  21.249  0.00  0.00    +0.000 A 
ATOM     21  C   UNL     1      -1.901  12.446  22.613  0.00  0.00    +0.000 A 
ATOM     22  C   UNL     1      -1.120  11.343  22.990  0.00  0.00    +0.000 A 
ATOM     23  C   UNL     1      -0.482  10.553  22.027  0.00  0.00    +0.000 A 
BRANCH  21  24
ATOM     24  N   UNL     1      -2.538  13.244  23.591  0.00  0.00    +0.000 N 
ATOM     25  C   UNL     1      -2.018  14.514  24.053  0.00  0.00    +0.000 C 
ATOM     26  C   UNL     1      -3.216  15.146  24.747  0.00  0.00    +0.000 C 
ATOM     27  N   UNL     1      -4.010  14.017  25.120  0.00  0.00    +0.000 N 
ATOM     28  C   UNL     1      -3.713  12.930  24.301  0.00  0.00    +0.000 C 
ATOM     29  O   UNL     1      -4.403  11.925  24.263  0.00  0.00    +0.000 OA
ATOM     30  H   UNL     1      -4.919  14.046  25.573  0.00  0.00    +0.000 HD
ENDBRANCH  21  24
ENDBRANCH   2  18
TORSDOF 4
ENDMDL
MODEL 2
REMARK VINA RESULT:      -8.1      0.910      1.285
REMARK  Name = 
REMARK  5 active torsions:
REMARK  status: ('A' for Active; 'I' for Inactive)
REMARK    1  A    between atoms: C_1  and  C_2
REMARK    2  A    between atoms: C_3  and  N_4
REMARK    3  A    between atoms: C_5  and  C_7
REMARK    4  A    between atoms: C_10  and  N_11
REMARK    5  A    between atoms: N_21  and  C_22
REMARK                            x       y       z     vdW  Elec       q    Type
REMARK                         _______ _______ _______ _____ _____    ______ ____
ROOT
ATOM      1  N   UNL     1       1.038   9.319  20.181  0.00  0.00    +0.000 N 
ATOM      2  C   UNL     1      -0.007  10.069  19.678  0.00  0.00    +0.000 C 
ATOM      3  O   UNL     1      -0.470   9.979  18.547  0.00  0.00    +0.000 OA
ATOM      4  H   UNL     1       1.087   9.193  21.183  0.00  0.00    +0.000 HD
ENDROOT
BRANCH   1   7
ATOM      5  C   UNL     1       1.453   6.327  20.880  0.00  0.00    +0.000 C 
ATOM      6  C   UNL     1       1.934   7.092  19.703  0.00  0.00    +0.000 A 
ATOM      7  C   UNL     1       1.732   8.423  19.391  0.00  0.00    +0.000 A 
ATOM      8  C   UNL     1       2.380   8.619  18.162  0.00  0.00    +0.000 A 
ATOM      9  N   UNL     1       3.018   7.526  17.750  0.00  0.00    +0.000 NA
ATOM     10  N   UNL     1       2.676   6.558  18.640  0.00  0.00    +0.000 N 
BRANCH  10  11
ATOM     11  C   UNL     1       3.030   5.205  18.376  0.00  0.00    +0.000 A 
ATOM     12  C   UNL     1       2.198   4.365  17.622  0.00  0.00    +0.000 A 
ATOM     13  C   UNL     1       2.571   3.041  17.364  0.00  0.00    +0.000 A 
ATOM     14  C   UNL     1       3.777   2.544  17.849  0.00  0.00    +0.000 A 
ATOM     15  C   UNL     1       4.619   3.377  18.582  0.00  0.00    +0.000 A 
ATOM     16  C   UNL     1       4.253   4.702  18.836  0.00  0.00    +0.000 A 
ATOM     17  F   UNL     1       5.083   5.431  19.592  0.00  0.00    +0.000 F 
ENDBRANCH  10  11
ENDBRANCH   1   7
BRANCH   2  18
ATOM     18  C   UNL     1      -0.667  10.961  20.667  0.00  0.00    +0.000 A 
ATOM     19  C   UNL     1      -1.441  12.049  20.249  0.00  0.00    +0.000 A 
ATOM     20  C   UNL     1      -2.096  12.840  21.200  0.00  0.00    +0.000 A 
ATOM     21  C   UNL     1      -1.967  12.582  22.572  0.00  0.00    +0.000 A 
ATOM     22  C   UNL     1      -1.176  11.496  22.972  0.00  0.00    +0.000 A 
ATOM     23  C   UNL     1      -0.542  10.682  22.027  0.00  0.00    +0.000 A 
BRANCH  21  24
ATOM     24  N   UNL     1      -2.600  13.405  23.531  0.00  0.00    +0.000 N 
ATOM     25  C   UNL     1      -2.114  14.716  23.909  0.00  0.00    +0.000 C 
ATOM     26  C   UNL     1      -3.310  15.337  24.616  0.00  0.00    +0.000 C 
ATOM     27  N   UNL     1      -4.045  14.200  25.076  0.00  0.00    +0.000 N 
ATOM     28  C   UNL     1      -3.735  13.084  24.301  0.00  0.00    +0.000 C 
ATOM     29  O   UNL     1      -4.385  12.053  24.340  0.00  0.00    +0.000 OA
ATOM     30  H   UNL     1      -4.937  14.218  25.561  0.00  0.00    +0.000 HD
ENDBRANCH  21  24
ENDBRANCH   2  18
TORSDOF 4
ENDMDL
MODEL 3
REMARK VINA RESULT:      -8.1      0.475      1.023
REMARK  Name = 
REMARK  5 active torsions:
REMARK  status: ('A' for Active; 'I' for Inactive)
REMARK    1  A    between atoms: C_1  and  C_2
REMARK    2  A    between atoms: C_3  and  N_4
REMARK    3  A    between atoms: C_5  and  C_7
REMARK    4  A    between atoms: C_10  and  N_11
REMARK    5  A    between atoms: N_21  and  C_22
REMARK                            x       y       z     vdW  Elec       q    Type
REMARK                         _______ _______ _______ _____ _____    ______ ____
ROOT
ATOM      1  N   UNL     1       0.993   9.560  19.967  0.00  0.00    +0.000 N 
ATOM      2  C   UNL     1      -0.157  10.181  19.519  0.00  0.00    +0.000 C 
ATOM      3  O   UNL     1      -0.680  10.011  18.424  0.00  0.00    +0.000 OA
ATOM      4  H   UNL     1       1.120   9.468  20.966  0.00  0.00    +0.000 HD
ENDROOT
BRANCH   1   7
ATOM      5  C   UNL     1       1.760   6.644  20.688  0.00  0.00    +0.000 C 
ATOM      6  C   UNL     1       2.087   7.428  19.470  0.00  0.00    +0.000 A 
ATOM      7  C   UNL     1       1.728   8.723  19.150  0.00  0.00    +0.000 A 
ATOM      8  C   UNL     1       2.277   8.957  17.881  0.00  0.00    +0.000 A 
ATOM      9  N   UNL     1       3.001   7.926  17.448  0.00  0.00    +0.000 NA
ATOM     10  N   UNL     1       2.816   6.949  18.373  0.00  0.00    +0.000 N 
BRANCH  10  11
ATOM     11  C   UNL     1       3.292   5.634  18.110  0.00  0.00    +0.000 A 
ATOM     12  C   UNL     1       4.632   5.283  18.331  0.00  0.00    +0.000 A 
ATOM     13  C   UNL     1       5.077   3.981  18.077  0.00  0.00    +0.000 A 
ATOM     14  C   UNL     1       4.191   3.016  17.608  0.00  0.00    +0.000 A 
ATOM     15  C   UNL     1       2.854   3.349  17.404  0.00  0.00    +0.000 A 
ATOM     16  C   UNL     1       2.404   4.647  17.662  0.00  0.00    +0.000 A 
ATOM     17  F   UNL     1       1.121   4.915  17.394  0.00  0.00    +0.000 F 
ENDBRANCH  10  11
ENDBRANCH   1   7
BRANCH   2  18
ATOM     18  C   UNL     1      -0.845  11.023  20.532  0.00  0.00    +0.000 A 
ATOM     19  C   UNL     1      -0.595  10.854  21.898  0.00  0.00    +0.000 A 
ATOM     20  C   UNL     1      -1.215  11.698  22.827  0.00  0.00    +0.000 A 
ATOM     21  C   UNL     1      -2.110  12.695  22.417  0.00  0.00    +0.000 A 
ATOM     22  C   UNL     1      -2.360  12.840  21.045  0.00  0.00    +0.000 A 
ATOM     23  C   UNL     1      -1.721  12.021  20.108  0.00  0.00    +0.000 A 
BRANCH  21  24
ATOM     24  N   UNL     1      -2.764  13.521  23.360  0.00  0.00    +0.000 N 
ATOM     25  C   UNL     1      -2.386  14.894  23.622  0.00  0.00    +0.000 C 
ATOM     26  C   UNL     1      -3.594  15.450  24.361  0.00  0.00    +0.000 C 
ATOM     27  N   UNL     1      -4.189  14.285  24.938  0.00  0.00    +0.000 N 
ATOM     28  C   UNL     1      -3.817  13.151  24.218  0.00  0.00    +0.000 C 
ATOM     29  O   UNL     1      -4.362  12.070  24.364  0.00  0.00    +0.000 OA
ATOM     30  H   UNL     1      -5.049  14.254  25.477  0.00  0.00    +0.000 HD
ENDBRANCH  21  24
ENDBRANCH   2  18
TORSDOF 4
ENDMDL
MODEL 4
REMARK VINA RESULT:      -7.9      3.795     10.030
REMARK  Name = 
REMARK  5 active torsions:
REMARK  status: ('A' for Active; 'I' for Inactive)
REMARK    1  A    between atoms: C_1  and  C_2
REMARK    2  A    between atoms: C_3  and  N_4
REMARK    3  A    between atoms: C_5  and  C_7
REMARK    4  A    between atoms: C_10  and  N_11
REMARK    5  A    between atoms: N_21  and  C_22
REMARK                            x       y       z     vdW  Elec       q    Type
REMARK                         _______ _______ _______ _____ _____    ______ ____
ROOT
ATOM      1  N   UNL     1       0.109   9.860  18.371  0.00  0.00    +0.000 N 
ATOM      2  C   UNL     1       0.794   9.254  19.406  0.00  0.00    +0.000 C 
ATOM      3  O   UNL     1       0.551   9.390  20.600  0.00  0.00    +0.000 OA
ATOM      4  H   UNL     1       0.126   9.408  17.467  0.00  0.00    +0.000 HD
ENDROOT
BRANCH   1   7
ATOM      5  C   UNL     1      -2.866   9.419  17.616  0.00  0.00    +0.000 C 
ATOM      6  C   UNL     1      -2.224  10.592  18.261  0.00  0.00    +0.000 A 
ATOM      7  C   UNL     1      -0.899  10.774  18.608  0.00  0.00    +0.000 A 
ATOM      8  C   UNL     1      -0.843  12.043  19.205  0.00  0.00    +0.000 A 
ATOM      9  N   UNL     1      -2.019  12.665  19.175  0.00  0.00    +0.000 NA
ATOM     10  N   UNL     1      -2.893  11.750  18.682  0.00  0.00    +0.000 N 
BRANCH  10  11
ATOM     11  C   UNL     1      -4.289  12.026  18.707  0.00  0.00    +0.000 A 
ATOM     12  C   UNL     1      -4.967  12.259  19.913  0.00  0.00    +0.000 A 
ATOM     13  C   UNL     1      -6.337  12.541  19.914  0.00  0.00    +0.000 A 
ATOM     14  C   UNL     1      -7.043  12.601  18.716  0.00  0.00    +0.000 A 
ATOM     15  C   UNL     1      -6.374  12.391  17.512  0.00  0.00    +0.000 A 
ATOM     16  C   UNL     1      -5.004  12.115  17.506  0.00  0.00    +0.000 A 
ATOM     17  F   UNL     1      -4.434  11.871  16.320  0.00  0.00    +0.000 F 
ENDBRANCH  10  11
ENDBRANCH   1   7
BRANCH   2  18
ATOM     18  C   UNL     1       1.826   8.273  18.980  0.00  0.00    +0.000 A 
ATOM     19  C   UNL     1       2.562   8.467  17.807  0.00  0.00    +0.000 A 
ATOM     20  C   UNL     1       3.566   7.556  17.458  0.00  0.00    +0.000 A 
ATOM     21  C   UNL     1       3.831   6.430  18.249  0.00  0.00    +0.000 A 
ATOM     22  C   UNL     1       3.073   6.244  19.414  0.00  0.00    +0.000 A 
ATOM     23  C   UNL     1       2.089   7.166  19.786  0.00  0.00    +0.000 A 
BRANCH  21  24
ATOM     24  N   UNL     1       4.820   5.492  17.875  0.00  0.00    +0.000 N 
ATOM     25  C   UNL     1       4.764   4.710  16.658  0.00  0.00    +0.000 C 
ATOM     26  C   UNL     1       6.189   4.195  16.512  0.00  0.00    +0.000 C 
ATOM     27  N   UNL     1       6.681   4.211  17.855  0.00  0.00    +0.000 N 
ATOM     28  C   UNL     1       5.957   5.124  18.620  0.00  0.00    +0.000 C 
ATOM     29  O   UNL     1       6.318   5.489  19.725  0.00  0.00    +0.000 OA
ATOM     30  H   UNL     1       7.622   3.971  18.152  0.00  0.00    +0.000 HD
ENDBRANCH  21  24
ENDBRANCH   2  18
TORSDOF 4
ENDMDL
MODEL 5
REMARK VINA RESULT:      -7.9      9.127     12.778
REMARK  Name = 
REMARK  5 active torsions:
REMARK  status: ('A' for Active; 'I' for Inactive)
REMARK    1  A    between atoms: C_1  and  C_2
REMARK    2  A    between atoms: C_3  and  N_4
REMARK    3  A    between atoms: C_5  and  C_7
REMARK    4  A    between atoms: C_10  and  N_11
REMARK    5  A    between atoms: N_21  and  C_22
REMARK                            x       y       z     vdW  Elec       q    Type
REMARK                         _______ _______ _______ _____ _____    ______ ____
ROOT
ATOM      1  N   UNL     1       9.521  10.795  17.787  0.00  0.00    +0.000 N 
ATOM      2  C   UNL     1       9.135  10.004  18.851  0.00  0.00    +0.000 C 
ATOM      3  O   UNL     1       9.274  10.284  20.036  0.00  0.00    +0.000 OA
ATOM      4  H   UNL     1       9.039  10.670  16.907  0.00  0.00    +0.000 HD
ENDROOT
BRANCH   1   7
ATOM      5  C   UNL     1       8.195  13.597  17.756  0.00  0.00    +0.000 C 
ATOM      6  C   UNL     1       9.622  13.235  17.950  0.00  0.00    +0.000 A 
ATOM      7  C   UNL     1      10.203  11.982  17.977  0.00  0.00    +0.000 A 
ATOM      8  C   UNL     1      11.566  12.210  18.214  0.00  0.00    +0.000 A 
ATOM      9  N   UNL     1      11.859  13.508  18.257  0.00  0.00    +0.000 NA
ATOM     10  N   UNL     1      10.662  14.145  18.188  0.00  0.00    +0.000 N 
BRANCH  10  11
ATOM     11  C   UNL     1      10.599  15.548  18.412  0.00  0.00    +0.000 A 
ATOM     12  C   UNL     1      10.417  16.076  19.699  0.00  0.00    +0.000 A 
ATOM     13  C   UNL     1      10.370  17.461  19.899  0.00  0.00    +0.000 A 
ATOM     14  C   UNL     1      10.510  18.331  18.822  0.00  0.00    +0.000 A 
ATOM     15  C   UNL     1      10.711  17.816  17.543  0.00  0.00    +0.000 A 
ATOM     16  C   UNL     1      10.765  16.434  17.340  0.00  0.00    +0.000 A 
ATOM     17  F   UNL     1      10.906  16.006  16.080  0.00  0.00    +0.000 F 
ENDBRANCH  10  11
ENDBRANCH   1   7
BRANCH   2  18
ATOM     18  C   UNL     1       8.385   8.777  18.476  0.00  0.00    +0.000 A 
ATOM     19  C   UNL     1       7.466   8.791  17.421  0.00  0.00    +0.000 A 
ATOM     20  C   UNL     1       6.814   7.608  17.053  0.00  0.00    +0.000 A 
ATOM     21  C   UNL     1       7.041   6.410  17.743  0.00  0.00    +0.000 A 
ATOM     22  C   UNL     1       7.954   6.418  18.807  0.00  0.00    +0.000 A 
ATOM     23  C   UNL     1       8.633   7.589  19.161  0.00  0.00    +0.000 A 
BRANCH  21  24
ATOM     24  N   UNL     1       6.353   5.225  17.394  0.00  0.00    +0.000 N 
ATOM     25  C   UNL     1       5.309   4.635  18.205  0.00  0.00    +0.000 C 
ATOM     26  C   UNL     1       4.629   3.670  17.244  0.00  0.00    +0.000 C 
ATOM     27  N   UNL     1       5.654   3.381  16.291  0.00  0.00    +0.000 N 
ATOM     28  C   UNL     1       6.593   4.411  16.270  0.00  0.00    +0.000 C 
ATOM     29  O   UNL     1       7.436   4.516  15.395  0.00  0.00    +0.000 OA
ATOM     30  H   UNL     1       5.559   2.798  15.465  0.00  0.00    +0.000 HD
ENDBRANCH  21  24
ENDBRANCH   2  18
TORSDOF 4
ENDMDL
MODEL 6
REMARK VINA RESULT:      -7.8      2.876     10.196
REMARK  Name = 
REMARK  5 active torsions:
REMARK  status: ('A' for Active; 'I' for Inactive)
REMARK    1  A    between atoms: C_1  and  C_2
REMARK    2  A    between atoms: C_3  and  N_4
REMARK    3  A    between atoms: C_5  and  C_7
REMARK    4  A    between atoms: C_10  and  N_11
REMARK    5  A    between atoms: N_21  and  C_22
REMARK                            x       y       z     vdW  Elec       q    Type
REMARK                         _______ _______ _______ _____ _____    ______ ____
ROOT
ATOM      1  N   UNL     1       1.088  10.513  20.844  0.00  0.00    +0.000 N 
ATOM      2  C   UNL     1       0.742   9.839  19.689  0.00  0.00    +0.000 C 
ATOM      3  O   UNL     1      -0.087  10.211  18.867  0.00  0.00    +0.000 OA
ATOM      4  H   UNL     1       2.005  10.339  21.234  0.00  0.00    +0.000 HD
ENDROOT
BRANCH   1   7
ATOM      5  C   UNL     1      -1.041  10.662  23.093  0.00  0.00    +0.000 C 
ATOM      6  C   UNL     1      -0.520  11.744  22.219  0.00  0.00    +0.000 A 
ATOM      7  C   UNL     1       0.441  11.671  21.229  0.00  0.00    +0.000 A 
ATOM      8  C   UNL     1       0.569  12.979  20.739  0.00  0.00    +0.000 A 
ATOM      9  N   UNL     1      -0.296  13.816  21.309  0.00  0.00    +0.000 NA
ATOM     10  N   UNL     1      -0.904  13.090  22.283  0.00  0.00    +0.000 N 
BRANCH  10  11
ATOM     11  C   UNL     1      -1.748  13.744  23.223  0.00  0.00    +0.000 A 
ATOM     12  C   UNL     1      -1.228  14.609  24.196  0.00  0.00    +0.000 A 
ATOM     13  C   UNL     1      -2.077  15.252  25.103  0.00  0.00    +0.000 A 
ATOM     14  C   UNL     1      -3.453  15.044  25.046  0.00  0.00    +0.000 A 
ATOM     15  C   UNL     1      -3.981  14.202  24.070  0.00  0.00    +0.000 A 
ATOM     16  C   UNL     1      -3.136  13.563  23.158  0.00  0.00    +0.000 A 
ATOM     17  F   UNL     1      -3.703  12.726  22.281  0.00  0.00    +0.000 F 
ENDBRANCH  10  11
ENDBRANCH   1   7
BRANCH   2  18
ATOM     18  C   UNL     1       1.557   8.629  19.405  0.00  0.00    +0.000 A 
ATOM     19  C   UNL     1       1.635   7.582  20.329  0.00  0.00    +0.000 A 
ATOM     20  C   UNL     1       2.365   6.430  20.012  0.00  0.00    +0.000 A 
ATOM     21  C   UNL     1       3.049   6.316  18.794  0.00  0.00    +0.000 A 
ATOM     22  C   UNL     1       2.971   7.382  17.886  0.00  0.00    +0.000 A 
ATOM     23  C   UNL     1       2.218   8.524  18.183  0.00  0.00    +0.000 A 
BRANCH  21  24
ATOM     24  N   UNL     1       3.816   5.167  18.493  0.00  0.00    +0.000 N 
ATOM     25  C   UNL     1       3.320   4.054  17.712  0.00  0.00    +0.000 C 
ATOM     26  C   UNL     1       4.590   3.308  17.328  0.00  0.00    +0.000 C 
ATOM     27  N   UNL     1       5.510   3.679  18.358  0.00  0.00    +0.000 N 
ATOM     28  C   UNL     1       5.124   4.889  18.932  0.00  0.00    +0.000 C 
ATOM     29  O   UNL     1       5.854   5.530  19.668  0.00  0.00    +0.000 OA
ATOM     30  H   UNL     1       6.486   3.406  18.417  0.00  0.00    +0.000 HD
ENDBRANCH  21  24
ENDBRANCH   2  18
TORSDOF 4
ENDMDL
MODEL 7
REMARK VINA RESULT:      -7.8      3.799     10.039
REMARK  Name = 
REMARK  5 active torsions:
REMARK  status: ('A' for Active; 'I' for Inactive)
REMARK    1  A    between atoms: C_1  and  C_2
REMARK    2  A    between atoms: C_3  and  N_4
REMARK    3  A    between atoms: C_5  and  C_7
REMARK    4  A    between atoms: C_10  and  N_11
REMARK    5  A    between atoms: N_21  and  C_22
REMARK                            x       y       z     vdW  Elec       q    Type
REMARK                         _______ _______ _______ _____ _____    ______ ____
ROOT
ATOM      1  N   UNL     1      -0.036  10.000  18.484  0.00  0.00    +0.000 N 
ATOM      2  C   UNL     1       0.588   9.325  19.514  0.00  0.00    +0.000 C 
ATOM      3  O   UNL     1       0.256   9.357  20.693  0.00  0.00    +0.000 OA
ATOM      4  H   UNL     1       0.058   9.624  17.549  0.00  0.00    +0.000 HD
ENDROOT
BRANCH   1   7
ATOM      5  C   UNL     1      -2.967   9.490  17.612  0.00  0.00    +0.000 C 
ATOM      6  C   UNL     1      -2.387  10.659  18.320  0.00  0.00    +0.000 A 
ATOM      7  C   UNL     1      -1.082  10.872  18.717  0.00  0.00    +0.000 A 
ATOM      8  C   UNL     1      -1.088  12.119  19.360  0.00  0.00    +0.000 A 
ATOM      9  N   UNL     1      -2.283  12.704  19.312  0.00  0.00    +0.000 NA
ATOM     10  N   UNL     1      -3.109  11.779  18.758  0.00  0.00    +0.000 N 
BRANCH  10  11
ATOM     11  C   UNL     1      -4.513  12.008  18.745  0.00  0.00    +0.000 A 
ATOM     12  C   UNL     1      -5.245  12.130  19.935  0.00  0.00    +0.000 A 
ATOM     13  C   UNL     1      -6.624  12.368  19.900  0.00  0.00    +0.000 A 
ATOM     14  C   UNL     1      -7.284  12.493  18.681  0.00  0.00    +0.000 A 
ATOM     15  C   UNL     1      -6.562  12.394  17.493  0.00  0.00    +0.000 A 
ATOM     16  C   UNL     1      -5.183  12.162  17.525  0.00  0.00    +0.000 A 
ATOM     17  F   UNL     1      -4.560  12.024  16.349  0.00  0.00    +0.000 F 
ENDBRANCH  10  11
ENDBRANCH   1   7
BRANCH   2  18
ATOM     18  C   UNL     1       1.673   8.402  19.089  0.00  0.00    +0.000 A 
ATOM     19  C   UNL     1       2.040   7.310  19.881  0.00  0.00    +0.000 A 
ATOM     20  C   UNL     1       3.027   6.425  19.431  0.00  0.00    +0.000 A 
ATOM     21  C   UNL     1       3.681   6.630  18.208  0.00  0.00    +0.000 A 
ATOM     22  C   UNL     1       3.311   7.739  17.434  0.00  0.00    +0.000 A 
ATOM     23  C   UNL     1       2.303   8.610  17.863  0.00  0.00    +0.000 A 
BRANCH  21  24
ATOM     24  N   UNL     1       4.704   5.756  17.773  0.00  0.00    +0.000 N 
ATOM     25  C   UNL     1       6.110   6.102  17.779  0.00  0.00    +0.000 C 
ATOM     26  C   UNL     1       6.798   4.752  17.632  0.00  0.00    +0.000 C 
ATOM     27  N   UNL     1       5.807   3.949  16.985  0.00  0.00    +0.000 N 
ATOM     28  C   UNL     1       4.537   4.471  17.224  0.00  0.00    +0.000 C 
ATOM     29  O   UNL     1       3.515   3.854  16.977  0.00  0.00    +0.000 OA
ATOM     30  H   UNL     1       5.889   2.963  16.757  0.00  0.00    +0.000 HD
ENDBRANCH  21  24
ENDBRANCH   2  18
TORSDOF 4
ENDMDL
MODEL 8
REMARK VINA RESULT:      -7.8      2.939     10.163
REMARK  Name = 
REMARK  5 active torsions:
REMARK  status: ('A' for Active; 'I' for Inactive)
REMARK    1  A    between atoms: C_1  and  C_2
REMARK    2  A    between atoms: C_3  and  N_4
REMARK    3  A    between atoms: C_5  and  C_7
REMARK    4  A    between atoms: C_10  and  N_11
REMARK    5  A    between atoms: N_21  and  C_22
REMARK                            x       y       z     vdW  Elec       q    Type
REMARK                         _______ _______ _______ _____ _____    ______ ____
ROOT
ATOM      1  N   UNL     1      -0.100   9.925  20.223  0.00  0.00    +0.000 N 
ATOM      2  C   UNL     1       1.013  10.000  19.408  0.00  0.00    +0.000 C 
ATOM      3  O   UNL     1       1.504  11.031  18.963  0.00  0.00    +0.000 OA
ATOM      4  H   UNL     1      -0.190   9.116  20.823  0.00  0.00    +0.000 HD
ENDROOT
BRANCH   1   7
ATOM      5  C   UNL     1      -0.941  10.682  23.109  0.00  0.00    +0.000 C 
ATOM      6  C   UNL     1      -1.225  11.385  21.833  0.00  0.00    +0.000 A 
ATOM      7  C   UNL     1      -0.834  11.048  20.552  0.00  0.00    +0.000 A 
ATOM      8  C   UNL     1      -1.349  12.060  19.728  0.00  0.00    +0.000 A 
ATOM      9  N   UNL     1      -2.084  12.937  20.409  0.00  0.00    +0.000 NA
ATOM     10  N   UNL     1      -1.939  12.585  21.713  0.00  0.00    +0.000 N 
BRANCH  10  11
ATOM     11  C   UNL     1      -2.436  13.445  22.732  0.00  0.00    +0.000 A 
ATOM     12  C   UNL     1      -1.600  14.358  23.392  0.00  0.00    +0.000 A 
ATOM     13  C   UNL     1      -2.112  15.203  24.383  0.00  0.00    +0.000 A 
ATOM     14  C   UNL     1      -3.461  15.152  24.720  0.00  0.00    +0.000 A 
ATOM     15  C   UNL     1      -4.304  14.263  24.057  0.00  0.00    +0.000 A 
ATOM     16  C   UNL     1      -3.797  13.422  23.062  0.00  0.00    +0.000 A 
ATOM     17  F   UNL     1      -4.649  12.555  22.501  0.00  0.00    +0.000 F 
ENDBRANCH  10  11
ENDBRANCH   1   7
BRANCH   2  18
ATOM     18  C   UNL     1       1.706   8.705  19.178  0.00  0.00    +0.000 A 
ATOM     19  C   UNL     1       2.405   8.465  17.991  0.00  0.00    +0.000 A 
ATOM     20  C   UNL     1       3.095   7.259  17.823  0.00  0.00    +0.000 A 
ATOM     21  C   UNL     1       3.074   6.267  18.814  0.00  0.00    +0.000 A 
ATOM     22  C   UNL     1       2.356   6.520  19.991  0.00  0.00    +0.000 A 
ATOM     23  C   UNL     1       1.690   7.736  20.179  0.00  0.00    +0.000 A 
BRANCH  21  24
ATOM     24  N   UNL     1       3.741   5.035  18.627  0.00  0.00    +0.000 N 
ATOM     25  C   UNL     1       3.119   3.868  18.037  0.00  0.00    +0.000 C 
ATOM     26  C   UNL     1       4.306   2.985  17.682  0.00  0.00    +0.000 C 
ATOM     27  N   UNL     1       5.319   3.419  18.593  0.00  0.00    +0.000 N 
ATOM     28  C   UNL     1       5.056   4.720  19.019  0.00  0.00    +0.000 C 
ATOM     29  O   UNL     1       5.877   5.397  19.614  0.00  0.00    +0.000 OA
ATOM     30  H   UNL     1       6.277   3.084  18.629  0.00  0.00    +0.000 HD
ENDBRANCH  21  24
ENDBRANCH   2  18
TORSDOF 4
ENDMDL
MODEL 9
REMARK VINA RESULT:      -7.7      3.853     10.097
REMARK  Name = 
REMARK  5 active torsions:
REMARK  status: ('A' for Active; 'I' for Inactive)
REMARK    1  A    between atoms: C_1  and  C_2
REMARK    2  A    between atoms: C_3  and  N_4
REMARK    3  A    between atoms: C_5  and  C_7
REMARK    4  A    between atoms: C_10  and  N_11
REMARK    5  A    between atoms: N_21  and  C_22
REMARK                            x       y       z     vdW  Elec       q    Type
REMARK                         _______ _______ _______ _____ _____    ______ ____
ROOT
ATOM      1  N   UNL     1       0.380   9.894  18.356  0.00  0.00    +0.000 N 
ATOM      2  C   UNL     1       0.883   9.144  19.400  0.00  0.00    +0.000 C 
ATOM      3  O   UNL     1       0.461   9.148  20.551  0.00  0.00    +0.000 OA
ATOM      4  H   UNL     1       0.527   9.552  17.416  0.00  0.00    +0.000 HD
ENDROOT
BRANCH   1   7
ATOM      5  C   UNL     1      -2.588   9.414  17.599  0.00  0.00    +0.000 C 
ATOM      6  C   UNL     1      -1.954  10.615  18.199  0.00  0.00    +0.000 A 
ATOM      7  C   UNL     1      -0.632  10.815  18.548  0.00  0.00    +0.000 A 
ATOM      8  C   UNL     1      -0.583  12.107  19.093  0.00  0.00    +0.000 A 
ATOM      9  N   UNL     1      -1.761  12.724  19.029  0.00  0.00    +0.000 NA
ATOM     10  N   UNL     1      -2.629  11.787  18.568  0.00  0.00    +0.000 N 
BRANCH  10  11
ATOM     11  C   UNL     1      -4.025  12.060  18.572  0.00  0.00    +0.000 A 
ATOM     12  C   UNL     1      -4.782  12.020  17.392  0.00  0.00    +0.000 A 
ATOM     13  C   UNL     1      -6.157  12.281  17.421  0.00  0.00    +0.000 A 
ATOM     14  C   UNL     1      -6.791  12.577  18.624  0.00  0.00    +0.000 A 
ATOM     15  C   UNL     1      -6.051  12.600  19.804  0.00  0.00    +0.000 A 
ATOM     16  C   UNL     1      -4.679  12.334  19.780  0.00  0.00    +0.000 A 
ATOM     17  F   UNL     1      -4.018  12.425  20.941  0.00  0.00    +0.000 F 
ENDBRANCH  10  11
ENDBRANCH   1   7
BRANCH   2  18
ATOM     18  C   UNL     1       1.947   8.178  19.018  0.00  0.00    +0.000 A 
ATOM     19  C   UNL     1       2.220   7.059  19.811  0.00  0.00    +0.000 A 
ATOM     20  C   UNL     1       3.189   6.136  19.400  0.00  0.00    +0.000 A 
ATOM     21  C   UNL     1       3.918   6.328  18.218  0.00  0.00    +0.000 A 
ATOM     22  C   UNL     1       3.641   7.463  17.443  0.00  0.00    +0.000 A 
ATOM     23  C   UNL     1       2.652   8.374  17.832  0.00  0.00    +0.000 A 
BRANCH  21  24
ATOM     24  N   UNL     1       4.922   5.414  17.824  0.00  0.00    +0.000 N 
ATOM     25  C   UNL     1       4.905   4.696  16.567  0.00  0.00    +0.000 C 
ATOM     26  C   UNL     1       6.336   4.196  16.435  0.00  0.00    +0.000 C 
ATOM     27  N   UNL     1       6.790   4.144  17.790  0.00  0.00    +0.000 N 
ATOM     28  C   UNL     1       6.040   5.013  18.580  0.00  0.00    +0.000 C 
ATOM     29  O   UNL     1       6.368   5.322  19.713  0.00  0.00    +0.000 OA
ATOM     30  H   UNL     1       7.724   3.893  18.101  0.00  0.00    +0.000 HD
ENDBRANCH  21  24
ENDBRANCH   2  18
TORSDOF 4
ENDMDL
