MODEL 1
REMARK VINA RESULT:      -7.6      0.000      0.000
REMARK  Name = 
REMARK  3 active torsions:
REMARK  status: ('A' for Active; 'I' for Inactive)
REMARK    1  A    between atoms: C_2  and  C_22
REMARK    2  A    between atoms: N_3  and  C_4
REMARK    3  A    between atoms: C_10  and  C_11
REMARK                            x       y       z     vdW  Elec       q    Type
REMARK                         _______ _______ _______ _____ _____    ______ ____
ROOT
ATOM      1  C   UNL     1      -2.880  14.005  23.739  0.00  0.00    +0.000 A 
ATOM      2  C   UNL     1      -2.158  14.822  24.623  0.00  0.00    +0.000 A 
ATOM      3  C   UNL     1      -2.680  16.047  25.032  0.00  0.00    +0.000 A 
ATOM      4 CL   UNL     1      -1.780  17.057  26.096  0.00  0.00    +0.000 Cl
ATOM      5  C   UNL     1      -3.922  16.473  24.570  0.00  0.00    +0.000 A 
ATOM      6  C   UNL     1      -4.644  15.671  23.683  0.00  0.00    +0.000 A 
ATOM      7  C   UNL     1      -4.139  14.429  23.267  0.00  0.00    +0.000 A 
ENDROOT
BRANCH   7   8
ATOM      8  C   UNL     1      -4.969  13.530  22.403  0.00  0.00    +0.000 A 
ATOM      9  N   UNL     1      -4.603  13.316  21.163  0.00  0.00    +0.000 NA
ATOM     10  C   UNL     1      -5.372  12.441  20.372  0.00  0.00    +0.000 A 
ATOM     11  C   UNL     1      -4.988  12.212  19.051  0.00  0.00    +0.000 A 
ATOM     12  C   UNL     1      -5.721  11.339  18.240  0.00  0.00    +0.000 A 
ATOM     13  C   UNL     1      -6.844  10.687  18.745  0.00  0.00    +0.000 A 
ATOM     14  C   UNL     1      -7.243  10.908  20.061  0.00  0.00    +0.000 A 
ATOM     15  C   UNL     1      -6.507  11.783  20.862  0.00  0.00    +0.000 A 
ATOM     16  N   UNL     1      -6.900  12.002  22.179  0.00  0.00    +0.000 N 
ATOM     17  C   UNL     1      -6.199  12.826  23.020  0.00  0.00    +0.000 A 
ATOM     18  O   UNL     1      -6.528  12.965  24.188  0.00  0.00    +0.000 OA
ATOM     19  H   UNL     1      -7.703  11.533  22.572  0.00  0.00    +0.000 HD
ENDBRANCH   7   8
BRANCH   1  22
ATOM     20  O   UNL     1      -0.874  13.639  21.724  0.00  0.00    +0.000 OA
ATOM     21  C   UNL     1      -1.382  12.688  22.306  0.00  0.00    +0.000 C 
ATOM     22  N   UNL     1      -2.327  12.774  23.311  0.00  0.00    +0.000 N 
ATOM     23  H   UNL     1      -2.322  12.027  24.009  0.00  0.00    +0.000 HD
BRANCH  21  24
ATOM     24  C   UNL     1      -0.909  11.318  21.986  0.00  0.00    +0.000 A 
ATOM     25  C   UNL     1      -0.789  10.383  23.026  0.00  0.00    +0.000 A 
ATOM     26  C   UNL     1      -0.260   9.119  22.768  0.00  0.00    +0.000 A 
ATOM     27  C   UNL     1       0.157   8.801  21.479  0.00  0.00    +0.000 A 
ATOM     28  F   UNL     1       0.690   7.596  21.237  0.00  0.00    +0.000 F 
ATOM     29  C   UNL     1       0.045   9.722  20.440  0.00  0.00    +0.000 A 
ATOM     30  C   UNL     1      -0.496  10.986  20.690  0.00  0.00    +0.000 A 
ENDBRANCH  21  24
ENDBRANCH   1  22
TORSDOF 3
ENDMDL
MODEL 2
REMARK VINA RESULT:      -7.5      4.180      6.295
REMARK  Name = 
REMARK  3 active torsions:
REMARK  status: ('A' for Active; 'I' for Inactive)
REMARK    1  A    between atoms: C_2  and  C_22
REMARK    2  A    between atoms: N_3  and  C_4
REMARK    3  A    between atoms: C_10  and  C_11
REMARK                            x       y       z     vdW  Elec       q    Type
REMARK                         _______ _______ _______ _____ _____    ______ ____
ROOT
ATOM      1  C   UNL     1      -0.646  13.249  22.262  0.00  0.00    +0.000 A 
ATOM      2  C   UNL     1      -1.337  14.249  22.964  0.00  0.00    +0.000 A 
ATOM      3  C   UNL     1      -2.433  13.920  23.759  0.00  0.00    +0.000 A 
ATOM      4 CL   UNL     1      -3.292  15.152  24.598  0.00  0.00    +0.000 Cl
ATOM      5  C   UNL     1      -2.853  12.597  23.865  0.00  0.00    +0.000 A 
ATOM      6  C   UNL     1      -2.178  11.596  23.163  0.00  0.00    +0.000 A 
ATOM      7  C   UNL     1      -1.065  11.907  22.365  0.00  0.00    +0.000 A 
ENDROOT
BRANCH   7   8
ATOM      8  C   UNL     1      -0.284  10.813  21.705  0.00  0.00    +0.000 A 
ATOM      9  N   UNL     1      -0.102  10.848  20.408  0.00  0.00    +0.000 NA
ATOM     10  C   UNL     1       0.664   9.833  19.804  0.00  0.00    +0.000 A 
ATOM     11  C   UNL     1       0.859   9.865  18.423  0.00  0.00    +0.000 A 
ATOM     12  C   UNL     1       1.625   8.880  17.791  0.00  0.00    +0.000 A 
ATOM     13  C   UNL     1       2.206   7.856  18.537  0.00  0.00    +0.000 A 
ATOM     14  C   UNL     1       2.018   7.808  19.916  0.00  0.00    +0.000 A 
ATOM     15  C   UNL     1       1.249   8.793  20.538  0.00  0.00    +0.000 A 
ATOM     16  N   UNL     1       1.065   8.751  21.917  0.00  0.00    +0.000 N 
ATOM     17  C   UNL     1       0.345   9.708  22.583  0.00  0.00    +0.000 A 
ATOM     18  O   UNL     1       0.239   9.684  23.800  0.00  0.00    +0.000 OA
ATOM     19  H   UNL     1       1.484   8.026  22.480  0.00  0.00    +0.000 HD
ENDBRANCH   7   8
BRANCH   1  22
ATOM     20  O   UNL     1      -0.774  14.484  19.678  0.00  0.00    +0.000 OA
ATOM     21  C   UNL     1       0.295  14.166  20.187  0.00  0.00    +0.000 C 
ATOM     22  N   UNL     1       0.451  13.600  21.438  0.00  0.00    +0.000 N 
ATOM     23  H   UNL     1       1.321  13.810  21.930  0.00  0.00    +0.000 HD
BRANCH  21  24
ATOM     24  C   UNL     1       1.552  14.473  19.461  0.00  0.00    +0.000 A 
ATOM     25  C   UNL     1       1.836  15.807  19.133  0.00  0.00    +0.000 A 
ATOM     26  C   UNL     1       2.965  16.112  18.371  0.00  0.00    +0.000 A 
ATOM     27  C   UNL     1       3.792  15.083  17.931  0.00  0.00    +0.000 A 
ATOM     28  F   UNL     1       4.860  15.374  17.177  0.00  0.00    +0.000 F 
ATOM     29  C   UNL     1       3.518  13.755  18.249  0.00  0.00    +0.000 A 
ATOM     30  C   UNL     1       2.397  13.445  19.023  0.00  0.00    +0.000 A 
ENDBRANCH  21  24
ENDBRANCH   1  22
TORSDOF 3
ENDMDL
MODEL 3
REMARK VINA RESULT:      -7.4      4.358      6.578
REMARK  Name = 
REMARK  3 active torsions:
REMARK  status: ('A' for Active; 'I' for Inactive)
REMARK    1  A    between atoms: C_2  and  C_22
REMARK    2  A    between atoms: N_3  and  C_4
REMARK    3  A    between atoms: C_10  and  C_11
REMARK                            x       y       z     vdW  Elec       q    Type
REMARK                         _______ _______ _______ _____ _____    ______ ____
ROOT
ATOM      1  C   UNL     1      -0.279  13.176  21.814  0.00  0.00    +0.000 A 
ATOM      2  C   UNL     1      -0.934  14.257  22.426  0.00  0.00    +0.000 A 
ATOM      3  C   UNL     1      -2.018  14.033  23.272  0.00  0.00    +0.000 A 
ATOM      4 CL   UNL     1      -2.833  15.362  24.001  0.00  0.00    +0.000 Cl
ATOM      5  C   UNL     1      -2.462  12.737  23.520  0.00  0.00    +0.000 A 
ATOM      6  C   UNL     1      -1.823  11.657  22.908  0.00  0.00    +0.000 A 
ATOM      7  C   UNL     1      -0.724  11.861  22.059  0.00  0.00    +0.000 A 
ENDROOT
BRANCH   7   8
ATOM      8  C   UNL     1       0.021  10.690  21.496  0.00  0.00    +0.000 A 
ATOM      9  N   UNL     1       0.246  10.633  20.207  0.00  0.00    +0.000 NA
ATOM     10  C   UNL     1       0.977   9.545  19.694  0.00  0.00    +0.000 A 
ATOM     11  C   UNL     1       1.218   9.480  18.321  0.00  0.00    +0.000 A 
ATOM     12  C   UNL     1       1.951   8.420  17.779  0.00  0.00    +0.000 A 
ATOM     13  C   UNL     1       2.453   7.416  18.607  0.00  0.00    +0.000 A 
ATOM     14  C   UNL     1       2.218   7.466  19.979  0.00  0.00    +0.000 A 
ATOM     15  C   UNL     1       1.482   8.525  20.511  0.00  0.00    +0.000 A 
ATOM     16  N   UNL     1       1.251   8.579  21.882  0.00  0.00    +0.000 N 
ATOM     17  C   UNL     1       0.562   9.612  22.463  0.00  0.00    +0.000 A 
ATOM     18  O   UNL     1       0.414   9.671  23.674  0.00  0.00    +0.000 OA
ATOM     19  H   UNL     1       1.613   7.872  22.504  0.00  0.00    +0.000 HD
ENDBRANCH   7   8
BRANCH   1  22
ATOM     20  O   UNL     1       2.111  14.643  22.410  0.00  0.00    +0.000 OA
ATOM     21  C   UNL     1       1.909  14.167  21.299  0.00  0.00    +0.000 C 
ATOM     22  N   UNL     1       0.805  13.419  20.936  0.00  0.00    +0.000 N 
ATOM     23  H   UNL     1       0.947  12.715  20.209  0.00  0.00    +0.000 HD
BRANCH  21  24
ATOM     24  C   UNL     1       2.952  14.319  20.254  0.00  0.00    +0.000 A 
ATOM     25  C   UNL     1       4.154  14.960  20.587  0.00  0.00    +0.000 A 
ATOM     26  C   UNL     1       5.113  15.198  19.601  0.00  0.00    +0.000 A 
ATOM     27  C   UNL     1       4.858  14.806  18.291  0.00  0.00    +0.000 A 
ATOM     28  F   UNL     1       5.767  15.057  17.340  0.00  0.00    +0.000 F 
ATOM     29  C   UNL     1       3.668  14.170  17.949  0.00  0.00    +0.000 A 
ATOM     30  C   UNL     1       2.709  13.917  18.935  0.00  0.00    +0.000 A 
ENDBRANCH  21  24
ENDBRANCH   1  22
TORSDOF 3
ENDMDL
MODEL 4
REMARK VINA RESULT:      -7.4      3.401      6.303
REMARK  Name = 
REMARK  3 active torsions:
REMARK  status: ('A' for Active; 'I' for Inactive)
REMARK    1  A    between atoms: C_2  and  C_22
REMARK    2  A    between atoms: N_3  and  C_4
REMARK    3  A    between atoms: C_10  and  C_11
REMARK                            x       y       z     vdW  Elec       q    Type
REMARK                         _______ _______ _______ _____ _____    ______ ____
ROOT
ATOM      1  C   UNL     1      -1.856  13.032  20.576  0.00  0.00    +0.000 A 
ATOM      2  C   UNL     1      -2.465  14.262  20.873  0.00  0.00    +0.000 A 
ATOM      3  C   UNL     1      -2.266  14.862  22.114  0.00  0.00    +0.000 A 
ATOM      4 CL   UNL     1      -3.035  16.357  22.483  0.00  0.00    +0.000 Cl
ATOM      5  C   UNL     1      -1.462  14.250  23.071  0.00  0.00    +0.000 A 
ATOM      6  C   UNL     1      -0.859  13.023  22.788  0.00  0.00    +0.000 A 
ATOM      7  C   UNL     1      -1.040  12.407  21.540  0.00  0.00    +0.000 A 
ENDROOT
BRANCH   7   8
ATOM      8  C   UNL     1      -0.302  11.146  21.209  0.00  0.00    +0.000 A 
ATOM      9  N   UNL     1       0.135  10.961  19.988  0.00  0.00    +0.000 NA
ATOM     10  C   UNL     1       0.858   9.789  19.697  0.00  0.00    +0.000 A 
ATOM     11  C   UNL     1       1.324   9.587  18.397  0.00  0.00    +0.000 A 
ATOM     12  C   UNL     1       2.056   8.440  18.076  0.00  0.00    +0.000 A 
ATOM     13  C   UNL     1       2.331   7.485  19.054  0.00  0.00    +0.000 A 
ATOM     14  C   UNL     1       1.871   7.670  20.355  0.00  0.00    +0.000 A 
ATOM     15  C   UNL     1       1.138   8.817  20.666  0.00  0.00    +0.000 A 
ATOM     16  N   UNL     1       0.681   9.007  21.967  0.00  0.00    +0.000 N 
ATOM     17  C   UNL     1      -0.017  10.127  22.336  0.00  0.00    +0.000 A 
ATOM     18  O   UNL     1      -0.364  10.303  23.494  0.00  0.00    +0.000 OA
ATOM     19  H   UNL     1       0.877   8.336  22.695  0.00  0.00    +0.000 HD
ENDBRANCH   7   8
BRANCH   1  22
ATOM     20  O   UNL     1      -4.317  11.881  19.660  0.00  0.00    +0.000 OA
ATOM     21  C   UNL     1      -3.302  11.861  18.973  0.00  0.00    +0.000 C 
ATOM     22  N   UNL     1      -2.087  12.420  19.320  0.00  0.00    +0.000 N 
ATOM     23  H   UNL     1      -1.502  12.757  18.553  0.00  0.00    +0.000 HD
BRANCH  21  24
ATOM     24  C   UNL     1      -3.369  11.264  17.616  0.00  0.00    +0.000 A 
ATOM     25  C   UNL     1      -2.362  10.371  17.219  0.00  0.00    +0.000 A 
ATOM     26  C   UNL     1      -2.351   9.868  15.918  0.00  0.00    +0.000 A 
ATOM     27  C   UNL     1      -3.335  10.269  15.020  0.00  0.00    +0.000 A 
ATOM     28  F   UNL     1      -3.309   9.806  13.764  0.00  0.00    +0.000 F 
ATOM     29  C   UNL     1      -4.338  11.156  15.403  0.00  0.00    +0.000 A 
ATOM     30  C   UNL     1      -4.362  11.654  16.709  0.00  0.00    +0.000 A 
ENDBRANCH  21  24
ENDBRANCH   1  22
TORSDOF 3
ENDMDL
MODEL 5
REMARK VINA RESULT:      -7.3      1.297      1.579
REMARK  Name = 
REMARK  3 active torsions:
REMARK  status: ('A' for Active; 'I' for Inactive)
REMARK    1  A    between atoms: C_2  and  C_22
REMARK    2  A    between atoms: N_3  and  C_4
REMARK    3  A    between atoms: C_10  and  C_11
REMARK                            x       y       z     vdW  Elec       q    Type
REMARK                         _______ _______ _______ _____ _____    ______ ____
ROOT
ATOM      1  C   UNL     1      -2.200  13.722  23.026  0.00  0.00    +0.000 A 
ATOM      2  C   UNL     1      -1.329  14.332  23.943  0.00  0.00    +0.000 A 
ATOM      3  C   UNL     1      -1.833  15.146  24.956  0.00  0.00    +0.000 A 
ATOM      4 CL   UNL     1      -0.760  15.911  26.062  0.00  0.00    +0.000 Cl
ATOM      5  C   UNL     1      -3.203  15.361  25.070  0.00  0.00    +0.000 A 
ATOM      6  C   UNL     1      -4.077  14.765  24.157  0.00  0.00    +0.000 A 
ATOM      7  C   UNL     1      -3.589  13.936  23.135  0.00  0.00    +0.000 A 
ENDROOT
BRANCH   7   8
ATOM      8  C   UNL     1      -4.542  13.216  22.230  0.00  0.00    +0.000 A 
ATOM      9  N   UNL     1      -4.286  13.158  20.947  0.00  0.00    +0.000 NA
ATOM     10  C   UNL     1      -5.170  12.449  20.112  0.00  0.00    +0.000 A 
ATOM     11  C   UNL     1      -4.903  12.385  18.744  0.00  0.00    +0.000 A 
ATOM     12  C   UNL     1      -5.753  11.679  17.887  0.00  0.00    +0.000 A 
ATOM     13  C   UNL     1      -6.877  11.028  18.392  0.00  0.00    +0.000 A 
ATOM     14  C   UNL     1      -7.160  11.085  19.754  0.00  0.00    +0.000 A 
ATOM     15  C   UNL     1      -6.308  11.795  20.602  0.00  0.00    +0.000 A 
ATOM     16  N   UNL     1      -6.585  11.849  21.964  0.00  0.00    +0.000 N 
ATOM     17  C   UNL     1      -5.767  12.505  22.847  0.00  0.00    +0.000 A 
ATOM     18  O   UNL     1      -5.997  12.497  24.047  0.00  0.00    +0.000 OA
ATOM     19  H   UNL     1      -7.386  11.376  22.356  0.00  0.00    +0.000 HD
ENDBRANCH   7   8
BRANCH   1  22
ATOM     20  O   UNL     1      -0.996  11.135  23.304  0.00  0.00    +0.000 OA
ATOM     21  C   UNL     1      -1.080  11.692  22.216  0.00  0.00    +0.000 C 
ATOM     22  N   UNL     1      -1.673  12.919  21.986  0.00  0.00    +0.000 N 
ATOM     23  H   UNL     1      -2.096  13.058  21.066  0.00  0.00    +0.000 HD
BRANCH  21  24
ATOM     24  C   UNL     1      -0.584  10.984  21.009  0.00  0.00    +0.000 A 
ATOM     25  C   UNL     1       0.416  10.011  21.158  0.00  0.00    +0.000 A 
ATOM     26  C   UNL     1       0.964   9.397  20.032  0.00  0.00    +0.000 A 
ATOM     27  C   UNL     1       0.520   9.768  18.766  0.00  0.00    +0.000 A 
ATOM     28  F   UNL     1       1.066   9.198  17.684  0.00  0.00    +0.000 F 
ATOM     29  C   UNL     1      -0.470  10.734  18.606  0.00  0.00    +0.000 A 
ATOM     30  C   UNL     1      -1.032  11.343  19.732  0.00  0.00    +0.000 A 
ENDBRANCH  21  24
ENDBRANCH   1  22
TORSDOF 3
ENDMDL
MODEL 6
REMARK VINA RESULT:      -7.1      4.130      6.947
REMARK  Name = 
REMARK  3 active torsions:
REMARK  status: ('A' for Active; 'I' for Inactive)
REMARK    1  A    between atoms: C_2  and  C_22
REMARK    2  A    between atoms: N_3  and  C_4
REMARK    3  A    between atoms: C_10  and  C_11
REMARK                            x       y       z     vdW  Elec       q    Type
REMARK                         _______ _______ _______ _____ _____    ______ ____
ROOT
ATOM      1  C   UNL     1      -0.467  12.114  21.941  0.00  0.00    +0.000 A 
ATOM      2  C   UNL     1      -1.605  11.732  22.668  0.00  0.00    +0.000 A 
ATOM      3  C   UNL     1      -2.384  12.693  23.309  0.00  0.00    +0.000 A 
ATOM      4 CL   UNL     1      -3.764  12.219  24.220  0.00  0.00    +0.000 Cl
ATOM      5  C   UNL     1      -2.043  14.040  23.233  0.00  0.00    +0.000 A 
ATOM      6  C   UNL     1      -0.907  14.429  22.519  0.00  0.00    +0.000 A 
ATOM      7  C   UNL     1      -0.114  13.476  21.860  0.00  0.00    +0.000 A 
ENDROOT
BRANCH   7   8
ATOM      8  C   UNL     1       1.037  13.915  21.008  0.00  0.00    +0.000 A 
ATOM      9  N   UNL     1       2.225  14.034  21.549  0.00  0.00    +0.000 NA
ATOM     10  C   UNL     1       3.306  14.412  20.730  0.00  0.00    +0.000 A 
ATOM     11  C   UNL     1       4.572  14.542  21.302  0.00  0.00    +0.000 A 
ATOM     12  C   UNL     1       5.671  14.904  20.516  0.00  0.00    +0.000 A 
ATOM     13  C   UNL     1       5.513  15.137  19.151  0.00  0.00    +0.000 A 
ATOM     14  C   UNL     1       4.255  15.015  18.566  0.00  0.00    +0.000 A 
ATOM     15  C   UNL     1       3.163  14.656  19.358  0.00  0.00    +0.000 A 
ATOM     16  N   UNL     1       1.906  14.529  18.776  0.00  0.00    +0.000 N 
ATOM     17  C   UNL     1       0.805  14.150  19.498  0.00  0.00    +0.000 A 
ATOM     18  O   UNL     1      -0.280  13.991  18.960  0.00  0.00    +0.000 OA
ATOM     19  H   UNL     1       1.768  14.680  17.788  0.00  0.00    +0.000 HD
ENDBRANCH   7   8
BRANCH   1  22
ATOM     20  O   UNL     1      -1.021  10.780  19.464  0.00  0.00    +0.000 OA
ATOM     21  C   UNL     1      -0.030  10.510  20.133  0.00  0.00    +0.000 C 
ATOM     22  N   UNL     1       0.331  11.124  21.316  0.00  0.00    +0.000 N 
ATOM     23  H   UNL     1       1.331  11.174  21.520  0.00  0.00    +0.000 HD
BRANCH  21  24
ATOM     24  C   UNL     1       0.925   9.497  19.618  0.00  0.00    +0.000 A 
ATOM     25  C   UNL     1       1.346   9.580  18.283  0.00  0.00    +0.000 A 
ATOM     26  C   UNL     1       2.171   8.589  17.749  0.00  0.00    +0.000 A 
ATOM     27  C   UNL     1       2.558   7.518  18.548  0.00  0.00    +0.000 A 
ATOM     28  F   UNL     1       3.328   6.553  18.028  0.00  0.00    +0.000 F 
ATOM     29  C   UNL     1       2.145   7.424  19.874  0.00  0.00    +0.000 A 
ATOM     30  C   UNL     1       1.329   8.420  20.418  0.00  0.00    +0.000 A 
ENDBRANCH  21  24
ENDBRANCH   1  22
TORSDOF 3
ENDMDL
MODEL 7
REMARK VINA RESULT:      -7.1      3.834      6.523
REMARK  Name = 
REMARK  3 active torsions:
REMARK  status: ('A' for Active; 'I' for Inactive)
REMARK    1  A    between atoms: C_2  and  C_22
REMARK    2  A    between atoms: N_3  and  C_4
REMARK    3  A    between atoms: C_10  and  C_11
REMARK                            x       y       z     vdW  Elec       q    Type
REMARK                         _______ _______ _______ _____ _____    ______ ____
ROOT
ATOM      1  C   UNL     1      -0.941  12.263  22.286  0.00  0.00    +0.000 A 
ATOM      2  C   UNL     1      -2.085  11.874  23.001  0.00  0.00    +0.000 A 
ATOM      3  C   UNL     1      -2.826  12.818  23.709  0.00  0.00    +0.000 A 
ATOM      4 CL   UNL     1      -4.212  12.333  24.604  0.00  0.00    +0.000 Cl
ATOM      5  C   UNL     1      -2.440  14.155  23.713  0.00  0.00    +0.000 A 
ATOM      6  C   UNL     1      -1.299  14.551  23.011  0.00  0.00    +0.000 A 
ATOM      7  C   UNL     1      -0.545  13.616  22.285  0.00  0.00    +0.000 A 
ENDROOT
BRANCH   7   8
ATOM      8  C   UNL     1       0.613  14.068  21.450  0.00  0.00    +0.000 A 
ATOM      9  N   UNL     1       1.820  14.045  21.960  0.00  0.00    +0.000 NA
ATOM     10  C   UNL     1       2.904  14.440  21.153  0.00  0.00    +0.000 A 
ATOM     11  C   UNL     1       4.190  14.419  21.693  0.00  0.00    +0.000 A 
ATOM     12  C   UNL     1       5.292  14.792  20.917  0.00  0.00    +0.000 A 
ATOM     13  C   UNL     1       5.116  15.188  19.592  0.00  0.00    +0.000 A 
ATOM     14  C   UNL     1       3.838  15.217  19.039  0.00  0.00    +0.000 A 
ATOM     15  C   UNL     1       2.744  14.846  19.822  0.00  0.00    +0.000 A 
ATOM     16  N   UNL     1       1.466  14.870  19.271  0.00  0.00    +0.000 N 
ATOM     17  C   UNL     1       0.360  14.487  19.984  0.00  0.00    +0.000 A 
ATOM     18  O   UNL     1      -0.747  14.463  19.467  0.00  0.00    +0.000 OA
ATOM     19  H   UNL     1       1.314  15.141  18.311  0.00  0.00    +0.000 HD
ENDBRANCH   7   8
BRANCH   1  22
ATOM     20  O   UNL     1      -1.468  11.231  19.663  0.00  0.00    +0.000 OA
ATOM     21  C   UNL     1      -0.529  10.825  20.337  0.00  0.00    +0.000 C 
ATOM     22  N   UNL     1      -0.182  11.289  21.592  0.00  0.00    +0.000 N 
ATOM     23  H   UNL     1       0.809  11.247  21.838  0.00  0.00    +0.000 HD
BRANCH  21  24
ATOM     24  C   UNL     1       0.381   9.806  19.757  0.00  0.00    +0.000 A 
ATOM     25  C   UNL     1       0.941   8.838  20.604  0.00  0.00    +0.000 A 
ATOM     26  C   UNL     1       1.870   7.926  20.102  0.00  0.00    +0.000 A 
ATOM     27  C   UNL     1       2.242   7.996  18.763  0.00  0.00    +0.000 A 
ATOM     28  F   UNL     1       3.154   7.138  18.287  0.00  0.00    +0.000 F 
ATOM     29  C   UNL     1       1.694   8.954  17.914  0.00  0.00    +0.000 A 
ATOM     30  C   UNL     1       0.753   9.861  18.408  0.00  0.00    +0.000 A 
ENDBRANCH  21  24
ENDBRANCH   1  22
TORSDOF 3
ENDMDL
MODEL 8
REMARK VINA RESULT:      -7.1      3.658      6.222
REMARK  Name = 
REMARK  3 active torsions:
REMARK  status: ('A' for Active; 'I' for Inactive)
REMARK    1  A    between atoms: C_2  and  C_22
REMARK    2  A    between atoms: N_3  and  C_4
REMARK    3  A    between atoms: C_10  and  C_11
REMARK                            x       y       z     vdW  Elec       q    Type
REMARK                         _______ _______ _______ _____ _____    ______ ____
ROOT
ATOM      1  C   UNL     1      -1.451  12.469  22.324  0.00  0.00    +0.000 A 
ATOM      2  C   UNL     1      -2.565  12.019  23.050  0.00  0.00    +0.000 A 
ATOM      3  C   UNL     1      -3.201  12.865  23.956  0.00  0.00    +0.000 A 
ATOM      4 CL   UNL     1      -4.551  12.302  24.862  0.00  0.00    +0.000 Cl
ATOM      5  C   UNL     1      -2.739  14.163  24.150  0.00  0.00    +0.000 A 
ATOM      6  C   UNL     1      -1.625  14.617  23.439  0.00  0.00    +0.000 A 
ATOM      7  C   UNL     1      -0.977  13.783  22.515  0.00  0.00    +0.000 A 
ENDROOT
BRANCH   7   8
ATOM      8  C   UNL     1       0.147  14.315  21.680  0.00  0.00    +0.000 A 
ATOM      9  N   UNL     1       1.383  14.091  22.052  0.00  0.00    +0.000 NA
ATOM     10  C   UNL     1       2.430  14.566  21.240  0.00  0.00    +0.000 A 
ATOM     11  C   UNL     1       3.749  14.332  21.633  0.00  0.00    +0.000 A 
ATOM     12  C   UNL     1       4.814  14.778  20.845  0.00  0.00    +0.000 A 
ATOM     13  C   UNL     1       4.570  15.461  19.654  0.00  0.00    +0.000 A 
ATOM     14  C   UNL     1       3.260  15.705  19.250  0.00  0.00    +0.000 A 
ATOM     15  C   UNL     1       2.202  15.259  20.044  0.00  0.00    +0.000 A 
ATOM     16  N   UNL     1       0.892  15.498  19.640  0.00  0.00    +0.000 N 
ATOM     17  C   UNL     1      -0.184  15.056  20.365  0.00  0.00    +0.000 A 
ATOM     18  O   UNL     1      -1.326  15.228  19.967  0.00  0.00    +0.000 OA
ATOM     19  H   UNL     1       0.689  15.979  18.777  0.00  0.00    +0.000 HD
ENDBRANCH   7   8
BRANCH   1  22
ATOM     20  O   UNL     1       0.284  10.293  23.014  0.00  0.00    +0.000 OA
ATOM     21  C   UNL     1       0.050  10.584  21.847  0.00  0.00    +0.000 C 
ATOM     22  N   UNL     1      -0.798  11.590  21.425  0.00  0.00    +0.000 N 
ATOM     23  H   UNL     1      -1.269  11.447  20.530  0.00  0.00    +0.000 HD
BRANCH  21  24
ATOM     24  C   UNL     1       0.647   9.756  20.769  0.00  0.00    +0.000 A 
ATOM     25  C   UNL     1       1.223   8.521  21.105  0.00  0.00    +0.000 A 
ATOM     26  C   UNL     1       1.872   7.767  20.127  0.00  0.00    +0.000 A 
ATOM     27  C   UNL     1       1.953   8.255  18.827  0.00  0.00    +0.000 A 
ATOM     28  F   UNL     1       2.599   7.543  17.895  0.00  0.00    +0.000 F 
ATOM     29  C   UNL     1       1.387   9.480  18.483  0.00  0.00    +0.000 A 
ATOM     30  C   UNL     1       0.724  10.235  19.456  0.00  0.00    +0.000 A 
ENDBRANCH  21  24
ENDBRANCH   1  22
TORSDOF 3
ENDMDL
MODEL 9
REMARK VINA RESULT:      -7.0      4.269      6.711
REMARK  Name = 
REMARK  3 active torsions:
REMARK  status: ('A' for Active; 'I' for Inactive)
REMARK    1  A    between atoms: C_2  and  C_22
REMARK    2  A    between atoms: N_3  and  C_4
REMARK    3  A    between atoms: C_10  and  C_11
REMARK                            x       y       z     vdW  Elec       q    Type
REMARK                         _______ _______ _______ _____ _____    ______ ____
ROOT
ATOM      1  C   UNL     1      -0.534  13.739  19.690  0.00  0.00    +0.000 A 
ATOM      2  C   UNL     1      -0.775  15.117  19.812  0.00  0.00    +0.000 A 
ATOM      3  C   UNL     1      -0.150  15.854  20.816  0.00  0.00    +0.000 A 
ATOM      4 CL   UNL     1      -0.468  17.537  20.977  0.00  0.00    +0.000 Cl
ATOM      5  C   UNL     1       0.719  15.232  21.708  0.00  0.00    +0.000 A 
ATOM      6  C   UNL     1       0.957  13.860  21.601  0.00  0.00    +0.000 A 
ATOM      7  C   UNL     1       0.345  13.103  20.590  0.00  0.00    +0.000 A 
ENDROOT
BRANCH   7   8
ATOM      8  C   UNL     1       0.693  11.656  20.418  0.00  0.00    +0.000 A 
ATOM      9  N   UNL     1       1.220  11.254  19.288  0.00  0.00    +0.000 NA
ATOM     10  C   UNL     1       1.575   9.899  19.151  0.00  0.00    +0.000 A 
ATOM     11  C   UNL     1       2.136   9.466  17.948  0.00  0.00    +0.000 A 
ATOM     12  C   UNL     1       2.512   8.129  17.782  0.00  0.00    +0.000 A 
ATOM     13  C   UNL     1       2.333   7.214  18.818  0.00  0.00    +0.000 A 
ATOM     14  C   UNL     1       1.772   7.630  20.023  0.00  0.00    +0.000 A 
ATOM     15  C   UNL     1       1.396   8.965  20.180  0.00  0.00    +0.000 A 
ATOM     16  N   UNL     1       0.840   9.384  21.384  0.00  0.00    +0.000 N 
ATOM     17  C   UNL     1       0.482  10.689  21.604  0.00  0.00    +0.000 A 
ATOM     18  O   UNL     1       0.045  11.050  22.687  0.00  0.00    +0.000 OA
ATOM     19  H   UNL     1       0.711   8.744  22.154  0.00  0.00    +0.000 HD
ENDBRANCH   7   8
BRANCH   1  22
ATOM     20  O   UNL     1      -2.915  12.174  20.000  0.00  0.00    +0.000 OA
ATOM     21  C   UNL     1      -2.326  12.243  18.928  0.00  0.00    +0.000 C 
ATOM     22  N   UNL     1      -1.195  12.998  18.681  0.00  0.00    +0.000 N 
ATOM     23  H   UNL     1      -1.078  13.350  17.729  0.00  0.00    +0.000 HD
BRANCH  21  24
ATOM     24  C   UNL     1      -2.890  11.531  17.754  0.00  0.00    +0.000 A 
ATOM     25  C   UNL     1      -2.036  10.747  16.963  0.00  0.00    +0.000 A 
ATOM     26  C   UNL     1      -2.521  10.143  15.803  0.00  0.00    +0.000 A 
ATOM     27  C   UNL     1      -3.848  10.337  15.434  0.00  0.00    +0.000 A 
ATOM     28  F   UNL     1      -4.307   9.779  14.306  0.00  0.00    +0.000 F 
ATOM     29  C   UNL     1      -4.704  11.115  16.210  0.00  0.00    +0.000 A 
ATOM     30  C   UNL     1      -4.227  11.712  17.380  0.00  0.00    +0.000 A 
ENDBRANCH  21  24
ENDBRANCH   1  22
TORSDOF 3
ENDMDL
