MODEL 1
REMARK VINA RESULT:      -7.8      0.000      0.000
REMARK  Name = 
REMARK  2 active torsions:
REMARK  status: ('A' for Active; 'I' for Inactive)
REMARK    1  A    between atoms: C_8  and  N_9
REMARK    2  A    between atoms: C_10  and  C_12
REMARK                            x       y       z     vdW  Elec       q    Type
REMARK                         _______ _______ _______ _____ _____    ______ ____
ROOT
ATOM      1  O   UNL     1       4.768   1.822  21.032  0.00  0.00    +0.000 OA
ATOM      2  C   UNL     1       4.133   2.360  20.122  0.00  0.00    +0.000 C 
ATOM      3  C   UNL     1       3.144   3.509  20.392  0.00  0.00    +0.000 C 
ATOM      4  N   UNL     1       2.638   4.168  19.180  0.00  0.00    +0.000 N 
ATOM      5  C   UNL     1       2.480   5.535  19.104  0.00  0.00    +0.000 A 
ATOM      6  C   UNL     1       2.175   6.285  20.226  0.00  0.00    +0.000 A 
ATOM      7  C   UNL     1       1.971   7.663  20.155  0.00  0.00    +0.000 A 
ATOM      8  C   UNL     1       2.086   8.310  18.928  0.00  0.00    +0.000 A 
ATOM      9  C   UNL     1       2.407   7.498  17.843  0.00  0.00    +0.000 A 
ATOM     10  N   UNL     1       2.597   6.150  17.906  0.00  0.00    +0.000 NA
ATOM     11  C   UNL     1       2.476   3.347  17.984  0.00  0.00    +0.000 C 
ATOM     12  C   UNL     1       3.789   2.625  17.692  0.00  0.00    +0.000 C 
ATOM     13  N   UNL     1       4.261   1.884  18.844  0.00  0.00    +0.000 N 
ATOM     14  H   UNL     1       4.991   1.192  18.733  0.00  0.00    +0.000 HD
ENDROOT
BRANCH   8  15
ATOM     15  N   UNL     1       1.902   9.708  18.755  0.00  0.00    +0.000 N 
ATOM     16  C   UNL     1       0.724  10.399  19.013  0.00  0.00    +0.000 C 
ATOM     17  O   UNL     1      -0.337   9.883  19.358  0.00  0.00    +0.000 OA
ATOM     18  H   UNL     1       2.680  10.267  18.415  0.00  0.00    +0.000 HD
BRANCH  16  19
ATOM     19  C   UNL     1       0.767  11.890  18.884  0.00  0.00    +0.000 A 
ATOM     20  C   UNL     1      -0.451  12.559  18.943  0.00  0.00    +0.000 A 
ATOM     21  C   UNL     1      -0.447  13.941  18.970  0.00  0.00    +0.000 A 
ATOM     22  C   UNL     1       0.758  14.616  18.812  0.00  0.00    +0.000 A 
ATOM     23  C   UNL     1       0.760  16.013  18.766  0.00  0.00    +0.000 A 
ATOM     24  C   UNL     1       1.830  16.669  18.179  0.00  0.00    +0.000 A 
ATOM     25  C   UNL     1       2.968  15.946  17.844  0.00  0.00    +0.000 A 
ATOM     26  C   UNL     1       3.047  14.577  18.147  0.00  0.00    +0.000 A 
ATOM     27  C   UNL     1       1.937  13.863  18.590  0.00  0.00    +0.000 A 
ATOM     28  N   UNL     1       1.968  12.512  18.720  0.00  0.00    +0.000 NA
ENDBRANCH  16  19
ENDBRANCH   8  15
TORSDOF 2
ENDMDL
MODEL 2
REMARK VINA RESULT:      -7.8      3.472      9.302
REMARK  Name = 
REMARK  2 active torsions:
REMARK  status: ('A' for Active; 'I' for Inactive)
REMARK    1  A    between atoms: C_8  and  N_9
REMARK    2  A    between atoms: C_10  and  C_12
REMARK                            x       y       z     vdW  Elec       q    Type
REMARK                         _______ _______ _______ _____ _____    ______ ____
ROOT
ATOM      1  O   UNL     1      -4.474  12.124  24.120  0.00  0.00    +0.000 OA
ATOM      2  C   UNL     1      -3.543  12.433  23.373  0.00  0.00    +0.000 C 
ATOM      3  C   UNL     1      -2.204  11.672  23.386  0.00  0.00    +0.000 C 
ATOM      4  N   UNL     1      -1.292  12.035  22.294  0.00  0.00    +0.000 N 
ATOM      5  C   UNL     1      -0.547  11.090  21.620  0.00  0.00    +0.000 A 
ATOM      6  C   UNL     1      -0.113   9.937  22.250  0.00  0.00    +0.000 A 
ATOM      7  C   UNL     1       0.677   8.994  21.593  0.00  0.00    +0.000 A 
ATOM      8  C   UNL     1       1.035   9.207  20.264  0.00  0.00    +0.000 A 
ATOM      9  C   UNL     1       0.555  10.380  19.689  0.00  0.00    +0.000 A 
ATOM     10  N   UNL     1      -0.209  11.309  20.330  0.00  0.00    +0.000 NA
ATOM     11  C   UNL     1      -1.330  13.413  21.812  0.00  0.00    +0.000 C 
ATOM     12  C   UNL     1      -2.768  13.776  21.452  0.00  0.00    +0.000 C 
ATOM     13  N   UNL     1      -3.677  13.520  22.550  0.00  0.00    +0.000 N 
ATOM     14  H   UNL     1      -4.610  13.911  22.533  0.00  0.00    +0.000 HD
ENDROOT
BRANCH   8  15
ATOM     15  N   UNL     1       1.831   8.304  19.509  0.00  0.00    +0.000 N 
ATOM     16  C   UNL     1       2.088   6.983  19.852  0.00  0.00    +0.000 C 
ATOM     17  O   UNL     1       1.720   6.437  20.891  0.00  0.00    +0.000 OA
ATOM     18  H   UNL     1       2.257   8.631  18.646  0.00  0.00    +0.000 HD
BRANCH  16  19
ATOM     19  C   UNL     1       2.850   6.158  18.862  0.00  0.00    +0.000 A 
ATOM     20  C   UNL     1       2.545   4.802  18.811  0.00  0.00    +0.000 A 
ATOM     21  C   UNL     1       3.122   4.031  17.819  0.00  0.00    +0.000 A 
ATOM     22  C   UNL     1       4.078   4.604  16.987  0.00  0.00    +0.000 A 
ATOM     23  C   UNL     1       4.716   3.812  16.029  0.00  0.00    +0.000 A 
ATOM     24  C   UNL     1       5.939   4.219  15.521  0.00  0.00    +0.000 A 
ATOM     25  C   UNL     1       6.401   5.498  15.807  0.00  0.00    +0.000 A 
ATOM     26  C   UNL     1       5.610   6.380  16.560  0.00  0.00    +0.000 A 
ATOM     27  C   UNL     1       4.457   5.950  17.211  0.00  0.00    +0.000 A 
ATOM     28  N   UNL     1       3.787   6.757  18.074  0.00  0.00    +0.000 NA
ENDBRANCH  16  19
ENDBRANCH   8  15
TORSDOF 2
ENDMDL
MODEL 3
REMARK VINA RESULT:      -7.7      3.549      9.366
REMARK  Name = 
REMARK  2 active torsions:
REMARK  status: ('A' for Active; 'I' for Inactive)
REMARK    1  A    between atoms: C_8  and  N_9
REMARK    2  A    between atoms: C_10  and  C_12
REMARK                            x       y       z     vdW  Elec       q    Type
REMARK                         _______ _______ _______ _____ _____    ______ ____
ROOT
ATOM      1  O   UNL     1      -3.828  13.212  24.616  0.00  0.00    +0.000 OA
ATOM      2  C   UNL     1      -3.537  13.147  23.420  0.00  0.00    +0.000 C 
ATOM      3  C   UNL     1      -2.092  12.900  22.947  0.00  0.00    +0.000 C 
ATOM      4  N   UNL     1      -1.963  12.643  21.507  0.00  0.00    +0.000 N 
ATOM      5  C   UNL     1      -1.107  11.683  21.010  0.00  0.00    +0.000 A 
ATOM      6  C   UNL     1       0.067  11.361  21.667  0.00  0.00    +0.000 A 
ATOM      7  C   UNL     1       0.962  10.422  21.153  0.00  0.00    +0.000 A 
ATOM      8  C   UNL     1       0.667   9.779  19.954  0.00  0.00    +0.000 A 
ATOM      9  C   UNL     1      -0.535  10.142  19.353  0.00  0.00    +0.000 A 
ATOM     10  N   UNL     1      -1.407  11.067  19.846  0.00  0.00    +0.000 NA
ATOM     11  C   UNL     1      -2.906  13.311  20.615  0.00  0.00    +0.000 C 
ATOM     12  C   UNL     1      -4.328  13.021  21.085  0.00  0.00    +0.000 C 
ATOM     13  N   UNL     1      -4.512  13.360  22.481  0.00  0.00    +0.000 N 
ATOM     14  H   UNL     1      -5.446  13.426  22.865  0.00  0.00    +0.000 HD
ENDROOT
BRANCH   8  15
ATOM     15  N   UNL     1       1.511   8.807  19.354  0.00  0.00    +0.000 N 
ATOM     16  C   UNL     1       1.827   7.571  19.904  0.00  0.00    +0.000 C 
ATOM     17  O   UNL     1       1.476   7.181  21.016  0.00  0.00    +0.000 OA
ATOM     18  H   UNL     1       1.928   9.011  18.449  0.00  0.00    +0.000 HD
BRANCH  16  19
ATOM     19  C   UNL     1       2.636   6.636  19.059  0.00  0.00    +0.000 A 
ATOM     20  C   UNL     1       2.677   5.305  19.463  0.00  0.00    +0.000 A 
ATOM     21  C   UNL     1       3.294   4.383  18.639  0.00  0.00    +0.000 A 
ATOM     22  C   UNL     1       3.957   4.830  17.501  0.00  0.00    +0.000 A 
ATOM     23  C   UNL     1       4.643   3.911  16.702  0.00  0.00    +0.000 A 
ATOM     24  C   UNL     1       5.647   4.363  15.861  0.00  0.00    +0.000 A 
ATOM     25  C   UNL     1       5.805   5.730  15.667  0.00  0.00    +0.000 A 
ATOM     26  C   UNL     1       4.924   6.634  16.280  0.00  0.00    +0.000 A 
ATOM     27  C   UNL     1       4.012   6.222  17.247  0.00  0.00    +0.000 A 
ATOM     28  N   UNL     1       3.280   7.117  17.959  0.00  0.00    +0.000 NA
ENDBRANCH  16  19
ENDBRANCH   8  15
TORSDOF 2
ENDMDL
MODEL 4
REMARK VINA RESULT:      -7.7      3.683      4.463
REMARK  Name = 
REMARK  2 active torsions:
REMARK  status: ('A' for Active; 'I' for Inactive)
REMARK    1  A    between atoms: C_8  and  N_9
REMARK    2  A    between atoms: C_10  and  C_12
REMARK                            x       y       z     vdW  Elec       q    Type
REMARK                         _______ _______ _______ _____ _____    ______ ____
ROOT
ATOM      1  O   UNL     1       5.427   4.354  14.545  0.00  0.00    +0.000 OA
ATOM      2  C   UNL     1       5.322   4.607  15.747  0.00  0.00    +0.000 C 
ATOM      3  C   UNL     1       4.984   6.022  16.254  0.00  0.00    +0.000 C 
ATOM      4  N   UNL     1       4.692   6.095  17.691  0.00  0.00    +0.000 N 
ATOM      5  C   UNL     1       3.675   6.881  18.191  0.00  0.00    +0.000 A 
ATOM      6  C   UNL     1       3.300   8.054  17.559  0.00  0.00    +0.000 A 
ATOM      7  C   UNL     1       2.302   8.879  18.078  0.00  0.00    +0.000 A 
ATOM      8  C   UNL     1       1.654   8.515  19.255  0.00  0.00    +0.000 A 
ATOM      9  C   UNL     1       2.072   7.318  19.830  0.00  0.00    +0.000 A 
ATOM     10  N   UNL     1       3.054   6.514  19.333  0.00  0.00    +0.000 NA
ATOM     11  C   UNL     1       5.395   5.166  18.571  0.00  0.00    +0.000 C 
ATOM     12  C   UNL     1       5.195   3.743  18.057  0.00  0.00    +0.000 C 
ATOM     13  N   UNL     1       5.572   3.619  16.663  0.00  0.00    +0.000 N 
ATOM     14  H   UNL     1       5.698   2.702  16.255  0.00  0.00    +0.000 HD
ENDROOT
BRANCH   8  15
ATOM     15  N   UNL     1       0.623   9.286  19.857  0.00  0.00    +0.000 N 
ATOM     16  C   UNL     1       0.643   9.771  21.158  0.00  0.00    +0.000 C 
ATOM     17  O   UNL     1       1.521   9.540  21.987  0.00  0.00    +0.000 OA
ATOM     18  H   UNL     1      -0.203   9.511  19.310  0.00  0.00    +0.000 HD
BRANCH  16  19
ATOM     19  C   UNL     1      -0.485  10.667  21.567  0.00  0.00    +0.000 A 
ATOM     20  C   UNL     1      -0.857  10.633  22.907  0.00  0.00    +0.000 A 
ATOM     21  C   UNL     1      -1.796  11.542  23.357  0.00  0.00    +0.000 A 
ATOM     22  C   UNL     1      -2.425  12.374  22.438  0.00  0.00    +0.000 A 
ATOM     23  C   UNL     1      -3.426  13.246  22.876  0.00  0.00    +0.000 A 
ATOM     24  C   UNL     1      -4.346  13.733  21.961  0.00  0.00    +0.000 A 
ATOM     25  C   UNL     1      -4.131  13.522  20.605  0.00  0.00    +0.000 A 
ATOM     26  C   UNL     1      -2.968  12.867  20.170  0.00  0.00    +0.000 A 
ATOM     27  C   UNL     1      -2.111  12.233  21.064  0.00  0.00    +0.000 A 
ATOM     28  N   UNL     1      -1.082  11.459  20.633  0.00  0.00    +0.000 NA
ENDBRANCH  16  19
ENDBRANCH   8  15
TORSDOF 2
ENDMDL
MODEL 5
REMARK VINA RESULT:      -7.7      3.390      4.580
REMARK  Name = 
REMARK  2 active torsions:
REMARK  status: ('A' for Active; 'I' for Inactive)
REMARK    1  A    between atoms: C_8  and  N_9
REMARK    2  A    between atoms: C_10  and  C_12
REMARK                            x       y       z     vdW  Elec       q    Type
REMARK                         _______ _______ _______ _____ _____    ______ ____
ROOT
ATOM      1  O   UNL     1       5.027   4.089  15.407  0.00  0.00    +0.000 OA
ATOM      2  C   UNL     1       4.896   4.478  16.570  0.00  0.00    +0.000 C 
ATOM      3  C   UNL     1       4.555   5.942  16.904  0.00  0.00    +0.000 C 
ATOM      4  N   UNL     1       4.230   6.180  18.316  0.00  0.00    +0.000 N 
ATOM      5  C   UNL     1       3.206   7.021  18.698  0.00  0.00    +0.000 A 
ATOM      6  C   UNL     1       2.854   8.115  17.928  0.00  0.00    +0.000 A 
ATOM      7  C   UNL     1       1.849   8.999  18.325  0.00  0.00    +0.000 A 
ATOM      8  C   UNL     1       1.171   8.773  19.520  0.00  0.00    +0.000 A 
ATOM      9  C   UNL     1       1.568   7.648  20.237  0.00  0.00    +0.000 A 
ATOM     10  N   UNL     1       2.556   6.789  19.860  0.00  0.00    +0.000 NA
ATOM     11  C   UNL     1       4.906   5.355  19.313  0.00  0.00    +0.000 C 
ATOM     12  C   UNL     1       4.709   3.883  18.959  0.00  0.00    +0.000 C 
ATOM     13  N   UNL     1       5.117   3.600  17.598  0.00  0.00    +0.000 N 
ATOM     14  H   UNL     1       5.248   2.641  17.301  0.00  0.00    +0.000 HD
ENDROOT
BRANCH   8  15
ATOM     15  N   UNL     1       0.131   9.611  20.005  0.00  0.00    +0.000 N 
ATOM     16  C   UNL     1       0.306  10.685  20.869  0.00  0.00    +0.000 C 
ATOM     17  O   UNL     1       1.372  11.012  21.385  0.00  0.00    +0.000 OA
ATOM     18  H   UNL     1      -0.824   9.427  19.710  0.00  0.00    +0.000 HD
BRANCH  16  19
ATOM     19  C   UNL     1      -0.900  11.522  21.167  0.00  0.00    +0.000 A 
ATOM     20  C   UNL     1      -1.314  12.400  20.171  0.00  0.00    +0.000 A 
ATOM     21  C   UNL     1      -2.500  13.088  20.347  0.00  0.00    +0.000 A 
ATOM     22  C   UNL     1      -3.173  12.976  21.559  0.00  0.00    +0.000 A 
ATOM     23  C   UNL     1      -4.335  13.724  21.769  0.00  0.00    +0.000 A 
ATOM     24  C   UNL     1      -4.753  13.974  23.067  0.00  0.00    +0.000 A 
ATOM     25  C   UNL     1      -4.140  13.302  24.118  0.00  0.00    +0.000 A 
ATOM     26  C   UNL     1      -3.145  12.346  23.858  0.00  0.00    +0.000 A 
ATOM     27  C   UNL     1      -2.599  12.190  22.587  0.00  0.00    +0.000 A 
ATOM     28  N   UNL     1      -1.524  11.389  22.371  0.00  0.00    +0.000 NA
ENDBRANCH  16  19
ENDBRANCH   8  15
TORSDOF 2
ENDMDL
MODEL 6
REMARK VINA RESULT:      -7.5      3.519      9.500
REMARK  Name = 
REMARK  2 active torsions:
REMARK  status: ('A' for Active; 'I' for Inactive)
REMARK    1  A    between atoms: C_8  and  N_9
REMARK    2  A    between atoms: C_10  and  C_12
REMARK                            x       y       z     vdW  Elec       q    Type
REMARK                         _______ _______ _______ _____ _____    ______ ____
ROOT
ATOM      1  O   UNL     1      -3.363  15.587  20.920  0.00  0.00    +0.000 OA
ATOM      2  C   UNL     1      -2.742  14.695  21.502  0.00  0.00    +0.000 C 
ATOM      3  C   UNL     1      -2.649  13.266  20.934  0.00  0.00    +0.000 C 
ATOM      4  N   UNL     1      -1.703  12.395  21.642  0.00  0.00    +0.000 N 
ATOM      5  C   UNL     1      -0.873  11.520  20.972  0.00  0.00    +0.000 A 
ATOM      6  C   UNL     1      -1.257  10.946  19.773  0.00  0.00    +0.000 A 
ATOM      7  C   UNL     1      -0.446  10.026  19.107  0.00  0.00    +0.000 A 
ATOM      8  C   UNL     1       0.788   9.681  19.651  0.00  0.00    +0.000 A 
ATOM      9  C   UNL     1       1.115  10.305  20.852  0.00  0.00    +0.000 A 
ATOM     10  N   UNL     1       0.322  11.195  21.512  0.00  0.00    +0.000 NA
ATOM     11  C   UNL     1      -1.530  12.610  23.076  0.00  0.00    +0.000 C 
ATOM     12  C   UNL     1      -1.194  14.078  23.323  0.00  0.00    +0.000 C 
ATOM     13  N   UNL     1      -2.170  14.961  22.718  0.00  0.00    +0.000 N 
ATOM     14  H   UNL     1      -2.197  15.938  22.981  0.00  0.00    +0.000 HD
ENDROOT
BRANCH   8  15
ATOM     15  N   UNL     1       1.685   8.760  19.047  0.00  0.00    +0.000 N 
ATOM     16  C   UNL     1       1.979   7.492  19.533  0.00  0.00    +0.000 C 
ATOM     17  O   UNL     1       1.559   7.024  20.589  0.00  0.00    +0.000 OA
ATOM     18  H   UNL     1       2.160   9.030  18.189  0.00  0.00    +0.000 HD
BRANCH  16  19
ATOM     19  C   UNL     1       2.857   6.625  18.685  0.00  0.00    +0.000 A 
ATOM     20  C   UNL     1       2.500   5.285  18.581  0.00  0.00    +0.000 A 
ATOM     21  C   UNL     1       3.197   4.480  17.700  0.00  0.00    +0.000 A 
ATOM     22  C   UNL     1       4.307   5.001  17.042  0.00  0.00    +0.000 A 
ATOM     23  C   UNL     1       5.059   4.172  16.205  0.00  0.00    +0.000 A 
ATOM     24  C   UNL     1       6.368   4.517  15.911  0.00  0.00    +0.000 A 
ATOM     25  C   UNL     1       6.837   5.774  16.273  0.00  0.00    +0.000 A 
ATOM     26  C   UNL     1       5.973   6.698  16.883  0.00  0.00    +0.000 A 
ATOM     27  C   UNL     1       4.707   6.328  17.329  0.00  0.00    +0.000 A 
ATOM     28  N   UNL     1       3.941   7.172  18.067  0.00  0.00    +0.000 NA
ENDBRANCH  16  19
ENDBRANCH   8  15
TORSDOF 2
ENDMDL
MODEL 7
REMARK VINA RESULT:      -7.5      3.851      9.330
REMARK  Name = 
REMARK  2 active torsions:
REMARK  status: ('A' for Active; 'I' for Inactive)
REMARK    1  A    between atoms: C_8  and  N_9
REMARK    2  A    between atoms: C_10  and  C_12
REMARK                            x       y       z     vdW  Elec       q    Type
REMARK                         _______ _______ _______ _____ _____    ______ ____
ROOT
ATOM      1  O   UNL     1      -3.755  13.445  24.529  0.00  0.00    +0.000 OA
ATOM      2  C   UNL     1      -3.379  13.360  23.357  0.00  0.00    +0.000 C 
ATOM      3  C   UNL     1      -1.939  12.956  22.993  0.00  0.00    +0.000 C 
ATOM      4  N   UNL     1      -1.726  12.701  21.563  0.00  0.00    +0.000 N 
ATOM      5  C   UNL     1      -0.947  11.655  21.115  0.00  0.00    +0.000 A 
ATOM      6  C   UNL     1       0.128  11.195  21.854  0.00  0.00    +0.000 A 
ATOM      7  C   UNL     1       0.949  10.166  21.392  0.00  0.00    +0.000 A 
ATOM      8  C   UNL     1       0.680   9.574  20.162  0.00  0.00    +0.000 A 
ATOM      9  C   UNL     1      -0.423  10.077  19.477  0.00  0.00    +0.000 A 
ATOM     10  N   UNL     1      -1.222  11.090  19.919  0.00  0.00    +0.000 NA
ATOM     11  C   UNL     1      -2.514  13.482  20.614  0.00  0.00    +0.000 C 
ATOM     12  C   UNL     1      -3.993  13.350  20.966  0.00  0.00    +0.000 C 
ATOM     13  N   UNL     1      -4.247  13.693  22.350  0.00  0.00    +0.000 N 
ATOM     14  H   UNL     1      -5.195  13.861  22.662  0.00  0.00    +0.000 HD
ENDROOT
BRANCH   8  15
ATOM     15  N   UNL     1       1.454   8.518  19.610  0.00  0.00    +0.000 N 
ATOM     16  C   UNL     1       2.004   8.510  18.334  0.00  0.00    +0.000 C 
ATOM     17  O   UNL     1       1.835   9.384  17.485  0.00  0.00    +0.000 OA
ATOM     18  H   UNL     1       1.631   7.693  20.176  0.00  0.00    +0.000 HD
BRANCH  16  19
ATOM     19  C   UNL     1       2.891   7.357  17.982  0.00  0.00    +0.000 A 
ATOM     20  C   UNL     1       2.408   6.085  18.271  0.00  0.00    +0.000 A 
ATOM     21  C   UNL     1       3.130   4.988  17.838  0.00  0.00    +0.000 A 
ATOM     22  C   UNL     1       4.370   5.189  17.240  0.00  0.00    +0.000 A 
ATOM     23  C   UNL     1       5.136   4.082  16.864  0.00  0.00    +0.000 A 
ATOM     24  C   UNL     1       6.503   4.232  16.696  0.00  0.00    +0.000 A 
ATOM     25  C   UNL     1       7.050   5.509  16.692  0.00  0.00    +0.000 A 
ATOM     26  C   UNL     1       6.216   6.633  16.806  0.00  0.00    +0.000 A 
ATOM     27  C   UNL     1       4.868   6.510  17.131  0.00  0.00    +0.000 A 
ATOM     28  N   UNL     1       4.104   7.597  17.408  0.00  0.00    +0.000 NA
ENDBRANCH  16  19
ENDBRANCH   8  15
TORSDOF 2
ENDMDL
MODEL 8
REMARK VINA RESULT:      -7.5      3.774      9.544
REMARK  Name = 
REMARK  2 active torsions:
REMARK  status: ('A' for Active; 'I' for Inactive)
REMARK    1  A    between atoms: C_8  and  N_9
REMARK    2  A    between atoms: C_10  and  C_12
REMARK                            x       y       z     vdW  Elec       q    Type
REMARK                         _______ _______ _______ _____ _____    ______ ____
ROOT
ATOM      1  O   UNL     1      -2.864  16.050  20.632  0.00  0.00    +0.000 OA
ATOM      2  C   UNL     1      -2.350  15.159  21.312  0.00  0.00    +0.000 C 
ATOM      3  C   UNL     1      -2.391  13.681  20.880  0.00  0.00    +0.000 C 
ATOM      4  N   UNL     1      -1.554  12.790  21.694  0.00  0.00    +0.000 N 
ATOM      5  C   UNL     1      -0.804  11.778  21.134  0.00  0.00    +0.000 A 
ATOM      6  C   UNL     1      -1.218  11.135  19.981  0.00  0.00    +0.000 A 
ATOM      7  C   UNL     1      -0.491  10.080  19.427  0.00  0.00    +0.000 A 
ATOM      8  C   UNL     1       0.689   9.666  20.039  0.00  0.00    +0.000 A 
ATOM      9  C   UNL     1       1.052  10.365  21.187  0.00  0.00    +0.000 A 
ATOM     10  N   UNL     1       0.340  11.388  21.737  0.00  0.00    +0.000 NA
ATOM     11  C   UNL     1      -1.392  13.121  23.107  0.00  0.00    +0.000 C 
ATOM     12  C   UNL     1      -0.913  14.565  23.230  0.00  0.00    +0.000 C 
ATOM     13  N   UNL     1      -1.780  15.480  22.516  0.00  0.00    +0.000 N 
ATOM     14  H   UNL     1      -1.713  16.475  22.688  0.00  0.00    +0.000 HD
ENDROOT
BRANCH   8  15
ATOM     15  N   UNL     1       1.500   8.607  19.549  0.00  0.00    +0.000 N 
ATOM     16  C   UNL     1       1.985   8.504  18.251  0.00  0.00    +0.000 C 
ATOM     17  O   UNL     1       1.719   9.277  17.333  0.00  0.00    +0.000 OA
ATOM     18  H   UNL     1       1.758   7.855  20.182  0.00  0.00    +0.000 HD
BRANCH  16  19
ATOM     19  C   UNL     1       2.925   7.375  17.963  0.00  0.00    +0.000 A 
ATOM     20  C   UNL     1       2.455   6.090  18.213  0.00  0.00    +0.000 A 
ATOM     21  C   UNL     1       3.234   5.014  17.831  0.00  0.00    +0.000 A 
ATOM     22  C   UNL     1       4.510   5.249  17.328  0.00  0.00    +0.000 A 
ATOM     23  C   UNL     1       5.330   4.163  17.008  0.00  0.00    +0.000 A 
ATOM     24  C   UNL     1       6.702   4.348  16.943  0.00  0.00    +0.000 A 
ATOM     25  C   UNL     1       7.215   5.639  16.983  0.00  0.00    +0.000 A 
ATOM     26  C   UNL     1       6.346   6.740  17.037  0.00  0.00    +0.000 A 
ATOM     27  C   UNL     1       4.981   6.582  17.261  0.00  0.00    +0.000 A 
ATOM     28  N   UNL     1       4.170   7.649  17.482  0.00  0.00    +0.000 NA
ENDBRANCH  16  19
ENDBRANCH   8  15
TORSDOF 2
ENDMDL
MODEL 9
REMARK VINA RESULT:      -7.4      3.352      9.971
REMARK  Name = 
REMARK  2 active torsions:
REMARK  status: ('A' for Active; 'I' for Inactive)
REMARK    1  A    between atoms: C_8  and  N_9
REMARK    2  A    between atoms: C_10  and  C_12
REMARK                            x       y       z     vdW  Elec       q    Type
REMARK                         _______ _______ _______ _____ _____    ______ ____
ROOT
ATOM      1  O   UNL     1      -2.455  16.791  20.240  0.00  0.00    +0.000 OA
ATOM      2  C   UNL     1      -1.862  15.958  20.929  0.00  0.00    +0.000 C 
ATOM      3  C   UNL     1      -2.086  14.445  20.746  0.00  0.00    +0.000 C 
ATOM      4  N   UNL     1      -1.149  13.601  21.498  0.00  0.00    +0.000 N 
ATOM      5  C   UNL     1      -0.602  12.456  20.957  0.00  0.00    +0.000 A 
ATOM      6  C   UNL     1      -1.295  11.702  20.026  0.00  0.00    +0.000 A 
ATOM      7  C   UNL     1      -0.771  10.519  19.504  0.00  0.00    +0.000 A 
ATOM      8  C   UNL     1       0.486  10.085  19.916  0.00  0.00    +0.000 A 
ATOM      9  C   UNL     1       1.131  10.898  20.845  0.00  0.00    +0.000 A 
ATOM     10  N   UNL     1       0.619  12.048  21.366  0.00  0.00    +0.000 NA
ATOM     11  C   UNL     1      -0.664  14.105  22.779  0.00  0.00    +0.000 C 
ATOM     12  C   UNL     1      -0.083  15.501  22.578  0.00  0.00    +0.000 C 
ATOM     13  N   UNL     1      -1.026  16.387  21.926  0.00  0.00    +0.000 N 
ATOM     14  H   UNL     1      -0.862  17.385  21.926  0.00  0.00    +0.000 HD
ENDROOT
BRANCH   8  15
ATOM     15  N   UNL     1       1.105   8.899  19.439  0.00  0.00    +0.000 N 
ATOM     16  C   UNL     1       1.901   8.812  18.304  0.00  0.00    +0.000 C 
ATOM     17  O   UNL     1       2.120   9.734  17.520  0.00  0.00    +0.000 OA
ATOM     18  H   UNL     1       0.967   8.033  19.954  0.00  0.00    +0.000 HD
BRANCH  16  19
ATOM     19  C   UNL     1       2.563   7.496  18.036  0.00  0.00    +0.000 A 
ATOM     20  C   UNL     1       3.837   7.539  17.479  0.00  0.00    +0.000 A 
ATOM     21  C   UNL     1       4.541   6.356  17.344  0.00  0.00    +0.000 A 
ATOM     22  C   UNL     1       3.909   5.156  17.652  0.00  0.00    +0.000 A 
ATOM     23  C   UNL     1       4.591   3.952  17.451  0.00  0.00    +0.000 A 
ATOM     24  C   UNL     1       3.866   2.779  17.319  0.00  0.00    +0.000 A 
ATOM     25  C   UNL     1       2.506   2.786  17.601  0.00  0.00    +0.000 A 
ATOM     26  C   UNL     1       1.889   3.960  18.064  0.00  0.00    +0.000 A 
ATOM     27  C   UNL     1       2.553   5.184  18.056  0.00  0.00    +0.000 A 
ATOM     28  N   UNL     1       1.906   6.342  18.342  0.00  0.00    +0.000 NA
ENDBRANCH  16  19
ENDBRANCH   8  15
TORSDOF 2
ENDMDL
