MODEL 1
REMARK VINA RESULT:      -8.6      0.000      0.000
REMARK  Name = 
REMARK  7 active torsions:
REMARK  status: ('A' for Active; 'I' for Inactive)
REMARK    1  A    between atoms: C_1  and  C_2
REMARK    2  A    between atoms: C_4  and  C_5
REMARK    3  A    between atoms: C_12  and  O_13
REMARK    4  A    between atoms: C_14  and  C_15
REMARK    5  A    between atoms: C_15  and  C_16
REMARK    6  A    between atoms: C_16  and  C_17
REMARK    7  A    between atoms: N_19  and  C_20
REMARK                            x       y       z     vdW  Elec       q    Type
REMARK                         _______ _______ _______ _____ _____    ______ ____
ROOT
ATOM      1  C   UNL     1       4.976   6.732  15.934  0.00  0.00    +0.000 C 
ATOM      2  C   UNL     1       5.298   6.079  17.245  0.00  0.00    +0.000 A 
ATOM      3  N   UNL     1       4.289   5.354  17.775  0.00  0.00    +0.000 NA
ATOM      4  C   UNL     1       4.476   4.780  18.984  0.00  0.00    +0.000 A 
ATOM      5  N   UNL     1       5.611   4.876  19.687  0.00  0.00    +0.000 NA
ATOM      6  C   UNL     1       6.579   5.591  19.114  0.00  0.00    +0.000 A 
ATOM      7  C   UNL     1       6.517   6.219  17.887  0.00  0.00    +0.000 A 
ENDROOT
BRANCH   4   8
ATOM      8  C   UNL     1       3.326   4.037  19.555  0.00  0.00    +0.000 A 
ATOM      9  C   UNL     1       2.507   4.617  20.531  0.00  0.00    +0.000 A 
ATOM     10  C   UNL     1       1.465   3.882  21.086  0.00  0.00    +0.000 A 
ATOM     11  C   UNL     1       1.254   2.582  20.655  0.00  0.00    +0.000 A 
ATOM     12  C   UNL     1       2.089   2.073  19.676  0.00  0.00    +0.000 A 
ATOM     13  N   UNL     1       3.109   2.762  19.120  0.00  0.00    +0.000 NA
ENDBRANCH   4   8
BRANCH   6  14
ATOM     14  O   UNL     1       7.687   5.688  19.893  0.00  0.00    +0.000 OA
ATOM     15  H   UNL     1       8.215   6.305  19.353  0.00  0.00    +0.000 HD
ENDBRANCH   6  14
BRANCH   7  16
ATOM     16  C   UNL     1       7.661   7.033  17.358  0.00  0.00    +0.000 C 
BRANCH  16  17
ATOM     17  C   UNL     1       7.456   8.548  17.465  0.00  0.00    +0.000 C 
BRANCH  17  18
ATOM     18  C   UNL     1       8.489   9.142  18.401  0.00  0.00    +0.000 C 
ATOM     19  O   UNL     1       9.036   8.462  19.264  0.00  0.00    +0.000 OA
ATOM     20  N   UNL     1       8.697  10.494  18.190  0.00  0.00    +0.000 N 
ATOM     21  H   UNL     1       8.042  10.993  17.596  0.00  0.00    +0.000 HD
BRANCH  20  22
ATOM     22  C   UNL     1       9.588  11.299  18.938  0.00  0.00    +0.000 A 
ATOM     23  C   UNL     1       9.307  11.754  20.228  0.00  0.00    +0.000 A 
ATOM     24  C   UNL     1      10.182  12.630  20.861  0.00  0.00    +0.000 A 
ATOM     25  F   UNL     1       9.886  13.082  22.086  0.00  0.00    +0.000 F 
ATOM     26  C   UNL     1      11.352  13.055  20.240  0.00  0.00    +0.000 A 
ATOM     27  C   UNL     1      11.673  12.561  18.977  0.00  0.00    +0.000 A 
ATOM     28  C   UNL     1      10.798  11.678  18.343  0.00  0.00    +0.000 A 
ATOM     29  F   UNL     1      11.107  11.225  17.119  0.00  0.00    +0.000 F 
ENDBRANCH  20  22
ENDBRANCH  17  18
ENDBRANCH  16  17
ENDBRANCH   7  16
TORSDOF 6
ENDMDL
MODEL 2
REMARK VINA RESULT:      -8.4      5.567      7.804
REMARK  Name = 
REMARK  7 active torsions:
REMARK  status: ('A' for Active; 'I' for Inactive)
REMARK    1  A    between atoms: C_1  and  C_2
REMARK    2  A    between atoms: C_4  and  C_5
REMARK    3  A    between atoms: C_12  and  O_13
REMARK    4  A    between atoms: C_14  and  C_15
REMARK    5  A    between atoms: C_15  and  C_16
REMARK    6  A    between atoms: C_16  and  C_17
REMARK    7  A    between atoms: N_19  and  C_20
REMARK                            x       y       z     vdW  Elec       q    Type
REMARK                         _______ _______ _______ _____ _____    ______ ____
ROOT
ATOM      1  C   UNL     1       3.838   7.627  17.261  0.00  0.00    +0.000 C 
ATOM      2  C   UNL     1       4.655   6.373  17.165  0.00  0.00    +0.000 A 
ATOM      3  N   UNL     1       5.179   6.137  15.943  0.00  0.00    +0.000 NA
ATOM      4  C   UNL     1       5.881   4.998  15.754  0.00  0.00    +0.000 A 
ATOM      5  N   UNL     1       6.099   4.090  16.712  0.00  0.00    +0.000 NA
ATOM      6  C   UNL     1       5.572   4.377  17.902  0.00  0.00    +0.000 A 
ATOM      7  C   UNL     1       4.845   5.504  18.225  0.00  0.00    +0.000 A 
ENDROOT
BRANCH   4   8
ATOM      8  C   UNL     1       6.394   4.749  14.384  0.00  0.00    +0.000 A 
ATOM      9  C   UNL     1       5.801   3.789  13.556  0.00  0.00    +0.000 A 
ATOM     10  C   UNL     1       6.332   3.541  12.295  0.00  0.00    +0.000 A 
ATOM     11  C   UNL     1       7.443   4.258  11.879  0.00  0.00    +0.000 A 
ATOM     12  C   UNL     1       7.972   5.203  12.739  0.00  0.00    +0.000 A 
ATOM     13  N   UNL     1       7.479   5.465  13.969  0.00  0.00    +0.000 NA
ENDBRANCH   4   8
BRANCH   6  14
ATOM     14  O   UNL     1       5.791   3.399  18.819  0.00  0.00    +0.000 OA
ATOM     15  H   UNL     1       6.546   2.946  18.401  0.00  0.00    +0.000 HD
ENDBRANCH   6  14
BRANCH   7  16
ATOM     16  C   UNL     1       4.264   5.703  19.594  0.00  0.00    +0.000 C 
BRANCH  16  17
ATOM     17  C   UNL     1       2.971   4.919  19.849  0.00  0.00    +0.000 C 
BRANCH  17  18
ATOM     18  C   UNL     1       1.901   5.852  20.377  0.00  0.00    +0.000 C 
ATOM     19  O   UNL     1       0.824   5.426  20.784  0.00  0.00    +0.000 OA
ATOM     20  N   UNL     1       2.265   7.186  20.311  0.00  0.00    +0.000 N 
ATOM     21  H   UNL     1       3.087   7.432  19.767  0.00  0.00    +0.000 HD
BRANCH  20  22
ATOM     22  C   UNL     1       1.446   8.267  20.715  0.00  0.00    +0.000 A 
ATOM     23  C   UNL     1       1.112   8.516  22.048  0.00  0.00    +0.000 A 
ATOM     24  C   UNL     1       0.215   9.531  22.360  0.00  0.00    +0.000 A 
ATOM     25  F   UNL     1      -0.119   9.740  23.640  0.00  0.00    +0.000 F 
ATOM     26  C   UNL     1      -0.351  10.324  21.368  0.00  0.00    +0.000 A 
ATOM     27  C   UNL     1       0.019  10.124  20.039  0.00  0.00    +0.000 A 
ATOM     28  C   UNL     1       0.923   9.109  19.725  0.00  0.00    +0.000 A 
ATOM     29  F   UNL     1       1.258   8.912  18.441  0.00  0.00    +0.000 F 
ENDBRANCH  20  22
ENDBRANCH  17  18
ENDBRANCH  16  17
ENDBRANCH   7  16
TORSDOF 6
ENDMDL
MODEL 3
REMARK VINA RESULT:      -8.2      5.652      8.111
REMARK  Name = 
REMARK  7 active torsions:
REMARK  status: ('A' for Active; 'I' for Inactive)
REMARK    1  A    between atoms: C_1  and  C_2
REMARK    2  A    between atoms: C_4  and  C_5
REMARK    3  A    between atoms: C_12  and  O_13
REMARK    4  A    between atoms: C_14  and  C_15
REMARK    5  A    between atoms: C_15  and  C_16
REMARK    6  A    between atoms: C_16  and  C_17
REMARK    7  A    between atoms: N_19  and  C_20
REMARK                            x       y       z     vdW  Elec       q    Type
REMARK                         _______ _______ _______ _____ _____    ______ ____
ROOT
ATOM      1  C   UNL     1       2.398   4.942  20.590  0.00  0.00    +0.000 C 
ATOM      2  C   UNL     1       2.239   6.305  19.986  0.00  0.00    +0.000 A 
ATOM      3  N   UNL     1       1.621   7.203  20.783  0.00  0.00    +0.000 NA
ATOM      4  C   UNL     1       1.385   8.441  20.293  0.00  0.00    +0.000 A 
ATOM      5  N   UNL     1       1.738   8.835  19.064  0.00  0.00    +0.000 NA
ATOM      6  C   UNL     1       2.356   7.916  18.324  0.00  0.00    +0.000 A 
ATOM      7  C   UNL     1       2.661   6.626  18.707  0.00  0.00    +0.000 A 
ENDROOT
BRANCH   4   8
ATOM      8  C   UNL     1       0.656   9.381  21.179  0.00  0.00    +0.000 A 
ATOM      9  C   UNL     1       0.074   8.941  22.374  0.00  0.00    +0.000 A 
ATOM     10  C   UNL     1      -0.645   9.833  23.162  0.00  0.00    +0.000 A 
ATOM     11  C   UNL     1      -0.769  11.150  22.749  0.00  0.00    +0.000 A 
ATOM     12  C   UNL     1      -0.157  11.525  21.566  0.00  0.00    +0.000 A 
ATOM     13  N   UNL     1       0.547  10.681  20.779  0.00  0.00    +0.000 NA
ENDBRANCH   4   8
BRANCH   6  14
ATOM     14  O   UNL     1       2.649   8.362  17.075  0.00  0.00    +0.000 OA
ATOM     15  H   UNL     1       3.107   7.575  16.723  0.00  0.00    +0.000 HD
ENDBRANCH   6  14
BRANCH   7  16
ATOM     16  C   UNL     1       3.327   5.661  17.771  0.00  0.00    +0.000 C 
BRANCH  16  17
ATOM     17  C   UNL     1       4.830   5.901  17.585  0.00  0.00    +0.000 C 
BRANCH  17  18
ATOM     18  C   UNL     1       5.169   5.914  16.109  0.00  0.00    +0.000 C 
ATOM     19  O   UNL     1       5.007   6.918  15.423  0.00  0.00    +0.000 OA
ATOM     20  N   UNL     1       5.629   4.691  15.649  0.00  0.00    +0.000 N 
ATOM     21  H   UNL     1       5.523   3.882  16.252  0.00  0.00    +0.000 HD
BRANCH  20  22
ATOM     22  C   UNL     1       5.993   4.419  14.309  0.00  0.00    +0.000 A 
ATOM     23  C   UNL     1       5.194   3.680  13.434  0.00  0.00    +0.000 A 
ATOM     24  C   UNL     1       5.665   3.361  12.166  0.00  0.00    +0.000 A 
ATOM     25  F   UNL     1       4.901   2.627  11.348  0.00  0.00    +0.000 F 
ATOM     26  C   UNL     1       6.919   3.780  11.736  0.00  0.00    +0.000 A 
ATOM     27  C   UNL     1       7.702   4.569  12.577  0.00  0.00    +0.000 A 
ATOM     28  C   UNL     1       7.229   4.894  13.848  0.00  0.00    +0.000 A 
ATOM     29  F   UNL     1       7.998   5.636  14.658  0.00  0.00    +0.000 F 
ENDBRANCH  20  22
ENDBRANCH  17  18
ENDBRANCH  16  17
ENDBRANCH   7  16
TORSDOF 6
ENDMDL
MODEL 4
REMARK VINA RESULT:      -8.1      1.230      1.794
REMARK  Name = 
REMARK  7 active torsions:
REMARK  status: ('A' for Active; 'I' for Inactive)
REMARK    1  A    between atoms: C_1  and  C_2
REMARK    2  A    between atoms: C_4  and  C_5
REMARK    3  A    between atoms: C_12  and  O_13
REMARK    4  A    between atoms: C_14  and  C_15
REMARK    5  A    between atoms: C_15  and  C_16
REMARK    6  A    between atoms: C_16  and  C_17
REMARK    7  A    between atoms: N_19  and  C_20
REMARK                            x       y       z     vdW  Elec       q    Type
REMARK                         _______ _______ _______ _____ _____    ______ ____
ROOT
ATOM      1  C   UNL     1       7.663   5.639  19.686  0.00  0.00    +0.000 C 
ATOM      2  C   UNL     1       6.532   5.714  18.704  0.00  0.00    +0.000 A 
ATOM      3  N   UNL     1       5.487   4.908  18.989  0.00  0.00    +0.000 NA
ATOM      4  C   UNL     1       4.449   4.872  18.123  0.00  0.00    +0.000 A 
ATOM      5  N   UNL     1       4.390   5.597  17.000  0.00  0.00    +0.000 NA
ATOM      6  C   UNL     1       5.441   6.384  16.773  0.00  0.00    +0.000 A 
ATOM      7  C   UNL     1       6.554   6.518  17.577  0.00  0.00    +0.000 A 
ENDROOT
BRANCH   4   8
ATOM      8  C   UNL     1       3.345   3.935  18.445  0.00  0.00    +0.000 A 
ATOM      9  C   UNL     1       2.118   4.406  18.927  0.00  0.00    +0.000 A 
ATOM     10  C   UNL     1       1.116   3.504  19.267  0.00  0.00    +0.000 A 
ATOM     11  C   UNL     1       1.352   2.146  19.117  0.00  0.00    +0.000 A 
ATOM     12  C   UNL     1       2.580   1.747  18.622  0.00  0.00    +0.000 A 
ATOM     13  N   UNL     1       3.572   2.600  18.284  0.00  0.00    +0.000 NA
ENDBRANCH   4   8
BRANCH   6  14
ATOM     14  O   UNL     1       5.342   7.061  15.599  0.00  0.00    +0.000 OA
ATOM     15  H   UNL     1       6.221   6.868  15.223  0.00  0.00    +0.000 HD
ENDBRANCH   6  14
BRANCH   7  16
ATOM     16  C   UNL     1       7.699   7.410  17.198  0.00  0.00    +0.000 C 
BRANCH  16  17
ATOM     17  C   UNL     1       7.441   8.902  17.439  0.00  0.00    +0.000 C 
BRANCH  17  18
ATOM     18  C   UNL     1       8.519   9.471  18.338  0.00  0.00    +0.000 C 
ATOM     19  O   UNL     1       9.104   8.771  19.159  0.00  0.00    +0.000 OA
ATOM     20  N   UNL     1       8.722  10.828  18.147  0.00  0.00    +0.000 N 
ATOM     21  H   UNL     1       8.041  11.341  17.596  0.00  0.00    +0.000 HD
BRANCH  20  22
ATOM     22  C   UNL     1       9.650  11.613  18.870  0.00  0.00    +0.000 A 
ATOM     23  C   UNL     1       9.372  12.166  20.122  0.00  0.00    +0.000 A 
ATOM     24  C   UNL     1      10.293  13.016  20.725  0.00  0.00    +0.000 A 
ATOM     25  F   UNL     1      10.002  13.563  21.912  0.00  0.00    +0.000 F 
ATOM     26  C   UNL     1      11.504  13.319  20.113  0.00  0.00    +0.000 A 
ATOM     27  C   UNL     1      11.819  12.727  18.891  0.00  0.00    +0.000 A 
ATOM     28  C   UNL     1      10.898  11.869  18.287  0.00  0.00    +0.000 A 
ATOM     29  F   UNL     1      11.202  11.321  17.101  0.00  0.00    +0.000 F 
ENDBRANCH  20  22
ENDBRANCH  17  18
ENDBRANCH  16  17
ENDBRANCH   7  16
TORSDOF 6
ENDMDL
MODEL 5
REMARK VINA RESULT:      -7.9      1.387      2.165
REMARK  Name = 
REMARK  7 active torsions:
REMARK  status: ('A' for Active; 'I' for Inactive)
REMARK    1  A    between atoms: C_1  and  C_2
REMARK    2  A    between atoms: C_4  and  C_5
REMARK    3  A    between atoms: C_12  and  O_13
REMARK    4  A    between atoms: C_14  and  C_15
REMARK    5  A    between atoms: C_15  and  C_16
REMARK    6  A    between atoms: C_16  and  C_17
REMARK    7  A    between atoms: N_19  and  C_20
REMARK                            x       y       z     vdW  Elec       q    Type
REMARK                         _______ _______ _______ _____ _____    ______ ____
ROOT
ATOM      1  C   UNL     1       4.442   7.901  17.122  0.00  0.00    +0.000 C 
ATOM      2  C   UNL     1       4.777   6.520  17.601  0.00  0.00    +0.000 A 
ATOM      3  N   UNL     1       3.716   5.798  18.020  0.00  0.00    +0.000 NA
ATOM      4  C   UNL     1       3.937   4.563  18.522  0.00  0.00    +0.000 A 
ATOM      5  N   UNL     1       5.149   4.004  18.620  0.00  0.00    +0.000 NA
ATOM      6  C   UNL     1       6.160   4.753  18.181  0.00  0.00    +0.000 A 
ATOM      7  C   UNL     1       6.067   6.019  17.642  0.00  0.00    +0.000 A 
ENDROOT
BRANCH   4   8
ATOM      8  C   UNL     1       2.751   3.823  19.021  0.00  0.00    +0.000 A 
ATOM      9  C   UNL     1       2.070   2.917  18.200  0.00  0.00    +0.000 A 
ATOM     10  C   UNL     1       0.932   2.273  18.676  0.00  0.00    +0.000 A 
ATOM     11  C   UNL     1       0.495   2.541  19.964  0.00  0.00    +0.000 A 
ATOM     12  C   UNL     1       1.222   3.436  20.729  0.00  0.00    +0.000 A 
ATOM     13  N   UNL     1       2.329   4.076  20.294  0.00  0.00    +0.000 NA
ENDBRANCH   4   8
BRANCH   6  14
ATOM     14  O   UNL     1       7.366   4.150  18.346  0.00  0.00    +0.000 OA
ATOM     15  H   UNL     1       7.422   4.157  19.320  0.00  0.00    +0.000 HD
ENDBRANCH   6  14
BRANCH   7  16
ATOM     16  C   UNL     1       7.285   6.786  17.216  0.00  0.00    +0.000 C 
BRANCH  16  17
ATOM     17  C   UNL     1       8.126   7.327  18.378  0.00  0.00    +0.000 C 
BRANCH  17  18
ATOM     18  C   UNL     1       8.263   8.830  18.258  0.00  0.00    +0.000 C 
ATOM     19  O   UNL     1       7.563   9.478  17.485  0.00  0.00    +0.000 OA
ATOM     20  N   UNL     1       9.259   9.349  19.067  0.00  0.00    +0.000 N 
ATOM     21  H   UNL     1       9.909   8.702  19.502  0.00  0.00    +0.000 HD
BRANCH  20  22
ATOM     22  C   UNL     1       9.614  10.718  19.132  0.00  0.00    +0.000 A 
ATOM     23  C   UNL     1      10.021  11.455  18.018  0.00  0.00    +0.000 A 
ATOM     24  C   UNL     1      10.458  12.766  18.175  0.00  0.00    +0.000 A 
ATOM     25  F   UNL     1      10.872  13.452  17.103  0.00  0.00    +0.000 F 
ATOM     26  C   UNL     1      10.483  13.372  19.427  0.00  0.00    +0.000 A 
ATOM     27  C   UNL     1      10.024  12.667  20.537  0.00  0.00    +0.000 A 
ATOM     28  C   UNL     1       9.580  11.354  20.380  0.00  0.00    +0.000 A 
ATOM     29  F   UNL     1       9.159  10.676  21.459  0.00  0.00    +0.000 F 
ENDBRANCH  20  22
ENDBRANCH  17  18
ENDBRANCH  16  17
ENDBRANCH   7  16
TORSDOF 6
ENDMDL
MODEL 6
REMARK VINA RESULT:      -7.8      5.385      7.474
REMARK  Name = 
REMARK  7 active torsions:
REMARK  status: ('A' for Active; 'I' for Inactive)
REMARK    1  A    between atoms: C_1  and  C_2
REMARK    2  A    between atoms: C_4  and  C_5
REMARK    3  A    between atoms: C_12  and  O_13
REMARK    4  A    between atoms: C_14  and  C_15
REMARK    5  A    between atoms: C_15  and  C_16
REMARK    6  A    between atoms: C_16  and  C_17
REMARK    7  A    between atoms: N_19  and  C_20
REMARK                            x       y       z     vdW  Elec       q    Type
REMARK                         _______ _______ _______ _____ _____    ______ ____
ROOT
ATOM      1  C   UNL     1       3.643   2.015  17.755  0.00  0.00    +0.000 C 
ATOM      2  C   UNL     1       4.551   3.188  17.532  0.00  0.00    +0.000 A 
ATOM      3  N   UNL     1       4.989   3.327  16.262  0.00  0.00    +0.000 NA
ATOM      4  C   UNL     1       5.857   4.325  15.988  0.00  0.00    +0.000 A 
ATOM      5  N   UNL     1       6.304   5.195  16.900  0.00  0.00    +0.000 NA
ATOM      6  C   UNL     1       5.832   5.023  18.134  0.00  0.00    +0.000 A 
ATOM      7  C   UNL     1       4.940   4.053  18.541  0.00  0.00    +0.000 A 
ENDROOT
BRANCH   4   8
ATOM      8  C   UNL     1       6.356   4.410  14.593  0.00  0.00    +0.000 A 
ATOM      9  C   UNL     1       5.758   3.668  13.567  0.00  0.00    +0.000 A 
ATOM     10  C   UNL     1       6.275   3.728  12.278  0.00  0.00    +0.000 A 
ATOM     11  C   UNL     1       7.378   4.532  12.031  0.00  0.00    +0.000 A 
ATOM     12  C   UNL     1       7.912   5.252  13.085  0.00  0.00    +0.000 A 
ATOM     13  N   UNL     1       7.432   5.212  14.347  0.00  0.00    +0.000 NA
ENDBRANCH   4   8
BRANCH   6  14
ATOM     14  O   UNL     1       6.355   5.909  19.021  0.00  0.00    +0.000 OA
ATOM     15  H   UNL     1       6.273   5.388  19.842  0.00  0.00    +0.000 HD
ENDBRANCH   6  14
BRANCH   7  16
ATOM     16  C   UNL     1       4.507   3.930  19.972  0.00  0.00    +0.000 C 
BRANCH  16  17
ATOM     17  C   UNL     1       2.991   3.799  20.161  0.00  0.00    +0.000 C 
BRANCH  17  18
ATOM     18  C   UNL     1       2.289   4.978  19.520  0.00  0.00    +0.000 C 
ATOM     19  O   UNL     1       1.460   4.823  18.629  0.00  0.00    +0.000 OA
ATOM     20  N   UNL     1       2.714   6.197  20.021  0.00  0.00    +0.000 N 
ATOM     21  H   UNL     1       3.547   6.214  20.600  0.00  0.00    +0.000 HD
BRANCH  20  22
ATOM     22  C   UNL     1       2.241   7.457  19.582  0.00  0.00    +0.000 A 
ATOM     23  C   UNL     1       1.386   8.259  20.340  0.00  0.00    +0.000 A 
ATOM     24  C   UNL     1       0.876   9.435  19.800  0.00  0.00    +0.000 A 
ATOM     25  F   UNL     1       0.034  10.179  20.526  0.00  0.00    +0.000 F 
ATOM     26  C   UNL     1       1.216   9.845  18.515  0.00  0.00    +0.000 A 
ATOM     27  C   UNL     1       2.116   9.084  17.771  0.00  0.00    +0.000 A 
ATOM     28  C   UNL     1       2.632   7.907  18.313  0.00  0.00    +0.000 A 
ATOM     29  F   UNL     1       3.481   7.171  17.581  0.00  0.00    +0.000 F 
ENDBRANCH  20  22
ENDBRANCH  17  18
ENDBRANCH  16  17
ENDBRANCH   7  16
TORSDOF 6
ENDMDL
MODEL 7
REMARK VINA RESULT:      -7.8      5.142      8.530
REMARK  Name = 
REMARK  7 active torsions:
REMARK  status: ('A' for Active; 'I' for Inactive)
REMARK    1  A    between atoms: C_1  and  C_2
REMARK    2  A    between atoms: C_4  and  C_5
REMARK    3  A    between atoms: C_12  and  O_13
REMARK    4  A    between atoms: C_14  and  C_15
REMARK    5  A    between atoms: C_15  and  C_16
REMARK    6  A    between atoms: C_16  and  C_17
REMARK    7  A    between atoms: N_19  and  C_20
REMARK                            x       y       z     vdW  Elec       q    Type
REMARK                         _______ _______ _______ _____ _____    ______ ____
ROOT
ATOM      1  C   UNL     1       4.681   7.271  16.240  0.00  0.00    +0.000 C 
ATOM      2  C   UNL     1       5.596   6.117  15.953  0.00  0.00    +0.000 A 
ATOM      3  N   UNL     1       5.355   5.488  14.782  0.00  0.00    +0.000 NA
ATOM      4  C   UNL     1       6.097   4.402  14.473  0.00  0.00    +0.000 A 
ATOM      5  N   UNL     1       7.067   3.915  15.255  0.00  0.00    +0.000 NA
ATOM      6  C   UNL     1       7.273   4.579  16.391  0.00  0.00    +0.000 A 
ATOM      7  C   UNL     1       6.593   5.702  16.818  0.00  0.00    +0.000 A 
ENDROOT
BRANCH   4   8
ATOM      8  C   UNL     1       5.766   3.708  13.204  0.00  0.00    +0.000 A 
ATOM      9  C   UNL     1       4.503   3.842  12.617  0.00  0.00    +0.000 A 
ATOM     10  C   UNL     1       4.202   3.142  11.454  0.00  0.00    +0.000 A 
ATOM     11  C   UNL     1       5.168   2.322  10.892  0.00  0.00    +0.000 A 
ATOM     12  C   UNL     1       6.403   2.245  11.513  0.00  0.00    +0.000 A 
ATOM     13  N   UNL     1       6.722   2.912  12.643  0.00  0.00    +0.000 NA
ENDBRANCH   4   8
BRANCH   6  14
ATOM     14  O   UNL     1       8.239   4.013  17.160  0.00  0.00    +0.000 OA
ATOM     15  H   UNL     1       7.808   3.162  17.366  0.00  0.00    +0.000 HD
ENDBRANCH   6  14
BRANCH   7  16
ATOM     16  C   UNL     1       6.885   6.345  18.142  0.00  0.00    +0.000 C 
BRANCH  16  17
ATOM     17  C   UNL     1       6.546   5.470  19.355  0.00  0.00    +0.000 C 
BRANCH  17  18
ATOM     18  C   UNL     1       5.050   5.242  19.421  0.00  0.00    +0.000 C 
ATOM     19  O   UNL     1       4.262   6.178  19.508  0.00  0.00    +0.000 OA
ATOM     20  N   UNL     1       4.707   3.900  19.409  0.00  0.00    +0.000 N 
ATOM     21  H   UNL     1       5.444   3.216  19.546  0.00  0.00    +0.000 HD
BRANCH  20  22
ATOM     22  C   UNL     1       3.383   3.406  19.485  0.00  0.00    +0.000 A 
ATOM     23  C   UNL     1       2.700   3.233  20.690  0.00  0.00    +0.000 A 
ATOM     24  C   UNL     1       1.441   2.642  20.696  0.00  0.00    +0.000 A 
ATOM     25  F   UNL     1       0.809   2.456  21.861  0.00  0.00    +0.000 F 
ATOM     26  C   UNL     1       0.833   2.230  19.516  0.00  0.00    +0.000 A 
ATOM     27  C   UNL     1       1.479   2.450  18.300  0.00  0.00    +0.000 A 
ATOM     28  C   UNL     1       2.739   3.048  18.293  0.00  0.00    +0.000 A 
ATOM     29  F   UNL     1       3.361   3.237  17.119  0.00  0.00    +0.000 F 
ENDBRANCH  20  22
ENDBRANCH  17  18
ENDBRANCH  16  17
ENDBRANCH   7  16
TORSDOF 6
ENDMDL
MODEL 8
REMARK VINA RESULT:      -7.8      1.084      1.097
REMARK  Name = 
REMARK  7 active torsions:
REMARK  status: ('A' for Active; 'I' for Inactive)
REMARK    1  A    between atoms: C_1  and  C_2
REMARK    2  A    between atoms: C_4  and  C_5
REMARK    3  A    between atoms: C_12  and  O_13
REMARK    4  A    between atoms: C_14  and  C_15
REMARK    5  A    between atoms: C_15  and  C_16
REMARK    6  A    between atoms: C_16  and  C_17
REMARK    7  A    between atoms: N_19  and  C_20
REMARK                            x       y       z     vdW  Elec       q    Type
REMARK                         _______ _______ _______ _____ _____    ______ ____
ROOT
ATOM      1  C   UNL     1       4.528   7.374  16.637  0.00  0.00    +0.000 C 
ATOM      2  C   UNL     1       4.988   6.403  17.683  0.00  0.00    +0.000 A 
ATOM      3  N   UNL     1       3.998   5.690  18.261  0.00  0.00    +0.000 NA
ATOM      4  C   UNL     1       4.320   4.832  19.255  0.00  0.00    +0.000 A 
ATOM      5  N   UNL     1       5.568   4.638  19.696  0.00  0.00    +0.000 NA
ATOM      6  C   UNL     1       6.508   5.356  19.084  0.00  0.00    +0.000 A 
ATOM      7  C   UNL     1       6.313   6.256  18.056  0.00  0.00    +0.000 A 
ENDROOT
BRANCH   4   8
ATOM      8  C   UNL     1       3.197   4.107  19.900  0.00  0.00    +0.000 A 
ATOM      9  C   UNL     1       1.868   4.474  19.658  0.00  0.00    +0.000 A 
ATOM     10  C   UNL     1       0.837   3.811  20.313  0.00  0.00    +0.000 A 
ATOM     11  C   UNL     1       1.148   2.788  21.196  0.00  0.00    +0.000 A 
ATOM     12  C   UNL     1       2.480   2.464  21.380  0.00  0.00    +0.000 A 
ATOM     13  N   UNL     1       3.503   3.092  20.758  0.00  0.00    +0.000 NA
ENDBRANCH   4   8
BRANCH   6  14
ATOM     14  O   UNL     1       7.745   5.148  19.604  0.00  0.00    +0.000 OA
ATOM     15  H   UNL     1       8.218   4.867  18.798  0.00  0.00    +0.000 HD
ENDBRANCH   6  14
BRANCH   7  16
ATOM     16  C   UNL     1       7.448   7.041  17.468  0.00  0.00    +0.000 C 
BRANCH  16  17
ATOM     17  C   UNL     1       8.425   7.607  18.505  0.00  0.00    +0.000 C 
BRANCH  17  18
ATOM     18  C   UNL     1       8.432   9.120  18.432  0.00  0.00    +0.000 C 
ATOM     19  O   UNL     1       7.696   9.727  17.660  0.00  0.00    +0.000 OA
ATOM     20  N   UNL     1       9.360   9.698  19.282  0.00  0.00    +0.000 N 
ATOM     21  H   UNL     1      10.054   9.096  19.715  0.00  0.00    +0.000 HD
BRANCH  20  22
ATOM     22  C   UNL     1       9.592  11.089  19.395  0.00  0.00    +0.000 A 
ATOM     23  C   UNL     1       9.156  11.851  20.482  0.00  0.00    +0.000 A 
ATOM     24  C   UNL     1       9.325  13.231  20.474  0.00  0.00    +0.000 A 
ATOM     25  F   UNL     1       8.877  13.952  21.509  0.00  0.00    +0.000 F 
ATOM     26  C   UNL     1       9.940  13.876  19.407  0.00  0.00    +0.000 A 
ATOM     27  C   UNL     1      10.432  13.122  18.344  0.00  0.00    +0.000 A 
ATOM     28  C   UNL     1      10.268  11.736  18.352  0.00  0.00    +0.000 A 
ATOM     29  F   UNL     1      10.727  11.021  17.315  0.00  0.00    +0.000 F 
ENDBRANCH  20  22
ENDBRANCH  17  18
ENDBRANCH  16  17
ENDBRANCH   7  16
TORSDOF 6
ENDMDL
MODEL 9
REMARK VINA RESULT:      -7.7      5.337      7.546
REMARK  Name = 
REMARK  7 active torsions:
REMARK  status: ('A' for Active; 'I' for Inactive)
REMARK    1  A    between atoms: C_1  and  C_2
REMARK    2  A    between atoms: C_4  and  C_5
REMARK    3  A    between atoms: C_12  and  O_13
REMARK    4  A    between atoms: C_14  and  C_15
REMARK    5  A    between atoms: C_15  and  C_16
REMARK    6  A    between atoms: C_16  and  C_17
REMARK    7  A    between atoms: N_19  and  C_20
REMARK                            x       y       z     vdW  Elec       q    Type
REMARK                         _______ _______ _______ _____ _____    ______ ____
ROOT
ATOM      1  C   UNL     1       6.585   5.625  19.308  0.00  0.00    +0.000 C 
ATOM      2  C   UNL     1       5.968   4.706  18.296  0.00  0.00    +0.000 A 
ATOM      3  N   UNL     1       6.440   4.856  17.040  0.00  0.00    +0.000 NA
ATOM      4  C   UNL     1       5.896   4.106  16.056  0.00  0.00    +0.000 A 
ATOM      5  N   UNL     1       4.920   3.212  16.253  0.00  0.00    +0.000 NA
ATOM      6  C   UNL     1       4.499   3.095  17.512  0.00  0.00    +0.000 A 
ATOM      7  C   UNL     1       4.975   3.792  18.603  0.00  0.00    +0.000 A 
ENDROOT
BRANCH   4   8
ATOM      8  C   UNL     1       6.406   4.338  14.682  0.00  0.00    +0.000 A 
ATOM      9  C   UNL     1       5.895   3.620  13.594  0.00  0.00    +0.000 A 
ATOM     10  C   UNL     1       6.424   3.820  12.324  0.00  0.00    +0.000 A 
ATOM     11  C   UNL     1       7.451   4.737  12.158  0.00  0.00    +0.000 A 
ATOM     12  C   UNL     1       7.900   5.425  13.271  0.00  0.00    +0.000 A 
ATOM     13  N   UNL     1       7.406   5.250  14.517  0.00  0.00    +0.000 NA
ENDBRANCH   4   8
BRANCH   6  14
ATOM     14  O   UNL     1       3.480   2.206  17.641  0.00  0.00    +0.000 OA
ATOM     15  H   UNL     1       3.728   1.792  18.488  0.00  0.00    +0.000 HD
ENDBRANCH   6  14
BRANCH   7  16
ATOM     16  C   UNL     1       4.394   3.604  19.974  0.00  0.00    +0.000 C 
BRANCH  16  17
ATOM     17  C   UNL     1       2.863   3.520  20.002  0.00  0.00    +0.000 C 
BRANCH  17  18
ATOM     18  C   UNL     1       2.269   4.755  19.358  0.00  0.00    +0.000 C 
ATOM     19  O   UNL     1       1.521   4.675  18.388  0.00  0.00    +0.000 OA
ATOM     20  N   UNL     1       2.689   5.931  19.955  0.00  0.00    +0.000 N 
ATOM     21  H   UNL     1       3.465   5.887  20.609  0.00  0.00    +0.000 HD
BRANCH  20  22
ATOM     22  C   UNL     1       2.306   7.229  19.538  0.00  0.00    +0.000 A 
ATOM     23  C   UNL     1       1.518   8.080  20.316  0.00  0.00    +0.000 A 
ATOM     24  C   UNL     1       1.092   9.297  19.796  0.00  0.00    +0.000 A 
ATOM     25  F   UNL     1       0.313  10.091  20.541  0.00  0.00    +0.000 F 
ATOM     26  C   UNL     1       1.449   9.699  18.514  0.00  0.00    +0.000 A 
ATOM     27  C   UNL     1       2.284   8.885  17.750  0.00  0.00    +0.000 A 
ATOM     28  C   UNL     1       2.717   7.666  18.272  0.00  0.00    +0.000 A 
ATOM     29  F   UNL     1       3.503   6.880  17.521  0.00  0.00    +0.000 F 
ENDBRANCH  20  22
ENDBRANCH  17  18
ENDBRANCH  16  17
ENDBRANCH   7  16
TORSDOF 6
ENDMDL
