MODEL 1
REMARK VINA RESULT:      -7.6      0.000      0.000
REMARK  Name = 
REMARK  7 active torsions:
REMARK  status: ('A' for Active; 'I' for Inactive)
REMARK    1  A    between atoms: C_1  and  C_2
REMARK    2  A    between atoms: N_4  and  C_5
REMARK    3  A    between atoms: C_8  and  N_9
REMARK    4  A    between atoms: C_10  and  C_12
REMARK    5  A    between atoms: C_17  and  O_18
REMARK    6  A    between atoms: O_18  and  C_19
REMARK    7  A    between atoms: C_19  and  C_20
REMARK                            x       y       z     vdW  Elec       q    Type
REMARK                         _______ _______ _______ _____ _____    ______ ____
ROOT
ATOM      1  C   UNL     1       5.340   6.119  16.618  0.00  0.00    +0.000 A 
ATOM      2  C   UNL     1       5.005   5.876  15.270  0.00  0.00    +0.000 A 
ATOM      3  C   UNL     1       5.768   5.022  14.478  0.00  0.00    +0.000 A 
ATOM      4  C   UNL     1       6.877   4.393  15.020  0.00  0.00    +0.000 A 
ATOM      5  C   UNL     1       7.182   4.563  16.370  0.00  0.00    +0.000 A 
ATOM      6  C   UNL     1       6.393   5.380  17.198  0.00  0.00    +0.000 A 
ENDROOT
BRANCH   1   8
ATOM      7  N   UNL     1       3.354   6.791  17.875  0.00  0.00    +0.000 N 
ATOM      8  C   UNL     1       4.598   7.182  17.383  0.00  0.00    +0.000 C 
ATOM      9  O   UNL     1       5.088   8.290  17.572  0.00  0.00    +0.000 OA
ATOM     10  H   UNL     1       3.081   5.822  17.844  0.00  0.00    +0.000 HD
BRANCH   7  14
ATOM     11  C   UNL     1       0.753   9.548  19.701  0.00  0.00    +0.000 A 
ATOM     12  C   UNL     1       1.314   8.506  20.445  0.00  0.00    +0.000 A 
ATOM     13  C   UNL     1       2.126   7.545  19.835  0.00  0.00    +0.000 A 
ATOM     14  C   UNL     1       2.425   7.649  18.482  0.00  0.00    +0.000 A 
ATOM     15  C   UNL     1       1.878   8.690  17.729  0.00  0.00    +0.000 A 
ATOM     16  C   UNL     1       1.002   9.606  18.325  0.00  0.00    +0.000 A 
BRANCH  11  20
ATOM     17  C   UNL     1      -0.719  12.493  21.541  0.00  0.00    +0.000 C 
ATOM     18  C   UNL     1       0.398  11.650  20.985  0.00  0.00    +0.000 C 
ATOM     19  O   UNL     1       1.567  11.970  21.170  0.00  0.00    +0.000 OA
ATOM     20  N   UNL     1      -0.059  10.551  20.275  0.00  0.00    +0.000 N 
ATOM     21  H   UNL     1      -1.044  10.525  20.044  0.00  0.00    +0.000 HD
ENDBRANCH  11  20
ENDBRANCH   7  14
ENDBRANCH   1   8
BRANCH   6  22
ATOM     22  O   UNL     1       6.645   5.493  18.544  0.00  0.00    +0.000 OA
BRANCH  22  23
ATOM     23  C   UNL     1       6.342   4.321  19.326  0.00  0.00    +0.000 C 
BRANCH  23  24
ATOM     24  C   UNL     1       4.909   3.910  19.258  0.00  0.00    +0.000 A 
ATOM     25  C   UNL     1       4.304   2.971  18.447  0.00  0.00    +0.000 A 
ATOM     26  N   UNL     1       2.982   2.963  18.807  0.00  0.00    +0.000 N 
ATOM     27  C   UNL     1       1.933   2.201  18.305  0.00  0.00    +0.000 A 
ATOM     28  C   UNL     1       0.703   2.353  18.820  0.00  0.00    +0.000 A 
ATOM     29  C   UNL     1       0.508   3.314  19.897  0.00  0.00    +0.000 A 
ATOM     30  C   UNL     1       1.528   4.052  20.378  0.00  0.00    +0.000 A 
ATOM     31  C   UNL     1       2.834   3.896  19.829  0.00  0.00    +0.000 A 
ATOM     32  N   UNL     1       3.981   4.481  20.112  0.00  0.00    +0.000 NA
ENDBRANCH  23  24
ENDBRANCH  22  23
ENDBRANCH   6  22
TORSDOF 6
ENDMDL
MODEL 2
REMARK VINA RESULT:      -7.6      2.183      4.841
REMARK  Name = 
REMARK  7 active torsions:
REMARK  status: ('A' for Active; 'I' for Inactive)
REMARK    1  A    between atoms: C_1  and  C_2
REMARK    2  A    between atoms: N_4  and  C_5
REMARK    3  A    between atoms: C_8  and  N_9
REMARK    4  A    between atoms: C_10  and  C_12
REMARK    5  A    between atoms: C_17  and  O_18
REMARK    6  A    between atoms: O_18  and  C_19
REMARK    7  A    between atoms: C_19  and  C_20
REMARK                            x       y       z     vdW  Elec       q    Type
REMARK                         _______ _______ _______ _____ _____    ______ ____
ROOT
ATOM      1  C   UNL     1       2.253   4.580  19.825  0.00  0.00    +0.000 A 
ATOM      2  C   UNL     1       2.146   4.472  21.227  0.00  0.00    +0.000 A 
ATOM      3  C   UNL     1       2.116   3.231  21.857  0.00  0.00    +0.000 A 
ATOM      4  C   UNL     1       2.194   2.074  21.097  0.00  0.00    +0.000 A 
ATOM      5  C   UNL     1       2.372   2.162  19.717  0.00  0.00    +0.000 A 
ATOM      6  C   UNL     1       2.458   3.406  19.070  0.00  0.00    +0.000 A 
ENDROOT
BRANCH   1   8
ATOM      7  N   UNL     1       2.031   7.003  20.062  0.00  0.00    +0.000 N 
ATOM      8  C   UNL     1       2.102   5.929  19.175  0.00  0.00    +0.000 C 
ATOM      9  O   UNL     1       2.079   6.050  17.955  0.00  0.00    +0.000 OA
ATOM     10  H   UNL     1       2.233   6.865  21.038  0.00  0.00    +0.000 HD
BRANCH   7  14
ATOM     11  C   UNL     1       0.918  10.894  18.913  0.00  0.00    +0.000 A 
ATOM     12  C   UNL     1       1.709  10.108  18.072  0.00  0.00    +0.000 A 
ATOM     13  C   UNL     1       2.141   8.839  18.470  0.00  0.00    +0.000 A 
ATOM     14  C   UNL     1       1.740   8.326  19.698  0.00  0.00    +0.000 A 
ATOM     15  C   UNL     1       0.942   9.097  20.545  0.00  0.00    +0.000 A 
ATOM     16  C   UNL     1       0.576  10.398  20.176  0.00  0.00    +0.000 A 
BRANCH  11  20
ATOM     17  C   UNL     1       0.198  14.570  18.471  0.00  0.00    +0.000 C 
ATOM     18  C   UNL     1       0.977  13.381  18.967  0.00  0.00    +0.000 C 
ATOM     19  O   UNL     1       1.978  13.541  19.657  0.00  0.00    +0.000 OA
ATOM     20  N   UNL     1       0.444  12.173  18.548  0.00  0.00    +0.000 N 
ATOM     21  H   UNL     1      -0.266  12.206  17.826  0.00  0.00    +0.000 HD
ENDBRANCH  11  20
ENDBRANCH   7  14
ENDBRANCH   1   8
BRANCH   6  22
ATOM     22  O   UNL     1       2.707   3.497  17.722  0.00  0.00    +0.000 OA
BRANCH  22  23
ATOM     23  C   UNL     1       4.044   3.139  17.318  0.00  0.00    +0.000 C 
BRANCH  23  24
ATOM     24  C   UNL     1       5.035   4.243  17.482  0.00  0.00    +0.000 A 
ATOM     25  C   UNL     1       5.185   5.404  16.750  0.00  0.00    +0.000 A 
ATOM     26  N   UNL     1       6.222   6.083  17.333  0.00  0.00    +0.000 N 
ATOM     27  C   UNL     1       6.781   7.308  16.990  0.00  0.00    +0.000 A 
ATOM     28  C   UNL     1       7.799   7.794  17.716  0.00  0.00    +0.000 A 
ATOM     29  C   UNL     1       8.284   7.019  18.850  0.00  0.00    +0.000 A 
ATOM     30  C   UNL     1       7.739   5.830  19.177  0.00  0.00    +0.000 A 
ATOM     31  C   UNL     1       6.662   5.310  18.404  0.00  0.00    +0.000 A 
ATOM     32  N   UNL     1       5.964   4.196  18.508  0.00  0.00    +0.000 NA
ENDBRANCH  23  24
ENDBRANCH  22  23
ENDBRANCH   6  22
TORSDOF 6
ENDMDL
MODEL 3
REMARK VINA RESULT:      -7.5      2.152      4.999
REMARK  Name = 
REMARK  7 active torsions:
REMARK  status: ('A' for Active; 'I' for Inactive)
REMARK    1  A    between atoms: C_1  and  C_2
REMARK    2  A    between atoms: N_4  and  C_5
REMARK    3  A    between atoms: C_8  and  N_9
REMARK    4  A    between atoms: C_10  and  C_12
REMARK    5  A    between atoms: C_17  and  O_18
REMARK    6  A    between atoms: O_18  and  C_19
REMARK    7  A    between atoms: C_19  and  C_20
REMARK                            x       y       z     vdW  Elec       q    Type
REMARK                         _______ _______ _______ _____ _____    ______ ____
ROOT
ATOM      1  C   UNL     1       2.095   4.846  20.191  0.00  0.00    +0.000 A 
ATOM      2  C   UNL     1       2.122   4.226  21.457  0.00  0.00    +0.000 A 
ATOM      3  C   UNL     1       1.899   2.859  21.596  0.00  0.00    +0.000 A 
ATOM      4  C   UNL     1       1.649   2.086  20.474  0.00  0.00    +0.000 A 
ATOM      5  C   UNL     1       1.691   2.669  19.207  0.00  0.00    +0.000 A 
ATOM      6  C   UNL     1       1.965   4.036  19.043  0.00  0.00    +0.000 A 
ENDROOT
BRANCH   1   8
ATOM      7  N   UNL     1       1.275   7.024  20.940  0.00  0.00    +0.000 N 
ATOM      8  C   UNL     1       2.161   6.347  20.103  0.00  0.00    +0.000 C 
ATOM      9  O   UNL     1       2.966   6.908  19.368  0.00  0.00    +0.000 OA
ATOM     10  H   UNL     1       0.766   6.520  21.648  0.00  0.00    +0.000 HD
BRANCH   7  14
ATOM     11  C   UNL     1       0.351  11.128  20.899  0.00  0.00    +0.000 A 
ATOM     12  C   UNL     1       0.734  10.478  19.723  0.00  0.00    +0.000 A 
ATOM     13  C   UNL     1       1.108   9.131  19.736  0.00  0.00    +0.000 A 
ATOM     14  C   UNL     1       1.052   8.408  20.922  0.00  0.00    +0.000 A 
ATOM     15  C   UNL     1       0.663   9.044  22.103  0.00  0.00    +0.000 A 
ATOM     16  C   UNL     1       0.365  10.412  22.101  0.00  0.00    +0.000 A 
BRANCH  11  20
ATOM     17  C   UNL     1      -1.403  14.459  20.665  0.00  0.00    +0.000 C 
ATOM     18  C   UNL     1      -1.311  12.957  20.610  0.00  0.00    +0.000 C 
ATOM     19  O   UNL     1      -2.295  12.286  20.316  0.00  0.00    +0.000 OA
ATOM     20  N   UNL     1      -0.050  12.482  20.933  0.00  0.00    +0.000 N 
ATOM     21  H   UNL     1       0.602  13.139  21.342  0.00  0.00    +0.000 HD
ENDBRANCH  11  20
ENDBRANCH   7  14
ENDBRANCH   1   8
BRANCH   6  22
ATOM     22  O   UNL     1       2.080   4.600  17.794  0.00  0.00    +0.000 OA
BRANCH  22  23
ATOM     23  C   UNL     1       3.231   4.180  17.034  0.00  0.00    +0.000 C 
BRANCH  23  24
ATOM     24  C   UNL     1       4.453   4.993  17.302  0.00  0.00    +0.000 A 
ATOM     25  C   UNL     1       4.873   6.168  16.710  0.00  0.00    +0.000 A 
ATOM     26  N   UNL     1       6.040   6.508  17.341  0.00  0.00    +0.000 N 
ATOM     27  C   UNL     1       6.873   7.602  17.131  0.00  0.00    +0.000 A 
ATOM     28  C   UNL     1       7.975   7.743  17.882  0.00  0.00    +0.000 A 
ATOM     29  C   UNL     1       8.263   6.743  18.901  0.00  0.00    +0.000 A 
ATOM     30  C   UNL     1       7.454   5.684  19.098  0.00  0.00    +0.000 A 
ATOM     31  C   UNL     1       6.285   5.528  18.298  0.00  0.00    +0.000 A 
ATOM     32  N   UNL     1       5.344   4.605  18.288  0.00  0.00    +0.000 NA
ENDBRANCH  23  24
ENDBRANCH  22  23
ENDBRANCH   6  22
TORSDOF 6
ENDMDL
MODEL 4
REMARK VINA RESULT:      -7.5      2.139      4.989
REMARK  Name = 
REMARK  7 active torsions:
REMARK  status: ('A' for Active; 'I' for Inactive)
REMARK    1  A    between atoms: C_1  and  C_2
REMARK    2  A    between atoms: N_4  and  C_5
REMARK    3  A    between atoms: C_8  and  N_9
REMARK    4  A    between atoms: C_10  and  C_12
REMARK    5  A    between atoms: C_17  and  O_18
REMARK    6  A    between atoms: O_18  and  C_19
REMARK    7  A    between atoms: C_19  and  C_20
REMARK                            x       y       z     vdW  Elec       q    Type
REMARK                         _______ _______ _______ _____ _____    ______ ____
ROOT
ATOM      1  C   UNL     1       1.975   4.914  20.265  0.00  0.00    +0.000 A 
ATOM      2  C   UNL     1       2.074   4.278  21.519  0.00  0.00    +0.000 A 
ATOM      3  C   UNL     1       1.904   2.902  21.647  0.00  0.00    +0.000 A 
ATOM      4  C   UNL     1       1.634   2.137  20.524  0.00  0.00    +0.000 A 
ATOM      5  C   UNL     1       1.603   2.738  19.266  0.00  0.00    +0.000 A 
ATOM      6  C   UNL     1       1.825   4.116  19.111  0.00  0.00    +0.000 A 
ENDROOT
BRANCH   1   8
ATOM      7  N   UNL     1       1.170   7.053  21.131  0.00  0.00    +0.000 N 
ATOM      8  C   UNL     1       1.987   6.418  20.198  0.00  0.00    +0.000 C 
ATOM      9  O   UNL     1       2.696   7.014  19.395  0.00  0.00    +0.000 OA
ATOM     10  H   UNL     1       0.750   6.524  21.878  0.00  0.00    +0.000 HD
BRANCH   7  14
ATOM     11  C   UNL     1       0.123  11.128  21.184  0.00  0.00    +0.000 A 
ATOM     12  C   UNL     1       0.725  10.567  20.054  0.00  0.00    +0.000 A 
ATOM     13  C   UNL     1       1.138   9.232  20.049  0.00  0.00    +0.000 A 
ATOM     14  C   UNL     1       0.904   8.430  21.160  0.00  0.00    +0.000 A 
ATOM     15  C   UNL     1       0.296   8.976  22.292  0.00  0.00    +0.000 A 
ATOM     16  C   UNL     1      -0.046  10.333  22.323  0.00  0.00    +0.000 A 
BRANCH  11  20
ATOM     17  C   UNL     1      -0.316  14.858  21.527  0.00  0.00    +0.000 C 
ATOM     18  C   UNL     1       0.472  13.577  21.452  0.00  0.00    +0.000 C 
ATOM     19  O   UNL     1       1.692  13.592  21.570  0.00  0.00    +0.000 OA
ATOM     20  N   UNL     1      -0.326  12.466  21.230  0.00  0.00    +0.000 N 
ATOM     21  H   UNL     1      -1.287  12.633  20.960  0.00  0.00    +0.000 HD
ENDBRANCH  11  20
ENDBRANCH   7  14
ENDBRANCH   1   8
BRANCH   6  22
ATOM     22  O   UNL     1       1.869   4.700  17.868  0.00  0.00    +0.000 OA
BRANCH  22  23
ATOM     23  C   UNL     1       2.995   4.324  17.051  0.00  0.00    +0.000 C 
BRANCH  23  24
ATOM     24  C   UNL     1       4.273   4.981  17.455  0.00  0.00    +0.000 A 
ATOM     25  C   UNL     1       5.207   4.584  18.391  0.00  0.00    +0.000 A 
ATOM     26  N   UNL     1       6.201   5.525  18.349  0.00  0.00    +0.000 N 
ATOM     27  C   UNL     1       7.377   5.602  19.087  0.00  0.00    +0.000 A 
ATOM     28  C   UNL     1       8.224   6.620  18.872  0.00  0.00    +0.000 A 
ATOM     29  C   UNL     1       7.882   7.615  17.864  0.00  0.00    +0.000 A 
ATOM     30  C   UNL     1       6.740   7.537  17.154  0.00  0.00    +0.000 A 
ATOM     31  C   UNL     1       5.837   6.459  17.384  0.00  0.00    +0.000 A 
ATOM     32  N   UNL     1       4.677   6.153  16.837  0.00  0.00    +0.000 NA
ENDBRANCH  23  24
ENDBRANCH  22  23
ENDBRANCH   6  22
TORSDOF 6
ENDMDL
MODEL 5
REMARK VINA RESULT:      -7.5      2.220      4.965
REMARK  Name = 
REMARK  7 active torsions:
REMARK  status: ('A' for Active; 'I' for Inactive)
REMARK    1  A    between atoms: C_1  and  C_2
REMARK    2  A    between atoms: N_4  and  C_5
REMARK    3  A    between atoms: C_8  and  N_9
REMARK    4  A    between atoms: C_10  and  C_12
REMARK    5  A    between atoms: C_17  and  O_18
REMARK    6  A    between atoms: O_18  and  C_19
REMARK    7  A    between atoms: C_19  and  C_20
REMARK                            x       y       z     vdW  Elec       q    Type
REMARK                         _______ _______ _______ _____ _____    ______ ____
ROOT
ATOM      1  C   UNL     1       2.063   4.714  19.888  0.00  0.00    +0.000 A 
ATOM      2  C   UNL     1       1.862   4.115  21.149  0.00  0.00    +0.000 A 
ATOM      3  C   UNL     1       1.410   2.803  21.261  0.00  0.00    +0.000 A 
ATOM      4  C   UNL     1       1.152   2.065  20.117  0.00  0.00    +0.000 A 
ATOM      5  C   UNL     1       1.414   2.616  18.863  0.00  0.00    +0.000 A 
ATOM      6  C   UNL     1       1.921   3.920  18.731  0.00  0.00    +0.000 A 
ENDROOT
BRANCH   1   8
ATOM      7  N   UNL     1       1.283   7.029  19.984  0.00  0.00    +0.000 N 
ATOM      8  C   UNL     1       2.379   6.184  19.812  0.00  0.00    +0.000 C 
ATOM      9  O   UNL     1       3.526   6.582  19.644  0.00  0.00    +0.000 OA
ATOM     10  H   UNL     1       0.401   6.655  20.295  0.00  0.00    +0.000 HD
BRANCH   7  14
ATOM     11  C   UNL     1       1.095  11.196  19.432  0.00  0.00    +0.000 A 
ATOM     12  C   UNL     1       1.488  10.360  18.383  0.00  0.00    +0.000 A 
ATOM     13  C   UNL     1       1.620   8.982  18.572  0.00  0.00    +0.000 A 
ATOM     14  C   UNL     1       1.307   8.420  19.804  0.00  0.00    +0.000 A 
ATOM     15  C   UNL     1       0.904   9.242  20.859  0.00  0.00    +0.000 A 
ATOM     16  C   UNL     1       0.849  10.630  20.688  0.00  0.00    +0.000 A 
BRANCH  11  20
ATOM     17  C   UNL     1      -0.057  14.718  18.731  0.00  0.00    +0.000 C 
ATOM     18  C   UNL     1      -0.225  13.228  18.868  0.00  0.00    +0.000 C 
ATOM     19  O   UNL     1      -1.308  12.702  18.632  0.00  0.00    +0.000 OA
ATOM     20  N   UNL     1       0.933  12.590  19.284  0.00  0.00    +0.000 N 
ATOM     21  H   UNL     1       1.685  13.174  19.626  0.00  0.00    +0.000 HD
ENDBRANCH  11  20
ENDBRANCH   7  14
ENDBRANCH   1   8
BRANCH   6  22
ATOM     22  O   UNL     1       2.249   4.440  17.502  0.00  0.00    +0.000 OA
BRANCH  22  23
ATOM     23  C   UNL     1       3.493   3.968  16.948  0.00  0.00    +0.000 C 
BRANCH  23  24
ATOM     24  C   UNL     1       4.654   4.862  17.234  0.00  0.00    +0.000 A 
ATOM     25  C   UNL     1       4.965   6.095  16.696  0.00  0.00    +0.000 A 
ATOM     26  N   UNL     1       6.116   6.496  17.322  0.00  0.00    +0.000 N 
ATOM     27  C   UNL     1       6.855   7.662  17.153  0.00  0.00    +0.000 A 
ATOM     28  C   UNL     1       7.959   7.853  17.889  0.00  0.00    +0.000 A 
ATOM     29  C   UNL     1       8.348   6.829  18.850  0.00  0.00    +0.000 A 
ATOM     30  C   UNL     1       7.630   5.700  19.007  0.00  0.00    +0.000 A 
ATOM     31  C   UNL     1       6.459   5.492  18.222  0.00  0.00    +0.000 A 
ATOM     32  N   UNL     1       5.595   4.498  18.182  0.00  0.00    +0.000 NA
ENDBRANCH  23  24
ENDBRANCH  22  23
ENDBRANCH   6  22
TORSDOF 6
ENDMDL
MODEL 6
REMARK VINA RESULT:      -7.4      2.101      4.984
REMARK  Name = 
REMARK  7 active torsions:
REMARK  status: ('A' for Active; 'I' for Inactive)
REMARK    1  A    between atoms: C_1  and  C_2
REMARK    2  A    between atoms: N_4  and  C_5
REMARK    3  A    between atoms: C_8  and  N_9
REMARK    4  A    between atoms: C_10  and  C_12
REMARK    5  A    between atoms: C_17  and  O_18
REMARK    6  A    between atoms: O_18  and  C_19
REMARK    7  A    between atoms: C_19  and  C_20
REMARK                            x       y       z     vdW  Elec       q    Type
REMARK                         _______ _______ _______ _____ _____    ______ ____
ROOT
ATOM      1  C   UNL     1       2.062   4.756  20.199  0.00  0.00    +0.000 A 
ATOM      2  C   UNL     1       2.071   4.040  21.413  0.00  0.00    +0.000 A 
ATOM      3  C   UNL     1       1.801   2.675  21.449  0.00  0.00    +0.000 A 
ATOM      4  C   UNL     1       1.521   2.000  20.272  0.00  0.00    +0.000 A 
ATOM      5  C   UNL     1       1.579   2.676  19.053  0.00  0.00    +0.000 A 
ATOM      6  C   UNL     1       1.901   4.042  18.993  0.00  0.00    +0.000 A 
ENDROOT
BRANCH   1   8
ATOM      7  N   UNL     1       1.213   6.908  20.990  0.00  0.00    +0.000 N 
ATOM      8  C   UNL     1       2.181   6.257  20.226  0.00  0.00    +0.000 C 
ATOM      9  O   UNL     1       3.089   6.835  19.639  0.00  0.00    +0.000 OA
ATOM     10  H   UNL     1       0.604   6.377  21.591  0.00  0.00    +0.000 HD
BRANCH   7  14
ATOM     11  C   UNL     1       0.417  11.035  21.168  0.00  0.00    +0.000 A 
ATOM     12  C   UNL     1       0.724  10.426  19.948  0.00  0.00    +0.000 A 
ATOM     13  C   UNL     1       1.056   9.070  19.885  0.00  0.00    +0.000 A 
ATOM     14  C   UNL     1       1.033   8.298  21.041  0.00  0.00    +0.000 A 
ATOM     15  C   UNL     1       0.720   8.892  22.265  0.00  0.00    +0.000 A 
ATOM     16  C   UNL     1       0.465  10.267  22.336  0.00  0.00    +0.000 A 
BRANCH  11  20
ATOM     17  C   UNL     1       0.260  14.794  21.442  0.00  0.00    +0.000 C 
ATOM     18  C   UNL     1       0.935  13.469  21.203  0.00  0.00    +0.000 C 
ATOM     19  O   UNL     1       2.136  13.420  20.961  0.00  0.00    +0.000 OA
ATOM     20  N   UNL     1       0.060  12.397  21.278  0.00  0.00    +0.000 N 
ATOM     21  H   UNL     1      -0.930  12.607  21.292  0.00  0.00    +0.000 HD
ENDBRANCH  11  20
ENDBRANCH   7  14
ENDBRANCH   1   8
BRANCH   6  22
ATOM     22  O   UNL     1       2.031   4.695  17.791  0.00  0.00    +0.000 OA
BRANCH  22  23
ATOM     23  C   UNL     1       3.164   4.295  16.994  0.00  0.00    +0.000 C 
BRANCH  23  24
ATOM     24  C   UNL     1       4.401   5.081  17.274  0.00  0.00    +0.000 A 
ATOM     25  C   UNL     1       4.822   6.277  16.729  0.00  0.00    +0.000 A 
ATOM     26  N   UNL     1       6.005   6.576  17.351  0.00  0.00    +0.000 N 
ATOM     27  C   UNL     1       6.846   7.669  17.175  0.00  0.00    +0.000 A 
ATOM     28  C   UNL     1       7.965   7.764  17.909  0.00  0.00    +0.000 A 
ATOM     29  C   UNL     1       8.261   6.714  18.875  0.00  0.00    +0.000 A 
ATOM     30  C   UNL     1       7.443   5.655  19.040  0.00  0.00    +0.000 A 
ATOM     31  C   UNL     1       6.257   5.550  18.257  0.00  0.00    +0.000 A 
ATOM     32  N   UNL     1       5.306   4.638  18.223  0.00  0.00    +0.000 NA
ENDBRANCH  23  24
ENDBRANCH  22  23
ENDBRANCH   6  22
TORSDOF 6
ENDMDL
MODEL 7
REMARK VINA RESULT:      -7.3      2.184      4.901
REMARK  Name = 
REMARK  7 active torsions:
REMARK  status: ('A' for Active; 'I' for Inactive)
REMARK    1  A    between atoms: C_1  and  C_2
REMARK    2  A    between atoms: N_4  and  C_5
REMARK    3  A    between atoms: C_8  and  N_9
REMARK    4  A    between atoms: C_10  and  C_12
REMARK    5  A    between atoms: C_17  and  O_18
REMARK    6  A    between atoms: O_18  and  C_19
REMARK    7  A    between atoms: C_19  and  C_20
REMARK                            x       y       z     vdW  Elec       q    Type
REMARK                         _______ _______ _______ _____ _____    ______ ____
ROOT
ATOM      1  C   UNL     1       2.139   4.908  20.177  0.00  0.00    +0.000 A 
ATOM      2  C   UNL     1       2.203   4.400  21.491  0.00  0.00    +0.000 A 
ATOM      3  C   UNL     1       1.984   3.051  21.755  0.00  0.00    +0.000 A 
ATOM      4  C   UNL     1       1.700   2.184  20.712  0.00  0.00    +0.000 A 
ATOM      5  C   UNL     1       1.703   2.654  19.399  0.00  0.00    +0.000 A 
ATOM      6  C   UNL     1       1.974   4.002  19.108  0.00  0.00    +0.000 A 
ENDROOT
BRANCH   1   8
ATOM      7  N   UNL     1       1.318   7.142  20.734  0.00  0.00    +0.000 N 
ATOM      8  C   UNL     1       2.203   6.396  19.957  0.00  0.00    +0.000 C 
ATOM      9  O   UNL     1       3.005   6.890  19.173  0.00  0.00    +0.000 OA
ATOM     10  H   UNL     1       0.812   6.703  21.485  0.00  0.00    +0.000 HD
BRANCH   7  14
ATOM     11  C   UNL     1       0.901  11.305  20.282  0.00  0.00    +0.000 A 
ATOM     12  C   UNL     1       0.806  10.717  21.547  0.00  0.00    +0.000 A 
ATOM     13  C   UNL     1       0.876   9.330  21.702  0.00  0.00    +0.000 A 
ATOM     14  C   UNL     1       1.094   8.520  20.594  0.00  0.00    +0.000 A 
ATOM     15  C   UNL     1       1.199   9.094  19.325  0.00  0.00    +0.000 A 
ATOM     16  C   UNL     1       1.050  10.477  19.164  0.00  0.00    +0.000 A 
BRANCH  11  20
ATOM     17  C   UNL     1       0.100  14.864  19.326  0.00  0.00    +0.000 C 
ATOM     18  C   UNL     1      -0.183  13.392  19.470  0.00  0.00    +0.000 C 
ATOM     19  O   UNL     1      -1.246  12.923  19.078  0.00  0.00    +0.000 OA
ATOM     20  N   UNL     1       0.853  12.701  20.078  0.00  0.00    +0.000 N 
ATOM     21  H   UNL     1       1.579  13.250  20.521  0.00  0.00    +0.000 HD
ENDBRANCH  11  20
ENDBRANCH   7  14
ENDBRANCH   1   8
BRANCH   6  22
ATOM     22  O   UNL     1       2.051   4.454  17.812  0.00  0.00    +0.000 OA
BRANCH  22  23
ATOM     23  C   UNL     1       3.208   4.012  17.075  0.00  0.00    +0.000 C 
BRANCH  23  24
ATOM     24  C   UNL     1       4.421   4.850  17.308  0.00  0.00    +0.000 A 
ATOM     25  C   UNL     1       4.838   5.992  16.654  0.00  0.00    +0.000 A 
ATOM     26  N   UNL     1       5.996   6.378  17.276  0.00  0.00    +0.000 N 
ATOM     27  C   UNL     1       6.822   7.465  17.012  0.00  0.00    +0.000 A 
ATOM     28  C   UNL     1       7.915   7.659  17.765  0.00  0.00    +0.000 A 
ATOM     29  C   UNL     1       8.199   6.722  18.843  0.00  0.00    +0.000 A 
ATOM     30  C   UNL     1       7.396   5.669  19.093  0.00  0.00    +0.000 A 
ATOM     31  C   UNL     1       6.237   5.457  18.291  0.00  0.00    +0.000 A 
ATOM     32  N   UNL     1       5.304   4.527  18.325  0.00  0.00    +0.000 NA
ENDBRANCH  23  24
ENDBRANCH  22  23
ENDBRANCH   6  22
TORSDOF 6
ENDMDL
MODEL 8
REMARK VINA RESULT:      -7.3      2.203      4.899
REMARK  Name = 
REMARK  7 active torsions:
REMARK  status: ('A' for Active; 'I' for Inactive)
REMARK    1  A    between atoms: C_1  and  C_2
REMARK    2  A    between atoms: N_4  and  C_5
REMARK    3  A    between atoms: C_8  and  N_9
REMARK    4  A    between atoms: C_10  and  C_12
REMARK    5  A    between atoms: C_17  and  O_18
REMARK    6  A    between atoms: O_18  and  C_19
REMARK    7  A    between atoms: C_19  and  C_20
REMARK                            x       y       z     vdW  Elec       q    Type
REMARK                         _______ _______ _______ _____ _____    ______ ____
ROOT
ATOM      1  C   UNL     1       2.120   4.836  19.910  0.00  0.00    +0.000 A 
ATOM      2  C   UNL     1       2.139   4.579  21.297  0.00  0.00    +0.000 A 
ATOM      3  C   UNL     1       2.054   3.281  21.792  0.00  0.00    +0.000 A 
ATOM      4  C   UNL     1       1.951   2.216  20.912  0.00  0.00    +0.000 A 
ATOM      5  C   UNL     1       2.003   2.445  19.537  0.00  0.00    +0.000 A 
ATOM      6  C   UNL     1       2.141   3.743  19.018  0.00  0.00    +0.000 A 
ENDROOT
BRANCH   1   8
ATOM      7  N   UNL     1       1.757   7.201  20.414  0.00  0.00    +0.000 N 
ATOM      8  C   UNL     1       2.032   6.258  19.424  0.00  0.00    +0.000 C 
ATOM      9  O   UNL     1       2.226   6.543  18.248  0.00  0.00    +0.000 OA
ATOM     10  H   UNL     1       1.785   6.935  21.385  0.00  0.00    +0.000 HD
BRANCH   7  14
ATOM     11  C   UNL     1       0.679  11.208  19.722  0.00  0.00    +0.000 A 
ATOM     12  C   UNL     1       1.117  10.402  18.668  0.00  0.00    +0.000 A 
ATOM     13  C   UNL     1       1.542   9.089  18.896  0.00  0.00    +0.000 A 
ATOM     14  C   UNL     1       1.482   8.556  20.178  0.00  0.00    +0.000 A 
ATOM     15  C   UNL     1       1.039   9.348  21.239  0.00  0.00    +0.000 A 
ATOM     16  C   UNL     1       0.689  10.686  21.021  0.00  0.00    +0.000 A 
BRANCH  11  20
ATOM     17  C   UNL     1       0.203  14.863  18.921  0.00  0.00    +0.000 C 
ATOM     18  C   UNL     1       0.914  13.536  18.876  0.00  0.00    +0.000 C 
ATOM     19  O   UNL     1       1.983  13.426  18.285  0.00  0.00    +0.000 OA
ATOM     20  N   UNL     1       0.226  12.533  19.539  0.00  0.00    +0.000 N 
ATOM     21  H   UNL     1      -0.730  12.727  19.809  0.00  0.00    +0.000 HD
ENDBRANCH  11  20
ENDBRANCH   7  14
ENDBRANCH   1   8
BRANCH   6  22
ATOM     22  O   UNL     1       2.267   3.966  17.668  0.00  0.00    +0.000 OA
BRANCH  22  23
ATOM     23  C   UNL     1       3.527   3.567  17.094  0.00  0.00    +0.000 C 
BRANCH  23  24
ATOM     24  C   UNL     1       4.665   4.454  17.473  0.00  0.00    +0.000 A 
ATOM     25  C   UNL     1       5.600   4.302  18.478  0.00  0.00    +0.000 A 
ATOM     26  N   UNL     1       6.438   5.381  18.375  0.00  0.00    +0.000 N 
ATOM     27  C   UNL     1       7.549   5.714  19.143  0.00  0.00    +0.000 A 
ATOM     28  C   UNL     1       8.238   6.828  18.854  0.00  0.00    +0.000 A 
ATOM     29  C   UNL     1       7.799   7.655  17.738  0.00  0.00    +0.000 A 
ATOM     30  C   UNL     1       6.720   7.328  16.999  0.00  0.00    +0.000 A 
ATOM     31  C   UNL     1       5.984   6.148  17.307  0.00  0.00    +0.000 A 
ATOM     32  N   UNL     1       4.915   5.610  16.753  0.00  0.00    +0.000 NA
ENDBRANCH  23  24
ENDBRANCH  22  23
ENDBRANCH   6  22
TORSDOF 6
ENDMDL
MODEL 9
REMARK VINA RESULT:      -7.3      2.155      4.861
REMARK  Name = 
REMARK  7 active torsions:
REMARK  status: ('A' for Active; 'I' for Inactive)
REMARK    1  A    between atoms: C_1  and  C_2
REMARK    2  A    between atoms: N_4  and  C_5
REMARK    3  A    between atoms: C_8  and  N_9
REMARK    4  A    between atoms: C_10  and  C_12
REMARK    5  A    between atoms: C_17  and  O_18
REMARK    6  A    between atoms: O_18  and  C_19
REMARK    7  A    between atoms: C_19  and  C_20
REMARK                            x       y       z     vdW  Elec       q    Type
REMARK                         _______ _______ _______ _____ _____    ______ ____
ROOT
ATOM      1  C   UNL     1       2.941   5.447  19.720  0.00  0.00    +0.000 A 
ATOM      2  C   UNL     1       2.205   4.665  20.634  0.00  0.00    +0.000 A 
ATOM      3  C   UNL     1       2.531   3.333  20.872  0.00  0.00    +0.000 A 
ATOM      4  C   UNL     1       3.601   2.759  20.203  0.00  0.00    +0.000 A 
ATOM      5  C   UNL     1       4.384   3.536  19.351  0.00  0.00    +0.000 A 
ATOM      6  C   UNL     1       4.102   4.895  19.138  0.00  0.00    +0.000 A 
ENDROOT
BRANCH   1   8
ATOM      7  N   UNL     1       1.969   7.574  20.433  0.00  0.00    +0.000 N 
ATOM      8  C   UNL     1       2.446   6.823  19.360  0.00  0.00    +0.000 C 
ATOM      9  O   UNL     1       2.501   7.239  18.208  0.00  0.00    +0.000 OA
ATOM     10  H   UNL     1       2.112   7.253  21.377  0.00  0.00    +0.000 HD
BRANCH   7  14
ATOM     11  C   UNL     1       0.263  11.399  20.037  0.00  0.00    +0.000 A 
ATOM     12  C   UNL     1       0.473  10.847  21.303  0.00  0.00    +0.000 A 
ATOM     13  C   UNL     1       0.977   9.551  21.447  0.00  0.00    +0.000 A 
ATOM     14  C   UNL     1       1.323   8.814  20.320  0.00  0.00    +0.000 A 
ATOM     15  C   UNL     1       1.126   9.358  19.049  0.00  0.00    +0.000 A 
ATOM     16  C   UNL     1       0.549  10.625  18.907  0.00  0.00    +0.000 A 
BRANCH  11  20
ATOM     17  C   UNL     1      -0.298  15.116  19.721  0.00  0.00    +0.000 C 
ATOM     18  C   UNL     1       0.530  13.868  19.886  0.00  0.00    +0.000 C 
ATOM     19  O   UNL     1       1.745  13.946  20.027  0.00  0.00    +0.000 OA
ATOM     20  N   UNL     1      -0.228  12.709  19.843  0.00  0.00    +0.000 N 
ATOM     21  H   UNL     1      -1.186  12.793  19.527  0.00  0.00    +0.000 HD
ENDBRANCH  11  20
ENDBRANCH   7  14
ENDBRANCH   1   8
BRANCH   6  22
ATOM     22  O   UNL     1       4.914   5.683  18.357  0.00  0.00    +0.000 OA
BRANCH  22  23
ATOM     23  C   UNL     1       6.180   5.095  18.000  0.00  0.00    +0.000 C 
BRANCH  23  24
ATOM     24  C   UNL     1       6.314   4.803  16.542  0.00  0.00    +0.000 A 
ATOM     25  C   UNL     1       5.557   3.973  15.740  0.00  0.00    +0.000 A 
ATOM     26  N   UNL     1       6.082   4.089  14.480  0.00  0.00    +0.000 N 
ATOM     27  C   UNL     1       5.692   3.469  13.299  0.00  0.00    +0.000 A 
ATOM     28  C   UNL     1       6.352   3.742  12.163  0.00  0.00    +0.000 A 
ATOM     29  C   UNL     1       7.459   4.688  12.206  0.00  0.00    +0.000 A 
ATOM     30  C   UNL     1       7.835   5.284  13.354  0.00  0.00    +0.000 A 
ATOM     31  C   UNL     1       7.138   4.992  14.563  0.00  0.00    +0.000 A 
ATOM     32  N   UNL     1       7.298   5.429  15.796  0.00  0.00    +0.000 NA
ENDBRANCH  23  24
ENDBRANCH  22  23
ENDBRANCH   6  22
TORSDOF 6
ENDMDL
