MODEL 1
REMARK VINA RESULT:      -8.8      0.000      0.000
REMARK  Name = 
REMARK  5 active torsions:
REMARK  status: ('A' for Active; 'I' for Inactive)
REMARK    1  A    between atoms: C_2  and  C_3
REMARK    2  A    between atoms: C_7  and  N_8
REMARK    3  A    between atoms: C_13  and  C_14
REMARK    4  A    between atoms: C_14  and  N_15
REMARK    5  A    between atoms: C_23  and  C_24
REMARK                            x       y       z     vdW  Elec       q    Type
REMARK                         _______ _______ _______ _____ _____    ______ ____
ROOT
ATOM      1  N   UNL     1       4.411   5.306  17.333  0.00  0.00    +0.000 N 
ATOM      2  C   UNL     1       3.873   4.281  18.224  0.00  0.00    +0.000 C 
ATOM      3  C   UNL     1       2.981   5.056  19.149  0.00  0.00    +0.000 A 
ATOM      4  C   UNL     1       3.041   6.403  18.808  0.00  0.00    +0.000 A 
ATOM      5  C   UNL     1       2.337   7.392  19.465  0.00  0.00    +0.000 A 
ATOM      6  C   UNL     1       1.518   7.008  20.529  0.00  0.00    +0.000 A 
ATOM      7  C   UNL     1       1.443   5.642  20.890  0.00  0.00    +0.000 A 
ATOM      8  C   UNL     1       2.179   4.645  20.210  0.00  0.00    +0.000 A 
ATOM      9  C   UNL     1       3.947   6.575  17.677  0.00  0.00    +0.000 C 
ATOM     10  O   UNL     1       4.192   7.676  17.219  0.00  0.00    +0.000 OA
ENDROOT
BRANCH   1  15
ATOM     11  C   UNL     1       5.651   4.218  13.977  0.00  0.00    +0.000 A 
ATOM     12  C   UNL     1       7.023   4.438  14.105  0.00  0.00    +0.000 A 
ATOM     13  C   UNL     1       7.528   4.953  15.293  0.00  0.00    +0.000 A 
ATOM     14  C   UNL     1       6.661   5.238  16.352  0.00  0.00    +0.000 A 
ATOM     15  C   UNL     1       5.279   5.020  16.248  0.00  0.00    +0.000 A 
ATOM     16  C   UNL     1       4.784   4.514  15.039  0.00  0.00    +0.000 A 
BRANCH  11  18
ATOM     17  C   UNL     1       4.687   3.222  11.740  0.00  0.00    +0.000 C 
ATOM     18  C   UNL     1       5.123   3.679  12.763  0.00  0.00    +0.000 C 
ENDBRANCH  11  18
ENDBRANCH   1  15
BRANCH   8  19
ATOM     19  C   UNL     1       2.074   3.211  20.657  0.00  0.00    +0.000 C 
ATOM     20  F   UNL     1       1.213   3.030  21.697  0.00  0.00    +0.000 F 
ATOM     21  F   UNL     1       1.635   2.388  19.667  0.00  0.00    +0.000 F 
ATOM     22  F   UNL     1       3.267   2.704  21.070  0.00  0.00    +0.000 F 
ENDBRANCH   8  19
BRANCH   6  23
ATOM     23  C   UNL     1       0.717   8.057  21.271  0.00  0.00    +0.000 C 
BRANCH  23  24
ATOM     24  N   UNL     1       0.712   9.382  20.613  0.00  0.00    +0.000 NA
ATOM     25  C   UNL     1      -0.533   9.542  19.839  0.00  0.00    +0.000 C 
ATOM     26  C   UNL     1      -0.886  10.969  19.434  0.00  0.00    +0.000 C 
ATOM     27  C   UNL     1       0.332  11.726  18.954  0.00  0.00    +0.000 C 
ATOM     28  C   UNL     1       1.129  12.268  20.102  0.00  0.00    +0.000 C 
ATOM     29  N   UNL     1       1.366  11.716  21.234  0.00  0.00    +0.000 NA
ATOM     30  C   UNL     1       0.882  10.408  21.644  0.00  0.00    +0.000 C 
ENDBRANCH  23  24
ENDBRANCH   6  23
TORSDOF 5
ENDMDL
MODEL 2
REMARK VINA RESULT:      -8.2      3.448      5.329
REMARK  Name = 
REMARK  5 active torsions:
REMARK  status: ('A' for Active; 'I' for Inactive)
REMARK    1  A    between atoms: C_2  and  C_3
REMARK    2  A    between atoms: C_7  and  N_8
REMARK    3  A    between atoms: C_13  and  C_14
REMARK    4  A    between atoms: C_14  and  N_15
REMARK    5  A    between atoms: C_23  and  C_24
REMARK                            x       y       z     vdW  Elec       q    Type
REMARK                         _______ _______ _______ _____ _____    ______ ____
ROOT
ATOM      1  N   UNL     1       2.355   7.129  19.675  0.00  0.00    +0.000 N 
ATOM      2  C   UNL     1       1.719   7.574  20.912  0.00  0.00    +0.000 C 
ATOM      3  C   UNL     1       0.989   8.819  20.501  0.00  0.00    +0.000 A 
ATOM      4  C   UNL     1       1.223   9.053  19.151  0.00  0.00    +0.000 A 
ATOM      5  C   UNL     1       0.697  10.123  18.456  0.00  0.00    +0.000 A 
ATOM      6  C   UNL     1      -0.119  11.015  19.157  0.00  0.00    +0.000 A 
ATOM      7  C   UNL     1      -0.368  10.793  20.532  0.00  0.00    +0.000 A 
ATOM      8  C   UNL     1       0.187   9.694  21.228  0.00  0.00    +0.000 A 
ATOM      9  C   UNL     1       2.091   8.006  18.623  0.00  0.00    +0.000 C 
ATOM     10  O   UNL     1       2.467   8.014  17.465  0.00  0.00    +0.000 OA
ENDROOT
BRANCH   1  15
ATOM     11  C   UNL     1       5.149   4.769  18.898  0.00  0.00    +0.000 A 
ATOM     12  C   UNL     1       4.629   3.561  19.365  0.00  0.00    +0.000 A 
ATOM     13  C   UNL     1       3.364   3.536  19.942  0.00  0.00    +0.000 A 
ATOM     14  C   UNL     1       2.621   4.715  20.041  0.00  0.00    +0.000 A 
ATOM     15  C   UNL     1       3.122   5.940  19.574  0.00  0.00    +0.000 A 
ATOM     16  C   UNL     1       4.404   5.951  19.010  0.00  0.00    +0.000 A 
BRANCH  11  18
ATOM     17  C   UNL     1       7.538   4.827  17.795  0.00  0.00    +0.000 C 
ATOM     18  C   UNL     1       6.445   4.803  18.295  0.00  0.00    +0.000 C 
ENDBRANCH  11  18
ENDBRANCH   1  15
BRANCH   8  19
ATOM     19  C   UNL     1      -0.099   9.527  22.696  0.00  0.00    +0.000 C 
ATOM     20  F   UNL     1      -0.716  10.604  23.255  0.00  0.00    +0.000 F 
ATOM     21  F   UNL     1      -0.910   8.464  22.950  0.00  0.00    +0.000 F 
ATOM     22  F   UNL     1       1.030   9.324  23.428  0.00  0.00    +0.000 F 
ENDBRANCH   8  19
BRANCH   6  23
ATOM     23  C   UNL     1      -0.727  12.196  18.433  0.00  0.00    +0.000 C 
BRANCH  23  24
ATOM     24  N   UNL     1      -1.998  11.885  17.741  0.00  0.00    +0.000 NA
ATOM     25  C   UNL     1      -1.850  10.632  16.980  0.00  0.00    +0.000 C 
ATOM     26  C   UNL     1      -3.148   9.961  16.543  0.00  0.00    +0.000 C 
ATOM     27  C   UNL     1      -4.148  10.973  16.028  0.00  0.00    +0.000 C 
ATOM     28  C   UNL     1      -4.888  11.634  17.150  0.00  0.00    +0.000 C 
ATOM     29  N   UNL     1      -4.436  11.998  18.293  0.00  0.00    +0.000 NA
ATOM     30  C   UNL     1      -3.064  11.826  18.743  0.00  0.00    +0.000 C 
ENDBRANCH  23  24
ENDBRANCH   6  23
TORSDOF 5
ENDMDL
MODEL 3
REMARK VINA RESULT:      -8.2      1.015      1.447
REMARK  Name = 
REMARK  5 active torsions:
REMARK  status: ('A' for Active; 'I' for Inactive)
REMARK    1  A    between atoms: C_2  and  C_3
REMARK    2  A    between atoms: C_7  and  N_8
REMARK    3  A    between atoms: C_13  and  C_14
REMARK    4  A    between atoms: C_14  and  N_15
REMARK    5  A    between atoms: C_23  and  C_24
REMARK                            x       y       z     vdW  Elec       q    Type
REMARK                         _______ _______ _______ _____ _____    ______ ____
ROOT
ATOM      1  N   UNL     1       4.401   5.107  16.897  0.00  0.00    +0.000 N 
ATOM      2  C   UNL     1       3.591   4.100  17.576  0.00  0.00    +0.000 C 
ATOM      3  C   UNL     1       2.858   4.887  18.621  0.00  0.00    +0.000 A 
ATOM      4  C   UNL     1       3.250   6.219  18.539  0.00  0.00    +0.000 A 
ATOM      5  C   UNL     1       2.763   7.214  19.363  0.00  0.00    +0.000 A 
ATOM      6  C   UNL     1       1.821   6.854  20.329  0.00  0.00    +0.000 A 
ATOM      7  C   UNL     1       1.409   5.504  20.428  0.00  0.00    +0.000 A 
ATOM      8  C   UNL     1       1.926   4.497  19.579  0.00  0.00    +0.000 A 
ATOM      9  C   UNL     1       4.230   6.368  17.468  0.00  0.00    +0.000 C 
ATOM     10  O   UNL     1       4.750   7.442  17.226  0.00  0.00    +0.000 OA
ENDROOT
BRANCH   1  15
ATOM     11  C   UNL     1       5.536   4.011  13.507  0.00  0.00    +0.000 A 
ATOM     12  C   UNL     1       6.911   4.237  13.589  0.00  0.00    +0.000 A 
ATOM     13  C   UNL     1       7.451   4.759  14.758  0.00  0.00    +0.000 A 
ATOM     14  C   UNL     1       6.619   5.044  15.843  0.00  0.00    +0.000 A 
ATOM     15  C   UNL     1       5.235   4.820  15.785  0.00  0.00    +0.000 A 
ATOM     16  C   UNL     1       4.703   4.308  14.595  0.00  0.00    +0.000 A 
BRANCH  11  18
ATOM     17  C   UNL     1       4.490   3.012  11.309  0.00  0.00    +0.000 C 
ATOM     18  C   UNL     1       4.972   3.465  12.313  0.00  0.00    +0.000 C 
ENDBRANCH  11  18
ENDBRANCH   1  15
BRANCH   8  19
ATOM     19  C   UNL     1       1.464   3.075  19.750  0.00  0.00    +0.000 C 
ATOM     20  F   UNL     1       2.486   2.185  19.886  0.00  0.00    +0.000 F 
ATOM     21  F   UNL     1       0.683   2.911  20.852  0.00  0.00    +0.000 F 
ATOM     22  F   UNL     1       0.726   2.635  18.695  0.00  0.00    +0.000 F 
ENDBRANCH   8  19
BRANCH   6  23
ATOM     23  C   UNL     1       1.250   7.914  21.246  0.00  0.00    +0.000 C 
BRANCH  23  24
ATOM     24  N   UNL     1       0.422   8.924  20.552  0.00  0.00    +0.000 NA
ATOM     25  C   UNL     1       0.007   9.963  21.511  0.00  0.00    +0.000 C 
ATOM     26  C   UNL     1      -0.502  11.265  20.903  0.00  0.00    +0.000 C 
ATOM     27  C   UNL     1      -1.412  11.007  19.722  0.00  0.00    +0.000 C 
ATOM     28  C   UNL     1      -0.628  10.750  18.471  0.00  0.00    +0.000 C 
ATOM     29  N   UNL     1       0.466  10.095  18.341  0.00  0.00    +0.000 NA
ATOM     30  C   UNL     1       1.192   9.456  19.426  0.00  0.00    +0.000 C 
ENDBRANCH  23  24
ENDBRANCH   6  23
TORSDOF 5
ENDMDL
MODEL 4
REMARK VINA RESULT:      -8.1      3.358      5.520
REMARK  Name = 
REMARK  5 active torsions:
REMARK  status: ('A' for Active; 'I' for Inactive)
REMARK    1  A    between atoms: C_2  and  C_3
REMARK    2  A    between atoms: C_7  and  N_8
REMARK    3  A    between atoms: C_13  and  C_14
REMARK    4  A    between atoms: C_14  and  N_15
REMARK    5  A    between atoms: C_23  and  C_24
REMARK                            x       y       z     vdW  Elec       q    Type
REMARK                         _______ _______ _______ _____ _____    ______ ____
ROOT
ATOM      1  N   UNL     1       1.931   8.215  18.988  0.00  0.00    +0.000 N 
ATOM      2  C   UNL     1       1.354   8.261  20.329  0.00  0.00    +0.000 C 
ATOM      3  C   UNL     1       0.752   9.633  20.402  0.00  0.00    +0.000 A 
ATOM      4  C   UNL     1       0.997  10.297  19.205  0.00  0.00    +0.000 A 
ATOM      5  C   UNL     1       0.577  11.586  18.943  0.00  0.00    +0.000 A 
ATOM      6  C   UNL     1      -0.138  12.251  19.941  0.00  0.00    +0.000 A 
ATOM      7  C   UNL     1      -0.397  11.592  21.166  0.00  0.00    +0.000 A 
ATOM      8  C   UNL     1       0.049  10.274  21.419  0.00  0.00    +0.000 A 
ATOM      9  C   UNL     1       1.750   9.421  18.313  0.00  0.00    +0.000 C 
ATOM     10  O   UNL     1       2.115   9.794  17.213  0.00  0.00    +0.000 OA
ENDROOT
BRANCH   1  15
ATOM     11  C   UNL     1       2.667   4.661  18.087  0.00  0.00    +0.000 A 
ATOM     12  C   UNL     1       3.874   4.794  17.399  0.00  0.00    +0.000 A 
ATOM     13  C   UNL     1       4.431   6.056  17.229  0.00  0.00    +0.000 A 
ATOM     14  C   UNL     1       3.785   7.178  17.754  0.00  0.00    +0.000 A 
ATOM     15  C   UNL     1       2.573   7.068  18.453  0.00  0.00    +0.000 A 
ATOM     16  C   UNL     1       2.017   5.791  18.603  0.00  0.00    +0.000 A 
BRANCH  11  18
ATOM     17  C   UNL     1       1.604   2.280  18.442  0.00  0.00    +0.000 C 
ATOM     18  C   UNL     1       2.091   3.366  18.275  0.00  0.00    +0.000 C 
ENDBRANCH  11  18
ENDBRANCH   1  15
BRANCH   8  19
ATOM     19  C   UNL     1      -0.240   9.637  22.752  0.00  0.00    +0.000 C 
ATOM     20  F   UNL     1      -0.904   8.452  22.653  0.00  0.00    +0.000 F 
ATOM     21  F   UNL     1       0.892   9.369  23.456  0.00  0.00    +0.000 F 
ATOM     22  F   UNL     1      -1.006  10.426  23.552  0.00  0.00    +0.000 F 
ENDBRANCH   8  19
BRANCH   6  23
ATOM     23  C   UNL     1      -0.629  13.661  19.693  0.00  0.00    +0.000 C 
BRANCH  23  24
ATOM     24  N   UNL     1       0.436  14.605  19.290  0.00  0.00    +0.000 NA
ATOM     25  C   UNL     1      -0.174  15.826  18.734  0.00  0.00    +0.000 C 
ATOM     26  C   UNL     1       0.740  17.044  18.643  0.00  0.00    +0.000 C 
ATOM     27  C   UNL     1       2.118  16.666  18.145  0.00  0.00    +0.000 C 
ATOM     28  C   UNL     1       2.974  16.130  19.251  0.00  0.00    +0.000 C 
ATOM     29  N   UNL     1       2.629  15.369  20.223  0.00  0.00    +0.000 NA
ATOM     30  C   UNL     1       1.284  14.866  20.455  0.00  0.00    +0.000 C 
ENDBRANCH  23  24
ENDBRANCH   6  23
TORSDOF 5
ENDMDL
MODEL 5
REMARK VINA RESULT:      -8.0      3.124      5.284
REMARK  Name = 
REMARK  5 active torsions:
REMARK  status: ('A' for Active; 'I' for Inactive)
REMARK    1  A    between atoms: C_2  and  C_3
REMARK    2  A    between atoms: C_7  and  N_8
REMARK    3  A    between atoms: C_13  and  C_14
REMARK    4  A    between atoms: C_14  and  N_15
REMARK    5  A    between atoms: C_23  and  C_24
REMARK                            x       y       z     vdW  Elec       q    Type
REMARK                         _______ _______ _______ _____ _____    ______ ____
ROOT
ATOM      1  N   UNL     1       1.972   7.896  19.286  0.00  0.00    +0.000 N 
ATOM      2  C   UNL     1       1.359   8.078  20.599  0.00  0.00    +0.000 C 
ATOM      3  C   UNL     1       0.750   9.446  20.513  0.00  0.00    +0.000 A 
ATOM      4  C   UNL     1       1.025   9.983  19.260  0.00  0.00    +0.000 A 
ATOM      5  C   UNL     1       0.608  11.235  18.854  0.00  0.00    +0.000 A 
ATOM      6  C   UNL     1      -0.136  11.997  19.758  0.00  0.00    +0.000 A 
ATOM      7  C   UNL     1      -0.426  11.467  21.038  0.00  0.00    +0.000 A 
ATOM      8  C   UNL     1       0.017  10.185  21.438  0.00  0.00    +0.000 A 
ATOM      9  C   UNL     1       1.805   9.024  18.484  0.00  0.00    +0.000 C 
ATOM     10  O   UNL     1       2.198   9.283  17.362  0.00  0.00    +0.000 OA
ENDROOT
BRANCH   1  15
ATOM     11  C   UNL     1       4.146   5.504  17.406  0.00  0.00    +0.000 A 
ATOM     12  C   UNL     1       3.922   4.318  18.105  0.00  0.00    +0.000 A 
ATOM     13  C   UNL     1       3.064   4.318  19.198  0.00  0.00    +0.000 A 
ATOM     14  C   UNL     1       2.425   5.500  19.582  0.00  0.00    +0.000 A 
ATOM     15  C   UNL     1       2.632   6.703  18.890  0.00  0.00    +0.000 A 
ATOM     16  C   UNL     1       3.512   6.690  17.800  0.00  0.00    +0.000 A 
BRANCH  11  18
ATOM     17  C   UNL     1       5.762   5.518  15.328  0.00  0.00    +0.000 C 
ATOM     18  C   UNL     1       5.020   5.512  16.274  0.00  0.00    +0.000 C 
ENDBRANCH  11  18
ENDBRANCH   1  15
BRANCH   8  19
ATOM     19  C   UNL     1      -0.306   9.687  22.822  0.00  0.00    +0.000 C 
ATOM     20  F   UNL     1      -1.085  10.545  23.538  0.00  0.00    +0.000 F 
ATOM     21  F   UNL     1      -0.978   8.505  22.805  0.00  0.00    +0.000 F 
ATOM     22  F   UNL     1       0.808   9.479  23.575  0.00  0.00    +0.000 F 
ENDBRANCH   8  19
BRANCH   6  23
ATOM     23  C   UNL     1      -0.625  13.369  19.352  0.00  0.00    +0.000 C 
BRANCH  23  24
ATOM     24  N   UNL     1       0.461  14.340  19.092  0.00  0.00    +0.000 NA
ATOM     25  C   UNL     1      -0.120  15.620  18.649  0.00  0.00    +0.000 C 
ATOM     26  C   UNL     1       0.804  16.831  18.722  0.00  0.00    +0.000 C 
ATOM     27  C   UNL     1       2.198  16.495  18.237  0.00  0.00    +0.000 C 
ATOM     28  C   UNL     1       3.008  15.834  19.311  0.00  0.00    +0.000 C 
ATOM     29  N   UNL     1       2.622  14.977  20.182  0.00  0.00    +0.000 NA
ATOM     30  C   UNL     1       1.266  14.466  20.308  0.00  0.00    +0.000 C 
ENDBRANCH  23  24
ENDBRANCH   6  23
TORSDOF 5
ENDMDL
MODEL 6
REMARK VINA RESULT:      -8.0      3.287      5.226
REMARK  Name = 
REMARK  5 active torsions:
REMARK  status: ('A' for Active; 'I' for Inactive)
REMARK    1  A    between atoms: C_2  and  C_3
REMARK    2  A    between atoms: C_7  and  N_8
REMARK    3  A    between atoms: C_13  and  C_14
REMARK    4  A    between atoms: C_14  and  N_15
REMARK    5  A    between atoms: C_23  and  C_24
REMARK                            x       y       z     vdW  Elec       q    Type
REMARK                         _______ _______ _______ _____ _____    ______ ____
ROOT
ATOM      1  N   UNL     1       2.240   7.360  19.138  0.00  0.00    +0.000 N 
ATOM      2  C   UNL     1       1.618   7.664  20.424  0.00  0.00    +0.000 C 
ATOM      3  C   UNL     1       1.058   9.041  20.224  0.00  0.00    +0.000 A 
ATOM      4  C   UNL     1       1.367   9.470  18.938  0.00  0.00    +0.000 A 
ATOM      5  C   UNL     1       0.997  10.700  18.431  0.00  0.00    +0.000 A 
ATOM      6  C   UNL     1       0.270  11.554  19.263  0.00  0.00    +0.000 A 
ATOM      7  C   UNL     1      -0.054  11.134  20.575  0.00  0.00    +0.000 A 
ATOM      8  C   UNL     1       0.341   9.873  21.079  0.00  0.00    +0.000 A 
ATOM      9  C   UNL     1       2.121   8.428  18.250  0.00  0.00    +0.000 C 
ATOM     10  O   UNL     1       2.537   8.586  17.116  0.00  0.00    +0.000 OA
ENDROOT
BRANCH   1  15
ATOM     11  C   UNL     1       4.846   4.812  18.300  0.00  0.00    +0.000 A 
ATOM     12  C   UNL     1       4.084   3.645  18.245  0.00  0.00    +0.000 A 
ATOM     13  C   UNL     1       2.718   3.705  18.496  0.00  0.00    +0.000 A 
ATOM     14  C   UNL     1       2.117   4.932  18.790  0.00  0.00    +0.000 A 
ATOM     15  C   UNL     1       2.863   6.119  18.846  0.00  0.00    +0.000 A 
ATOM     16  C   UNL     1       4.241   6.039  18.606  0.00  0.00    +0.000 A 
BRANCH  11  18
ATOM     17  C   UNL     1       7.431   4.727  17.817  0.00  0.00    +0.000 C 
ATOM     18  C   UNL     1       6.250   4.762  18.035  0.00  0.00    +0.000 C 
ENDBRANCH  11  18
ENDBRANCH   1  15
BRANCH   8  19
ATOM     19  C   UNL     1      -0.016   9.496  22.492  0.00  0.00    +0.000 C 
ATOM     20  F   UNL     1      -0.663  10.484  23.170  0.00  0.00    +0.000 F 
ATOM     21  F   UNL     1      -0.834   8.411  22.550  0.00  0.00    +0.000 F 
ATOM     22  F   UNL     1       1.077   9.186  23.241  0.00  0.00    +0.000 F 
ENDBRANCH   8  19
BRANCH   6  23
ATOM     23  C   UNL     1      -0.167  12.906  18.745  0.00  0.00    +0.000 C 
BRANCH  23  24
ATOM     24  N   UNL     1       0.678  14.028  19.211  0.00  0.00    +0.000 NA
ATOM     25  C   UNL     1       1.950  14.027  18.466  0.00  0.00    +0.000 C 
ATOM     26  C   UNL     1       2.757  15.320  18.527  0.00  0.00    +0.000 C 
ATOM     27  C   UNL     1       2.770  15.900  19.924  0.00  0.00    +0.000 C 
ATOM     28  C   UNL     1       1.525  16.686  20.204  0.00  0.00    +0.000 C 
ATOM     29  N   UNL     1       0.324  16.423  19.843  0.00  0.00    +0.000 NA
ATOM     30  C   UNL     1      -0.079  15.271  19.052  0.00  0.00    +0.000 C 
ENDBRANCH  23  24
ENDBRANCH   6  23
TORSDOF 5
ENDMDL
MODEL 7
REMARK VINA RESULT:      -8.0      3.248      5.234
REMARK  Name = 
REMARK  5 active torsions:
REMARK  status: ('A' for Active; 'I' for Inactive)
REMARK    1  A    between atoms: C_2  and  C_3
REMARK    2  A    between atoms: C_7  and  N_8
REMARK    3  A    between atoms: C_13  and  C_14
REMARK    4  A    between atoms: C_14  and  N_15
REMARK    5  A    between atoms: C_23  and  C_24
REMARK                            x       y       z     vdW  Elec       q    Type
REMARK                         _______ _______ _______ _____ _____    ______ ____
ROOT
ATOM      1  N   UNL     1       2.129   7.590  19.009  0.00  0.00    +0.000 N 
ATOM      2  C   UNL     1       1.536   7.771  20.332  0.00  0.00    +0.000 C 
ATOM      3  C   UNL     1       1.012   9.176  20.290  0.00  0.00    +0.000 A 
ATOM      4  C   UNL     1       1.311   9.731  19.051  0.00  0.00    +0.000 A 
ATOM      5  C   UNL     1       0.968  11.017  18.684  0.00  0.00    +0.000 A 
ATOM      6  C   UNL     1       0.278  11.796  19.616  0.00  0.00    +0.000 A 
ATOM      7  C   UNL     1      -0.035  11.248  20.882  0.00  0.00    +0.000 A 
ATOM      8  C   UNL     1       0.332   9.931  21.242  0.00  0.00    +0.000 A 
ATOM      9  C   UNL     1       2.025   8.749  18.241  0.00  0.00    +0.000 C 
ATOM     10  O   UNL     1       2.426   9.016  17.124  0.00  0.00    +0.000 OA
ENDROOT
BRANCH   1  15
ATOM     11  C   UNL     1       4.670   5.020  18.052  0.00  0.00    +0.000 A 
ATOM     12  C   UNL     1       3.856   3.947  17.688  0.00  0.00    +0.000 A 
ATOM     13  C   UNL     1       2.474   4.076  17.772  0.00  0.00    +0.000 A 
ATOM     14  C   UNL     1       1.912   5.278  18.208  0.00  0.00    +0.000 A 
ATOM     15  C   UNL     1       2.712   6.372  18.574  0.00  0.00    +0.000 A 
ATOM     16  C   UNL     1       4.103   6.221  18.499  0.00  0.00    +0.000 A 
BRANCH  11  18
ATOM     17  C   UNL     1       7.287   4.804  17.877  0.00  0.00    +0.000 C 
ATOM     18  C   UNL     1       6.092   4.900  17.961  0.00  0.00    +0.000 C 
ENDBRANCH  11  18
ENDBRANCH   1  15
BRANCH   8  19
ATOM     19  C   UNL     1      -0.012   9.414  22.614  0.00  0.00    +0.000 C 
ATOM     20  F   UNL     1       1.080   9.088  23.359  0.00  0.00    +0.000 F 
ATOM     21  F   UNL     1      -0.705  10.322  23.353  0.00  0.00    +0.000 F 
ATOM     22  F   UNL     1      -0.782   8.293  22.572  0.00  0.00    +0.000 F 
ENDBRANCH   8  19
BRANCH   6  23
ATOM     23  C   UNL     1      -0.129  13.208  19.253  0.00  0.00    +0.000 C 
BRANCH  23  24
ATOM     24  N   UNL     1       1.009  14.096  18.930  0.00  0.00    +0.000 NA
ATOM     25  C   UNL     1       0.513  15.462  18.689  0.00  0.00    +0.000 C 
ATOM     26  C   UNL     1       1.561  16.569  18.739  0.00  0.00    +0.000 C 
ATOM     27  C   UNL     1       2.836  16.158  18.034  0.00  0.00    +0.000 C 
ATOM     28  C   UNL     1       3.706  15.318  18.919  0.00  0.00    +0.000 C 
ATOM     29  N   UNL     1       3.350  14.416  19.756  0.00  0.00    +0.000 NA
ATOM     30  C   UNL     1       1.976  14.021  20.027  0.00  0.00    +0.000 C 
ENDBRANCH  23  24
ENDBRANCH   6  23
TORSDOF 5
ENDMDL
MODEL 8
REMARK VINA RESULT:      -7.9      3.186      5.023
REMARK  Name = 
REMARK  5 active torsions:
REMARK  status: ('A' for Active; 'I' for Inactive)
REMARK    1  A    between atoms: C_2  and  C_3
REMARK    2  A    between atoms: C_7  and  N_8
REMARK    3  A    between atoms: C_13  and  C_14
REMARK    4  A    between atoms: C_14  and  N_15
REMARK    5  A    between atoms: C_23  and  C_24
REMARK                            x       y       z     vdW  Elec       q    Type
REMARK                         _______ _______ _______ _____ _____    ______ ____
ROOT
ATOM      1  N   UNL     1       2.316   7.537  19.219  0.00  0.00    +0.000 N 
ATOM      2  C   UNL     1       1.719   7.775  20.530  0.00  0.00    +0.000 C 
ATOM      3  C   UNL     1       0.927   9.033  20.330  0.00  0.00    +0.000 A 
ATOM      4  C   UNL     1       1.093   9.466  19.018  0.00  0.00    +0.000 A 
ATOM      5  C   UNL     1       0.498  10.600  18.504  0.00  0.00    +0.000 A 
ATOM      6  C   UNL     1      -0.318  11.349  19.355  0.00  0.00    +0.000 A 
ATOM      7  C   UNL     1      -0.499  10.924  20.693  0.00  0.00    +0.000 A 
ATOM      8  C   UNL     1       0.126   9.763  21.204  0.00  0.00    +0.000 A 
ATOM      9  C   UNL     1       1.975   8.541  18.313  0.00  0.00    +0.000 C 
ATOM     10  O   UNL     1       2.300   8.729  17.155  0.00  0.00    +0.000 OA
ENDROOT
BRANCH   1  15
ATOM     11  C   UNL     1       4.567   5.169  17.400  0.00  0.00    +0.000 A 
ATOM     12  C   UNL     1       4.705   4.144  18.336  0.00  0.00    +0.000 A 
ATOM     13  C   UNL     1       4.063   4.246  19.564  0.00  0.00    +0.000 A 
ATOM     14  C   UNL     1       3.278   5.367  19.849  0.00  0.00    +0.000 A 
ATOM     15  C   UNL     1       3.122   6.407  18.920  0.00  0.00    +0.000 A 
ATOM     16  C   UNL     1       3.788   6.296  17.693  0.00  0.00    +0.000 A 
BRANCH  11  18
ATOM     17  C   UNL     1       5.754   4.982  15.058  0.00  0.00    +0.000 C 
ATOM     18  C   UNL     1       5.216   5.069  16.130  0.00  0.00    +0.000 C 
ENDBRANCH  11  18
ENDBRANCH   1  15
BRANCH   8  19
ATOM     19  C   UNL     1      -0.089   9.378  22.643  0.00  0.00    +0.000 C 
ATOM     20  F   UNL     1      -0.783  10.308  23.355  0.00  0.00    +0.000 F 
ATOM     21  F   UNL     1      -0.788   8.218  22.772  0.00  0.00    +0.000 F 
ATOM     22  F   UNL     1       1.080   9.192  23.314  0.00  0.00    +0.000 F 
ENDBRANCH   8  19
BRANCH   6  23
ATOM     23  C   UNL     1      -1.000  12.593  18.831  0.00  0.00    +0.000 C 
BRANCH  23  24
ATOM     24  N   UNL     1      -2.371  12.358  18.328  0.00  0.00    +0.000 NA
ATOM     25  C   UNL     1      -2.359  11.231  17.377  0.00  0.00    +0.000 C 
ATOM     26  C   UNL     1      -3.715  10.603  17.073  0.00  0.00    +0.000 C 
ATOM     27  C   UNL     1      -4.786  11.656  16.889  0.00  0.00    +0.000 C 
ATOM     28  C   UNL     1      -5.321  12.131  18.205  0.00  0.00    +0.000 C 
ATOM     29  N   UNL     1      -4.679  12.335  19.295  0.00  0.00    +0.000 NA
ATOM     30  C   UNL     1      -3.251  12.130  19.476  0.00  0.00    +0.000 C 
ENDBRANCH  23  24
ENDBRANCH   6  23
TORSDOF 5
ENDMDL
MODEL 9
REMARK VINA RESULT:      -7.9      3.073      5.196
REMARK  Name = 
REMARK  5 active torsions:
REMARK  status: ('A' for Active; 'I' for Inactive)
REMARK    1  A    between atoms: C_2  and  C_3
REMARK    2  A    between atoms: C_7  and  N_8
REMARK    3  A    between atoms: C_13  and  C_14
REMARK    4  A    between atoms: C_14  and  N_15
REMARK    5  A    between atoms: C_23  and  C_24
REMARK                            x       y       z     vdW  Elec       q    Type
REMARK                         _______ _______ _______ _____ _____    ______ ____
ROOT
ATOM      1  N   UNL     1       2.199   7.398  19.367  0.00  0.00    +0.000 N 
ATOM      2  C   UNL     1       1.554   7.743  20.630  0.00  0.00    +0.000 C 
ATOM      3  C   UNL     1       0.988   9.108  20.372  0.00  0.00    +0.000 A 
ATOM      4  C   UNL     1       1.315   9.493  19.076  0.00  0.00    +0.000 A 
ATOM      5  C   UNL     1       0.945  10.701  18.519  0.00  0.00    +0.000 A 
ATOM      6  C   UNL     1       0.199  11.579  19.308  0.00  0.00    +0.000 A 
ATOM      7  C   UNL     1      -0.143  11.205  20.629  0.00  0.00    +0.000 A 
ATOM      8  C   UNL     1       0.251   9.966  21.185  0.00  0.00    +0.000 A 
ATOM      9  C   UNL     1       2.087   8.432  18.438  0.00  0.00    +0.000 C 
ATOM     10  O   UNL     1       2.520   8.552  17.307  0.00  0.00    +0.000 OA
ENDROOT
BRANCH   1  15
ATOM     11  C   UNL     1       4.171   4.682  17.718  0.00  0.00    +0.000 A 
ATOM     12  C   UNL     1       4.078   3.660  18.663  0.00  0.00    +0.000 A 
ATOM     13  C   UNL     1       3.375   3.878  19.842  0.00  0.00    +0.000 A 
ATOM     14  C   UNL     1       2.759   5.112  20.067  0.00  0.00    +0.000 A 
ATOM     15  C   UNL     1       2.835   6.152  19.129  0.00  0.00    +0.000 A 
ATOM     16  C   UNL     1       3.560   5.922  17.953  0.00  0.00    +0.000 A 
BRANCH  11  18
ATOM     17  C   UNL     1       5.476   4.278  15.468  0.00  0.00    +0.000 C 
ATOM     18  C   UNL     1       4.884   4.464  16.498  0.00  0.00    +0.000 C 
ENDBRANCH  11  18
ENDBRANCH   1  15
BRANCH   8  19
ATOM     19  C   UNL     1      -0.125   9.637  22.605  0.00  0.00    +0.000 C 
ATOM     20  F   UNL     1      -0.919   8.535  22.714  0.00  0.00    +0.000 F 
ATOM     21  F   UNL     1       0.960   9.389  23.386  0.00  0.00    +0.000 F 
ATOM     22  F   UNL     1      -0.806  10.647  23.212  0.00  0.00    +0.000 F 
ENDBRANCH   8  19
BRANCH   6  23
ATOM     23  C   UNL     1      -0.239  12.909  18.735  0.00  0.00    +0.000 C 
BRANCH  23  24
ATOM     24  N   UNL     1       0.530  14.064  19.246  0.00  0.00    +0.000 NA
ATOM     25  C   UNL     1       1.839  14.121  18.572  0.00  0.00    +0.000 C 
ATOM     26  C   UNL     1       2.585  15.448  18.677  0.00  0.00    +0.000 C 
ATOM     27  C   UNL     1       2.497  16.023  20.074  0.00  0.00    +0.000 C 
ATOM     28  C   UNL     1       1.206  16.752  20.287  0.00  0.00    +0.000 C 
ATOM     29  N   UNL     1       0.039  16.439  19.862  0.00  0.00    +0.000 NA
ATOM     30  C   UNL     1      -0.271  15.274  19.049  0.00  0.00    +0.000 C 
ENDBRANCH  23  24
ENDBRANCH   6  23
TORSDOF 5
ENDMDL
