MODEL 1
REMARK VINA RESULT:      -9.0      0.000      0.000
REMARK  Name = 
REMARK  5 active torsions:
REMARK  status: ('A' for Active; 'I' for Inactive)
REMARK    1  A    between atoms: C_2  and  O_3
REMARK    2  A    between atoms: C_2  and  C_17
REMARK    3  A    between atoms: O_3  and  C_4
REMARK    4  A    between atoms: C_4  and  C_5
REMARK    5  A    between atoms: C_8  and  C_9
REMARK                            x       y       z     vdW  Elec       q    Type
REMARK                         _______ _______ _______ _____ _____    ______ ____
ROOT
ATOM      1  O   UNL     1       4.566   5.521  19.394  0.00  0.00    +0.000 OA
ENDROOT
BRANCH   1   3
ATOM      2  O   UNL     1       5.101   3.296  19.423  0.00  0.00    +0.000 OA
ATOM      3  C   UNL     1       5.103   4.400  18.885  0.00  0.00    +0.000 C 
BRANCH   3   4
ATOM      4  C   UNL     1       5.742   4.651  17.576  0.00  0.00    +0.000 A 
ATOM      5  C   UNL     1       4.928   4.756  16.502  0.00  0.00    +0.000 A 
ATOM      6  C   UNL     1       5.511   4.862  15.204  0.00  0.00    +0.000 A 
ATOM      7  C   UNL     1       6.757   5.328  15.043  0.00  0.00    +0.000 A 
ATOM      8  N   UNL     1       7.603   5.309  16.127  0.00  0.00    +0.000 N 
ATOM      9  C   UNL     1       7.216   4.713  17.324  0.00  0.00    +0.000 A 
ATOM     10  O   UNL     1       8.057   4.225  18.072  0.00  0.00    +0.000 OA
ATOM     11  C   UNL     1       7.249   5.092  13.652  0.00  0.00    +0.000 C 
ATOM     12  C   UNL     1       6.574   3.741  13.447  0.00  0.00    +0.000 C 
ATOM     13  C   UNL     1       5.176   3.938  14.070  0.00  0.00    +0.000 C 
ATOM     14  H   UNL     1       8.600   5.274  15.954  0.00  0.00    +0.000 HD
ENDBRANCH   3   4
ENDBRANCH   1   3
BRANCH   1  15
ATOM     15  C   UNL     1       3.186   5.416  19.759  0.00  0.00    +0.000 C 
BRANCH  15  16
ATOM     16  C   UNL     1       2.496   6.719  19.463  0.00  0.00    +0.000 A 
ATOM     17  C   UNL     1       2.521   7.278  18.185  0.00  0.00    +0.000 A 
ATOM     18  C   UNL     1       1.938   8.530  17.946  0.00  0.00    +0.000 A 
ATOM     19  C   UNL     1       1.293   9.254  18.969  0.00  0.00    +0.000 A 
ATOM     20  C   UNL     1       1.258   8.651  20.243  0.00  0.00    +0.000 A 
ATOM     21  C   UNL     1       1.853   7.416  20.489  0.00  0.00    +0.000 A 
BRANCH  19  22
ATOM     22  C   UNL     1       0.693  10.586  18.732  0.00  0.00    +0.000 A 
ATOM     23  C   UNL     1      -0.676  10.742  18.442  0.00  0.00    +0.000 A 
ATOM     24  C   UNL     1      -1.241  12.014  18.246  0.00  0.00    +0.000 A 
ATOM     25  C   UNL     1      -0.451  13.152  18.345  0.00  0.00    +0.000 A 
ATOM     26  C   UNL     1       0.906  13.023  18.620  0.00  0.00    +0.000 A 
ATOM     27  C   UNL     1       1.469  11.757  18.803  0.00  0.00    +0.000 A 
ENDBRANCH  19  22
ENDBRANCH  15  16
ENDBRANCH   1  15
TORSDOF 5
ENDMDL
MODEL 2
REMARK VINA RESULT:      -8.8      0.712      1.518
REMARK  Name = 
REMARK  5 active torsions:
REMARK  status: ('A' for Active; 'I' for Inactive)
REMARK    1  A    between atoms: C_2  and  O_3
REMARK    2  A    between atoms: C_2  and  C_17
REMARK    3  A    between atoms: O_3  and  C_4
REMARK    4  A    between atoms: C_4  and  C_5
REMARK    5  A    between atoms: C_8  and  C_9
REMARK                            x       y       z     vdW  Elec       q    Type
REMARK                         _______ _______ _______ _____ _____    ______ ____
ROOT
ATOM      1  O   UNL     1       3.923   4.952  18.012  0.00  0.00    +0.000 OA
ENDROOT
BRANCH   1   3
ATOM      2  O   UNL     1       5.785   4.053  18.992  0.00  0.00    +0.000 OA
ATOM      3  C   UNL     1       5.189   4.502  18.018  0.00  0.00    +0.000 C 
BRANCH   3   4
ATOM      4  C   UNL     1       5.818   4.636  16.686  0.00  0.00    +0.000 A 
ATOM      5  C   UNL     1       4.995   4.666  15.615  0.00  0.00    +0.000 A 
ATOM      6  C   UNL     1       5.566   4.658  14.308  0.00  0.00    +0.000 A 
ATOM      7  C   UNL     1       6.816   5.090  14.098  0.00  0.00    +0.000 A 
ATOM      8  N   UNL     1       7.673   5.146  15.172  0.00  0.00    +0.000 N 
ATOM      9  C   UNL     1       7.291   4.655  16.417  0.00  0.00    +0.000 A 
ATOM     10  O   UNL     1       8.132   4.217  17.194  0.00  0.00    +0.000 OA
ATOM     11  C   UNL     1       7.290   4.734  12.726  0.00  0.00    +0.000 C 
ATOM     12  C   UNL     1       6.593   3.382  12.638  0.00  0.00    +0.000 C 
ATOM     13  C   UNL     1       5.205   3.649  13.255  0.00  0.00    +0.000 C 
ATOM     14  H   UNL     1       8.667   5.082  14.993  0.00  0.00    +0.000 HD
ENDBRANCH   3   4
ENDBRANCH   1   3
BRANCH   1  15
ATOM     15  C   UNL     1       3.407   5.315  19.296  0.00  0.00    +0.000 C 
BRANCH  15  16
ATOM     16  C   UNL     1       2.763   6.671  19.205  0.00  0.00    +0.000 A 
ATOM     17  C   UNL     1       1.971   7.168  20.240  0.00  0.00    +0.000 A 
ATOM     18  C   UNL     1       1.318   8.400  20.105  0.00  0.00    +0.000 A 
ATOM     19  C   UNL     1       1.450   9.185  18.942  0.00  0.00    +0.000 A 
ATOM     20  C   UNL     1       2.279   8.671  17.925  0.00  0.00    +0.000 A 
ATOM     21  C   UNL     1       2.915   7.438  18.046  0.00  0.00    +0.000 A 
BRANCH  19  22
ATOM     22  C   UNL     1       0.746  10.477  18.781  0.00  0.00    +0.000 A 
ATOM     23  C   UNL     1       1.438  11.703  18.776  0.00  0.00    +0.000 A 
ATOM     24  C   UNL     1       0.764  12.923  18.594  0.00  0.00    +0.000 A 
ATOM     25  C   UNL     1      -0.612  12.939  18.405  0.00  0.00    +0.000 A 
ATOM     26  C   UNL     1      -1.319  11.742  18.417  0.00  0.00    +0.000 A 
ATOM     27  C   UNL     1      -0.649  10.531  18.609  0.00  0.00    +0.000 A 
ENDBRANCH  19  22
ENDBRANCH  15  16
ENDBRANCH   1  15
TORSDOF 5
ENDMDL
MODEL 3
REMARK VINA RESULT:      -8.7      2.507      4.431
REMARK  Name = 
REMARK  5 active torsions:
REMARK  status: ('A' for Active; 'I' for Inactive)
REMARK    1  A    between atoms: C_2  and  O_3
REMARK    2  A    between atoms: C_2  and  C_17
REMARK    3  A    between atoms: O_3  and  C_4
REMARK    4  A    between atoms: C_4  and  C_5
REMARK    5  A    between atoms: C_8  and  C_9
REMARK                            x       y       z     vdW  Elec       q    Type
REMARK                         _______ _______ _______ _____ _____    ______ ____
ROOT
ATOM      1  O   UNL     1       4.497   6.924  17.421  0.00  0.00    +0.000 OA
ENDROOT
BRANCH   1   3
ATOM      2  O   UNL     1       5.094   5.297  15.926  0.00  0.00    +0.000 OA
ATOM      3  C   UNL     1       4.687   5.654  17.029  0.00  0.00    +0.000 C 
BRANCH   3   4
ATOM      4  C   UNL     1       4.316   4.696  18.092  0.00  0.00    +0.000 A 
ATOM      5  C   UNL     1       3.007   4.378  18.207  0.00  0.00    +0.000 A 
ATOM      6  C   UNL     1       2.590   3.566  19.303  0.00  0.00    +0.000 A 
ATOM      7  C   UNL     1       3.448   2.743  19.918  0.00  0.00    +0.000 A 
ATOM      8  N   UNL     1       4.794   2.982  19.774  0.00  0.00    +0.000 N 
ATOM      9  C   UNL     1       5.251   4.115  19.107  0.00  0.00    +0.000 A 
ATOM     10  O   UNL     1       6.331   4.614  19.403  0.00  0.00    +0.000 OA
ATOM     11  C   UNL     1       2.873   2.210  21.190  0.00  0.00    +0.000 C 
ATOM     12  C   UNL     1       2.121   3.474  21.593  0.00  0.00    +0.000 C 
ATOM     13  C   UNL     1       1.510   3.969  20.266  0.00  0.00    +0.000 C 
ATOM     14  H   UNL     1       5.419   2.654  20.500  0.00  0.00    +0.000 HD
ENDBRANCH   3   4
ENDBRANCH   1   3
BRANCH   1  15
ATOM     15  C   UNL     1       3.339   7.557  16.870  0.00  0.00    +0.000 C 
BRANCH  15  16
ATOM     16  C   UNL     1       2.560   8.212  17.978  0.00  0.00    +0.000 A 
ATOM     17  C   UNL     1       2.365   7.572  19.202  0.00  0.00    +0.000 A 
ATOM     18  C   UNL     1       1.573   8.165  20.195  0.00  0.00    +0.000 A 
ATOM     19  C   UNL     1       0.967   9.423  20.005  0.00  0.00    +0.000 A 
ATOM     20  C   UNL     1       1.205  10.058  18.770  0.00  0.00    +0.000 A 
ATOM     21  C   UNL     1       1.976   9.465  17.773  0.00  0.00    +0.000 A 
BRANCH  19  22
ATOM     22  C   UNL     1       0.110  10.048  21.038  0.00  0.00    +0.000 A 
ATOM     23  C   UNL     1      -0.035   9.486  22.321  0.00  0.00    +0.000 A 
ATOM     24  C   UNL     1      -0.829  10.102  23.304  0.00  0.00    +0.000 A 
ATOM     25  C   UNL     1      -1.484  11.294  23.026  0.00  0.00    +0.000 A 
ATOM     26  C   UNL     1      -1.365  11.864  21.763  0.00  0.00    +0.000 A 
ATOM     27  C   UNL     1      -0.585  11.244  20.783  0.00  0.00    +0.000 A 
ENDBRANCH  19  22
ENDBRANCH  15  16
ENDBRANCH   1  15
TORSDOF 5
ENDMDL
MODEL 4
REMARK VINA RESULT:      -8.6      2.396      3.827
REMARK  Name = 
REMARK  5 active torsions:
REMARK  status: ('A' for Active; 'I' for Inactive)
REMARK    1  A    between atoms: C_2  and  O_3
REMARK    2  A    between atoms: C_2  and  C_17
REMARK    3  A    between atoms: O_3  and  C_4
REMARK    4  A    between atoms: C_4  and  C_5
REMARK    5  A    between atoms: C_8  and  C_9
REMARK                            x       y       z     vdW  Elec       q    Type
REMARK                         _______ _______ _______ _____ _____    ______ ____
ROOT
ATOM      1  O   UNL     1       5.058   7.332  17.313  0.00  0.00    +0.000 OA
ENDROOT
BRANCH   1   3
ATOM      2  O   UNL     1       6.759   6.212  16.271  0.00  0.00    +0.000 OA
ATOM      3  C   UNL     1       5.759   6.235  16.982  0.00  0.00    +0.000 C 
BRANCH   3   4
ATOM      4  C   UNL     1       5.161   5.013  17.563  0.00  0.00    +0.000 A 
ATOM      5  C   UNL     1       4.150   4.436  16.877  0.00  0.00    +0.000 A 
ATOM      6  C   UNL     1       3.457   3.337  17.468  0.00  0.00    +0.000 A 
ATOM      7  C   UNL     1       4.040   2.577  18.404  0.00  0.00    +0.000 A 
ATOM      8  N   UNL     1       5.120   3.093  19.081  0.00  0.00    +0.000 N 
ATOM      9  C   UNL     1       5.522   4.411  18.885  0.00  0.00    +0.000 A 
ATOM     10  O   UNL     1       6.079   5.028  19.786  0.00  0.00    +0.000 OA
ATOM     11  C   UNL     1       3.048   1.677  19.067  0.00  0.00    +0.000 C 
ATOM     12  C   UNL     1       1.879   2.654  19.053  0.00  0.00    +0.000 C 
ATOM     13  C   UNL     1       1.968   3.305  17.657  0.00  0.00    +0.000 C 
ATOM     14  H   UNL     1       5.317   2.737  20.008  0.00  0.00    +0.000 HD
ENDBRANCH   3   4
ENDBRANCH   1   3
BRANCH   1  15
ATOM     15  C   UNL     1       3.720   7.366  16.807  0.00  0.00    +0.000 C 
BRANCH  15  16
ATOM     16  C   UNL     1       2.809   7.942  17.857  0.00  0.00    +0.000 A 
ATOM     17  C   UNL     1       2.158   9.160  17.662  0.00  0.00    +0.000 A 
ATOM     18  C   UNL     1       1.374   9.716  18.681  0.00  0.00    +0.000 A 
ATOM     19  C   UNL     1       1.198   9.066  19.919  0.00  0.00    +0.000 A 
ATOM     20  C   UNL     1       1.844   7.823  20.076  0.00  0.00    +0.000 A 
ATOM     21  C   UNL     1       2.639   7.275  19.073  0.00  0.00    +0.000 A 
BRANCH  19  22
ATOM     22  C   UNL     1       0.390   9.656  21.010  0.00  0.00    +0.000 A 
ATOM     23  C   UNL     1       0.080   8.934  22.178  0.00  0.00    +0.000 A 
ATOM     24  C   UNL     1      -0.665   9.513  23.220  0.00  0.00    +0.000 A 
ATOM     25  C   UNL     1      -1.105  10.826  23.118  0.00  0.00    +0.000 A 
ATOM     26  C   UNL     1      -0.820  11.557  21.970  0.00  0.00    +0.000 A 
ATOM     27  C   UNL     1      -0.090  10.976  20.929  0.00  0.00    +0.000 A 
ENDBRANCH  19  22
ENDBRANCH  15  16
ENDBRANCH   1  15
TORSDOF 5
ENDMDL
MODEL 5
REMARK VINA RESULT:      -8.5      1.191      1.705
REMARK  Name = 
REMARK  5 active torsions:
REMARK  status: ('A' for Active; 'I' for Inactive)
REMARK    1  A    between atoms: C_2  and  O_3
REMARK    2  A    between atoms: C_2  and  C_17
REMARK    3  A    between atoms: O_3  and  C_4
REMARK    4  A    between atoms: C_4  and  C_5
REMARK    5  A    between atoms: C_8  and  C_9
REMARK                            x       y       z     vdW  Elec       q    Type
REMARK                         _______ _______ _______ _____ _____    ______ ____
ROOT
ATOM      1  O   UNL     1       3.979   3.477  17.896  0.00  0.00    +0.000 OA
ENDROOT
BRANCH   1   3
ATOM      2  O   UNL     1       5.803   4.094  19.132  0.00  0.00    +0.000 OA
ATOM      3  C   UNL     1       5.225   3.950  18.058  0.00  0.00    +0.000 C 
BRANCH   3   4
ATOM      4  C   UNL     1       5.838   4.318  16.764  0.00  0.00    +0.000 A 
ATOM      5  C   UNL     1       5.028   4.343  15.683  0.00  0.00    +0.000 A 
ATOM      6  C   UNL     1       5.604   4.559  14.396  0.00  0.00    +0.000 A 
ATOM      7  C   UNL     1       6.779   5.189  14.262  0.00  0.00    +0.000 A 
ATOM      8  N   UNL     1       7.609   5.253  15.356  0.00  0.00    +0.000 N 
ATOM      9  C   UNL     1       7.294   4.580  16.533  0.00  0.00    +0.000 A 
ATOM     10  O   UNL     1       8.184   4.187  17.279  0.00  0.00    +0.000 OA
ATOM     11  C   UNL     1       7.311   5.056  12.873  0.00  0.00    +0.000 C 
ATOM     12  C   UNL     1       6.822   3.635  12.625  0.00  0.00    +0.000 C 
ATOM     13  C   UNL     1       5.404   3.629  13.234  0.00  0.00    +0.000 C 
ATOM     14  H   UNL     1       8.604   5.354  15.195  0.00  0.00    +0.000 HD
ENDBRANCH   3   4
ENDBRANCH   1   3
BRANCH   1  15
ATOM     15  C   UNL     1       3.135   3.595  19.046  0.00  0.00    +0.000 C 
BRANCH  15  16
ATOM     16  C   UNL     1       2.633   5.010  19.147  0.00  0.00    +0.000 A 
ATOM     17  C   UNL     1       2.630   5.858  18.040  0.00  0.00    +0.000 A 
ATOM     18  C   UNL     1       2.230   7.194  18.171  0.00  0.00    +0.000 A 
ATOM     19  C   UNL     1       1.801   7.722  19.406  0.00  0.00    +0.000 A 
ATOM     20  C   UNL     1       1.788   6.834  20.500  0.00  0.00    +0.000 A 
ATOM     21  C   UNL     1       2.203   5.510  20.379  0.00  0.00    +0.000 A 
BRANCH  19  22
ATOM     22  C   UNL     1       1.398   9.137  19.559  0.00  0.00    +0.000 A 
ATOM     23  C   UNL     1       1.540  10.068  18.512  0.00  0.00    +0.000 A 
ATOM     24  C   UNL     1       1.128  11.404  18.659  0.00  0.00    +0.000 A 
ATOM     25  C   UNL     1       0.559  11.831  19.852  0.00  0.00    +0.000 A 
ATOM     26  C   UNL     1       0.418  10.934  20.905  0.00  0.00    +0.000 A 
ATOM     27  C   UNL     1       0.839   9.610  20.761  0.00  0.00    +0.000 A 
ENDBRANCH  19  22
ENDBRANCH  15  16
ENDBRANCH   1  15
TORSDOF 5
ENDMDL
MODEL 6
REMARK VINA RESULT:      -8.5      1.519      2.233
REMARK  Name = 
REMARK  5 active torsions:
REMARK  status: ('A' for Active; 'I' for Inactive)
REMARK    1  A    between atoms: C_2  and  O_3
REMARK    2  A    between atoms: C_2  and  C_17
REMARK    3  A    between atoms: O_3  and  C_4
REMARK    4  A    between atoms: C_4  and  C_5
REMARK    5  A    between atoms: C_8  and  C_9
REMARK                            x       y       z     vdW  Elec       q    Type
REMARK                         _______ _______ _______ _____ _____    ______ ____
ROOT
ATOM      1  O   UNL     1       1.596   4.685  19.451  0.00  0.00    +0.000 OA
ENDROOT
BRANCH   1   3
ATOM      2  O   UNL     1       1.876   2.419  19.298  0.00  0.00    +0.000 OA
ATOM      3  C   UNL     1       2.275   3.569  19.137  0.00  0.00    +0.000 C 
BRANCH   3   4
ATOM      4  C   UNL     1       3.610   3.883  18.584  0.00  0.00    +0.000 A 
ATOM      5  C   UNL     1       3.649   4.572  17.422  0.00  0.00    +0.000 A 
ATOM      6  C   UNL     1       4.909   4.777  16.786  0.00  0.00    +0.000 A 
ATOM      7  C   UNL     1       6.049   4.747  17.488  0.00  0.00    +0.000 A 
ATOM      8  N   UNL     1       6.043   4.119  18.711  0.00  0.00    +0.000 N 
ATOM      9  C   UNL     1       4.917   3.431  19.155  0.00  0.00    +0.000 A 
ATOM     10  O   UNL     1       5.035   2.478  19.918  0.00  0.00    +0.000 OA
ATOM     11  C   UNL     1       7.241   4.709  16.587  0.00  0.00    +0.000 C 
ATOM     12  C   UNL     1       6.623   3.831  15.505  0.00  0.00    +0.000 C 
ATOM     13  C   UNL     1       5.190   4.386  15.364  0.00  0.00    +0.000 C 
ATOM     14  H   UNL     1       6.917   3.746  19.062  0.00  0.00    +0.000 HD
ENDBRANCH   3   4
ENDBRANCH   1   3
BRANCH   1  15
ATOM     15  C   UNL     1       2.243   5.535  20.403  0.00  0.00    +0.000 C 
BRANCH  15  16
ATOM     16  C   UNL     1       1.893   6.967  20.103  0.00  0.00    +0.000 A 
ATOM     17  C   UNL     1       1.207   7.754  21.030  0.00  0.00    +0.000 A 
ATOM     18  C   UNL     1       0.823   9.062  20.703  0.00  0.00    +0.000 A 
ATOM     19  C   UNL     1       1.128   9.633  19.451  0.00  0.00    +0.000 A 
ATOM     20  C   UNL     1       1.847   8.824  18.547  0.00  0.00    +0.000 A 
ATOM     21  C   UNL     1       2.214   7.518  18.860  0.00  0.00    +0.000 A 
BRANCH  19  22
ATOM     22  C   UNL     1       0.708  11.005  19.089  0.00  0.00    +0.000 A 
ATOM     23  C   UNL     1      -0.644  11.395  19.104  0.00  0.00    +0.000 A 
ATOM     24  C   UNL     1      -1.031  12.709  18.785  0.00  0.00    +0.000 A 
ATOM     25  C   UNL     1      -0.071  13.657  18.455  0.00  0.00    +0.000 A 
ATOM     26  C   UNL     1       1.270  13.294  18.422  0.00  0.00    +0.000 A 
ATOM     27  C   UNL     1       1.651  11.985  18.728  0.00  0.00    +0.000 A 
ENDBRANCH  19  22
ENDBRANCH  15  16
ENDBRANCH   1  15
TORSDOF 5
ENDMDL
MODEL 7
REMARK VINA RESULT:      -8.5      1.666      2.450
REMARK  Name = 
REMARK  5 active torsions:
REMARK  status: ('A' for Active; 'I' for Inactive)
REMARK    1  A    between atoms: C_2  and  O_3
REMARK    2  A    between atoms: C_2  and  C_17
REMARK    3  A    between atoms: O_3  and  C_4
REMARK    4  A    between atoms: C_4  and  C_5
REMARK    5  A    between atoms: C_8  and  C_9
REMARK                            x       y       z     vdW  Elec       q    Type
REMARK                         _______ _______ _______ _____ _____    ______ ____
ROOT
ATOM      1  O   UNL     1       4.558   5.291  17.944  0.00  0.00    +0.000 OA
ENDROOT
BRANCH   1   3
ATOM      2  O   UNL     1       4.438   3.029  17.624  0.00  0.00    +0.000 OA
ATOM      3  C   UNL     1       4.796   4.151  17.277  0.00  0.00    +0.000 C 
BRANCH   3   4
ATOM      4  C   UNL     1       5.585   4.394  16.050  0.00  0.00    +0.000 A 
ATOM      5  C   UNL     1       4.933   4.308  14.870  0.00  0.00    +0.000 A 
ATOM      6  C   UNL     1       5.684   4.402  13.660  0.00  0.00    +0.000 A 
ATOM      7  C   UNL     1       6.869   5.024  13.631  0.00  0.00    +0.000 A 
ATOM      8  N   UNL     1       7.541   5.200  14.818  0.00  0.00    +0.000 N 
ATOM      9  C   UNL     1       7.060   4.643  15.999  0.00  0.00    +0.000 A 
ATOM     10  O   UNL     1       7.836   4.332  16.897  0.00  0.00    +0.000 OA
ATOM     11  C   UNL     1       7.589   4.760  12.348  0.00  0.00    +0.000 C 
ATOM     12  C   UNL     1       7.130   3.317  12.175  0.00  0.00    +0.000 C 
ATOM     13  C   UNL     1       5.641   3.361  12.579  0.00  0.00    +0.000 C 
ATOM     14  H   UNL     1       8.549   5.293  14.787  0.00  0.00    +0.000 HD
ENDBRANCH   3   4
ENDBRANCH   1   3
BRANCH   1  15
ATOM     15  C   UNL     1       3.795   6.263  17.223  0.00  0.00    +0.000 C 
BRANCH  15  16
ATOM     16  C   UNL     1       3.012   7.100  18.198  0.00  0.00    +0.000 A 
ATOM     17  C   UNL     1       2.782   6.665  19.503  0.00  0.00    +0.000 A 
ATOM     18  C   UNL     1       1.986   7.423  20.373  0.00  0.00    +0.000 A 
ATOM     19  C   UNL     1       1.412   8.647  19.976  0.00  0.00    +0.000 A 
ATOM     20  C   UNL     1       1.685   9.074  18.661  0.00  0.00    +0.000 A 
ATOM     21  C   UNL     1       2.460   8.316  17.786  0.00  0.00    +0.000 A 
BRANCH  19  22
ATOM     22  C   UNL     1       0.552   9.443  20.880  0.00  0.00    +0.000 A 
ATOM     23  C   UNL     1       0.239   9.007  22.182  0.00  0.00    +0.000 A 
ATOM     24  C   UNL     1      -0.556   9.784  23.042  0.00  0.00    +0.000 A 
ATOM     25  C   UNL     1      -1.044  11.014  22.621  0.00  0.00    +0.000 A 
ATOM     26  C   UNL     1      -0.758  11.461  21.335  0.00  0.00    +0.000 A 
ATOM     27  C   UNL     1       0.022  10.682  20.477  0.00  0.00    +0.000 A 
ENDBRANCH  19  22
ENDBRANCH  15  16
ENDBRANCH   1  15
TORSDOF 5
ENDMDL
MODEL 8
REMARK VINA RESULT:      -8.4      0.796      1.258
REMARK  Name = 
REMARK  5 active torsions:
REMARK  status: ('A' for Active; 'I' for Inactive)
REMARK    1  A    between atoms: C_2  and  O_3
REMARK    2  A    between atoms: C_2  and  C_17
REMARK    3  A    between atoms: O_3  and  C_4
REMARK    4  A    between atoms: C_4  and  C_5
REMARK    5  A    between atoms: C_8  and  C_9
REMARK                            x       y       z     vdW  Elec       q    Type
REMARK                         _______ _______ _______ _____ _____    ______ ____
ROOT
ATOM      1  O   UNL     1       3.942   5.334  17.975  0.00  0.00    +0.000 OA
ENDROOT
BRANCH   1   3
ATOM      2  O   UNL     1       5.526   3.951  18.878  0.00  0.00    +0.000 OA
ATOM      3  C   UNL     1       5.069   4.604  17.944  0.00  0.00    +0.000 C 
BRANCH   3   4
ATOM      4  C   UNL     1       5.740   4.696  16.629  0.00  0.00    +0.000 A 
ATOM      5  C   UNL     1       4.948   4.733  15.535  0.00  0.00    +0.000 A 
ATOM      6  C   UNL     1       5.555   4.685  14.245  0.00  0.00    +0.000 A 
ATOM      7  C   UNL     1       6.823   5.074  14.063  0.00  0.00    +0.000 A 
ATOM      8  N   UNL     1       7.651   5.122  15.160  0.00  0.00    +0.000 N 
ATOM      9  C   UNL     1       7.219   4.665  16.402  0.00  0.00    +0.000 A 
ATOM     10  O   UNL     1       8.024   4.214  17.210  0.00  0.00    +0.000 OA
ATOM     11  C   UNL     1       7.324   4.681  12.712  0.00  0.00    +0.000 C 
ATOM     12  C   UNL     1       6.588   3.349  12.626  0.00  0.00    +0.000 C 
ATOM     13  C   UNL     1       5.192   3.671  13.199  0.00  0.00    +0.000 C 
ATOM     14  H   UNL     1       8.648   5.024  15.011  0.00  0.00    +0.000 HD
ENDBRANCH   3   4
ENDBRANCH   1   3
BRANCH   1  15
ATOM     15  C   UNL     1       3.437   5.607  19.285  0.00  0.00    +0.000 C 
BRANCH  15  16
ATOM     16  C   UNL     1       2.689   6.912  19.265  0.00  0.00    +0.000 A 
ATOM     17  C   UNL     1       2.016   7.378  20.395  0.00  0.00    +0.000 A 
ATOM     18  C   UNL     1       1.262   8.558  20.334  0.00  0.00    +0.000 A 
ATOM     19  C   UNL     1       1.172   9.321  19.152  0.00  0.00    +0.000 A 
ATOM     20  C   UNL     1       1.886   8.840  18.036  0.00  0.00    +0.000 A 
ATOM     21  C   UNL     1       2.622   7.658  18.085  0.00  0.00    +0.000 A 
BRANCH  19  22
ATOM     22  C   UNL     1       0.361  10.556  19.073  0.00  0.00    +0.000 A 
ATOM     23  C   UNL     1      -1.028  10.548  19.299  0.00  0.00    +0.000 A 
ATOM     24  C   UNL     1      -1.785  11.731  19.249  0.00  0.00    +0.000 A 
ATOM     25  C   UNL     1      -1.166  12.944  18.979  0.00  0.00    +0.000 A 
ATOM     26  C   UNL     1       0.204  12.977  18.741  0.00  0.00    +0.000 A 
ATOM     27  C   UNL     1       0.953  11.799  18.780  0.00  0.00    +0.000 A 
ENDBRANCH  19  22
ENDBRANCH  15  16
ENDBRANCH   1  15
TORSDOF 5
ENDMDL
MODEL 9
REMARK VINA RESULT:      -8.3      0.814      1.263
REMARK  Name = 
REMARK  5 active torsions:
REMARK  status: ('A' for Active; 'I' for Inactive)
REMARK    1  A    between atoms: C_2  and  O_3
REMARK    2  A    between atoms: C_2  and  C_17
REMARK    3  A    between atoms: O_3  and  C_4
REMARK    4  A    between atoms: C_4  and  C_5
REMARK    5  A    between atoms: C_8  and  C_9
REMARK                            x       y       z     vdW  Elec       q    Type
REMARK                         _______ _______ _______ _____ _____    ______ ____
ROOT
ATOM      1  O   UNL     1       4.556   5.816  18.178  0.00  0.00    +0.000 OA
ENDROOT
BRANCH   1   3
ATOM      2  O   UNL     1       5.122   3.629  18.538  0.00  0.00    +0.000 OA
ATOM      3  C   UNL     1       5.119   4.643  17.846  0.00  0.00    +0.000 C 
BRANCH   3   4
ATOM      4  C   UNL     1       5.781   4.714  16.526  0.00  0.00    +0.000 A 
ATOM      5  C   UNL     1       4.982   4.747  15.436  0.00  0.00    +0.000 A 
ATOM      6  C   UNL     1       5.580   4.678  14.143  0.00  0.00    +0.000 A 
ATOM      7  C   UNL     1       6.851   5.053  13.949  0.00  0.00    +0.000 A 
ATOM      8  N   UNL     1       7.687   5.104  15.039  0.00  0.00    +0.000 N 
ATOM      9  C   UNL     1       7.258   4.665  16.289  0.00  0.00    +0.000 A 
ATOM     10  O   UNL     1       8.064   4.215  17.096  0.00  0.00    +0.000 OA
ATOM     11  C   UNL     1       7.339   4.639  12.598  0.00  0.00    +0.000 C 
ATOM     12  C   UNL     1       6.588   3.314  12.532  0.00  0.00    +0.000 C 
ATOM     13  C   UNL     1       5.200   3.656  13.111  0.00  0.00    +0.000 C 
ATOM     14  H   UNL     1       8.681   4.994  14.885  0.00  0.00    +0.000 HD
ENDBRANCH   3   4
ENDBRANCH   1   3
BRANCH   1  15
ATOM     15  C   UNL     1       3.535   5.733  19.177  0.00  0.00    +0.000 C 
BRANCH  15  16
ATOM     16  C   UNL     1       2.689   6.976  19.125  0.00  0.00    +0.000 A 
ATOM     17  C   UNL     1       2.601   7.743  17.964  0.00  0.00    +0.000 A 
ATOM     18  C   UNL     1       1.869   8.938  17.957  0.00  0.00    +0.000 A 
ATOM     19  C   UNL     1       1.186   9.395  19.102  0.00  0.00    +0.000 A 
ATOM     20  C   UNL     1       1.269   8.584  20.251  0.00  0.00    +0.000 A 
ATOM     21  C   UNL     1       2.010   7.405  20.269  0.00  0.00    +0.000 A 
BRANCH  19  22
ATOM     22  C   UNL     1       0.429  10.667  19.111  0.00  0.00    +0.000 A 
ATOM     23  C   UNL     1       1.037  11.895  18.791  0.00  0.00    +0.000 A 
ATOM     24  C   UNL     1       0.303  13.094  18.776  0.00  0.00    +0.000 A 
ATOM     25  C   UNL     1      -1.054  13.084  19.071  0.00  0.00    +0.000 A 
ATOM     26  C   UNL     1      -1.676  11.885  19.401  0.00  0.00    +0.000 A 
ATOM     27  C   UNL     1      -0.942  10.697  19.428  0.00  0.00    +0.000 A 
ENDBRANCH  19  22
ENDBRANCH  15  16
ENDBRANCH   1  15
TORSDOF 5
ENDMDL
