MODEL 1
REMARK VINA RESULT:      -9.1      0.000      0.000
REMARK  Name = 
REMARK  7 active torsions:
REMARK  status: ('A' for Active; 'I' for Inactive)
REMARK    1  A    between atoms: C_1  and  C_2
REMARK    2  A    between atoms: C_4  and  C_5
REMARK    3  A    between atoms: C_10  and  C_11
REMARK    4  A    between atoms: N_13  and  C_14
REMARK    5  A    between atoms: C_17  and  O_18
REMARK    6  A    between atoms: O_18  and  C_19
REMARK    7  A    between atoms: C_21  and  C_22
REMARK                            x       y       z     vdW  Elec       q    Type
REMARK                         _______ _______ _______ _____ _____    ______ ____
ROOT
ATOM      1  C   UNL     1       1.276   8.546  20.442  0.00  0.00    +0.000 C 
ATOM      2  O   UNL     1       1.348   8.169  21.620  0.00  0.00    +0.000 OA
ATOM      3  N   UNL     1       0.475   9.579  19.980  0.00  0.00    +0.000 N 
ATOM      4  H   UNL     1       0.326   9.669  18.980  0.00  0.00    +0.000 HD
ENDROOT
BRANCH   1  14
ATOM      5  C   UNL     1       6.699   4.948  14.325  0.00  0.00    +0.000 C 
ATOM      6  C   UNL     1       5.777   4.766  15.471  0.00  0.00    +0.000 A 
ATOM      7  C   UNL     1       5.578   3.597  16.230  0.00  0.00    +0.000 A 
ATOM      8  C   UNL     1       4.677   3.945  17.210  0.00  0.00    +0.000 A 
ATOM      9  C   UNL     1       4.028   3.116  18.256  0.00  0.00    +0.000 C 
ATOM     10  N   UNL     1       4.416   5.295  17.033  0.00  0.00    +0.000 N 
ATOM     11  C   UNL     1       3.619   6.141  17.866  0.00  0.00    +0.000 A 
ATOM     12  C   UNL     1       3.451   7.477  17.514  0.00  0.00    +0.000 A 
ATOM     13  C   UNL     1       2.642   8.297  18.309  0.00  0.00    +0.000 A 
ATOM     14  C   UNL     1       2.067   7.772  19.466  0.00  0.00    +0.000 A 
ATOM     15  C   UNL     1       2.317   6.434  19.759  0.00  0.00    +0.000 A 
ATOM     16  N   UNL     1       3.045   5.613  18.975  0.00  0.00    +0.000 NA
ATOM     17  N   UNL     1       5.011   5.771  15.900  0.00  0.00    +0.000 NA
ENDBRANCH   1  14
BRANCH   3  18
ATOM     18  C   UNL     1      -0.354  10.371  20.820  0.00  0.00    +0.000 A 
ATOM     19  C   UNL     1      -1.098  11.437  20.319  0.00  0.00    +0.000 A 
ATOM     20  C   UNL     1      -1.838  12.265  21.164  0.00  0.00    +0.000 A 
ATOM     21  C   UNL     1      -1.878  12.011  22.533  0.00  0.00    +0.000 A 
ATOM     22  C   UNL     1      -1.167  10.925  23.044  0.00  0.00    +0.000 A 
ATOM     23  C   UNL     1      -0.415  10.096  22.191  0.00  0.00    +0.000 A 
BRANCH  21  24
ATOM     24  O   UNL     1      -2.516  12.827  23.440  0.00  0.00    +0.000 OA
BRANCH  24  25
ATOM     25  C   UNL     1      -3.831  12.696  23.715  0.00  0.00    +0.000 A 
ATOM     26  C   UNL     1      -4.951  13.260  23.073  0.00  0.00    +0.000 A 
ATOM     27  C   UNL     1      -6.027  12.849  23.827  0.00  0.00    +0.000 A 
ATOM     28  C   UNL     1      -7.471  13.151  23.729  0.00  0.00    +0.000 C 
ATOM     29  N   UNL     1      -5.506  12.034  24.801  0.00  0.00    +0.000 N 
ATOM     30  N   UNL     1      -4.168  11.906  24.736  0.00  0.00    +0.000 NA
ATOM     31  H   UNL     1      -6.000  11.549  25.542  0.00  0.00    +0.000 HD
ENDBRANCH  24  25
ENDBRANCH  21  24
ENDBRANCH   3  18
TORSDOF 4
ENDMDL
MODEL 2
REMARK VINA RESULT:      -9.1      2.712     11.592
REMARK  Name = 
REMARK  7 active torsions:
REMARK  status: ('A' for Active; 'I' for Inactive)
REMARK    1  A    between atoms: C_1  and  C_2
REMARK    2  A    between atoms: C_4  and  C_5
REMARK    3  A    between atoms: C_10  and  C_11
REMARK    4  A    between atoms: N_13  and  C_14
REMARK    5  A    between atoms: C_17  and  O_18
REMARK    6  A    between atoms: O_18  and  C_19
REMARK    7  A    between atoms: C_21  and  C_22
REMARK                            x       y       z     vdW  Elec       q    Type
REMARK                         _______ _______ _______ _____ _____    ______ ____
ROOT
ATOM      1  C   UNL     1       1.541   9.313  18.477  0.00  0.00    +0.000 C 
ATOM      2  O   UNL     1       2.070   9.723  17.435  0.00  0.00    +0.000 OA
ATOM      3  N   UNL     1       1.852   8.122  19.118  0.00  0.00    +0.000 N 
ATOM      4  H   UNL     1       1.224   7.778  19.835  0.00  0.00    +0.000 HD
ENDROOT
BRANCH   1  14
ATOM      5  C   UNL     1      -5.844  13.625  21.052  0.00  0.00    +0.000 C 
ATOM      6  C   UNL     1      -4.426  13.271  21.301  0.00  0.00    +0.000 A 
ATOM      7  C   UNL     1      -3.689  13.477  22.482  0.00  0.00    +0.000 A 
ATOM      8  C   UNL     1      -2.450  12.929  22.241  0.00  0.00    +0.000 A 
ATOM      9  C   UNL     1      -1.228  12.911  23.083  0.00  0.00    +0.000 C 
ATOM     10  N   UNL     1      -2.509  12.384  20.968  0.00  0.00    +0.000 N 
ATOM     11  C   UNL     1      -1.502  11.616  20.305  0.00  0.00    +0.000 A 
ATOM     12  C   UNL     1      -1.733  11.168  19.008  0.00  0.00    +0.000 A 
ATOM     13  C   UNL     1      -0.733  10.446  18.346  0.00  0.00    +0.000 A 
ATOM     14  C   UNL     1       0.450  10.145  19.019  0.00  0.00    +0.000 A 
ATOM     15  C   UNL     1       0.582  10.604  20.327  0.00  0.00    +0.000 A 
ATOM     16  N   UNL     1      -0.345  11.350  20.962  0.00  0.00    +0.000 NA
ATOM     17  N   UNL     1      -3.690  12.689  20.353  0.00  0.00    +0.000 NA
ENDBRANCH   1  14
BRANCH   3  18
ATOM     18  C   UNL     1       2.859   7.225  18.670  0.00  0.00    +0.000 A 
ATOM     19  C   UNL     1       3.259   6.132  19.436  0.00  0.00    +0.000 A 
ATOM     20  C   UNL     1       4.309   5.308  19.030  0.00  0.00    +0.000 A 
ATOM     21  C   UNL     1       4.956   5.544  17.819  0.00  0.00    +0.000 A 
ATOM     22  C   UNL     1       4.542   6.612  17.024  0.00  0.00    +0.000 A 
ATOM     23  C   UNL     1       3.487   7.447  17.439  0.00  0.00    +0.000 A 
BRANCH  21  24
ATOM     24  O   UNL     1       6.051   4.828  17.389  0.00  0.00    +0.000 OA
BRANCH  24  25
ATOM     25  C   UNL     1       6.388   4.758  16.084  0.00  0.00    +0.000 A 
ATOM     26  C   UNL     1       5.810   4.012  15.038  0.00  0.00    +0.000 A 
ATOM     27  C   UNL     1       6.611   4.265  13.947  0.00  0.00    +0.000 A 
ATOM     28  C   UNL     1       6.589   3.739  12.566  0.00  0.00    +0.000 C 
ATOM     29  N   UNL     1       7.547   5.173  14.378  0.00  0.00    +0.000 N 
ATOM     30  N   UNL     1       7.414   5.507  15.675  0.00  0.00    +0.000 NA
ATOM     31  H   UNL     1       8.305   5.590  13.850  0.00  0.00    +0.000 HD
ENDBRANCH  24  25
ENDBRANCH  21  24
ENDBRANCH   3  18
TORSDOF 4
ENDMDL
MODEL 3
REMARK VINA RESULT:      -8.9      2.902     11.581
REMARK  Name = 
REMARK  7 active torsions:
REMARK  status: ('A' for Active; 'I' for Inactive)
REMARK    1  A    between atoms: C_1  and  C_2
REMARK    2  A    between atoms: C_4  and  C_5
REMARK    3  A    between atoms: C_10  and  C_11
REMARK    4  A    between atoms: N_13  and  C_14
REMARK    5  A    between atoms: C_17  and  O_18
REMARK    6  A    between atoms: O_18  and  C_19
REMARK    7  A    between atoms: C_21  and  C_22
REMARK                            x       y       z     vdW  Elec       q    Type
REMARK                         _______ _______ _______ _____ _____    ______ ____
ROOT
ATOM      1  C   UNL     1       1.248   9.471  18.285  0.00  0.00    +0.000 C 
ATOM      2  O   UNL     1       1.943  10.051  17.439  0.00  0.00    +0.000 OA
ATOM      3  N   UNL     1       1.517   8.219  18.819  0.00  0.00    +0.000 N 
ATOM      4  H   UNL     1       0.786   7.744  19.336  0.00  0.00    +0.000 HD
ENDROOT
BRANCH   1  14
ATOM      5  C   UNL     1      -5.499  14.521  21.241  0.00  0.00    +0.000 C 
ATOM      6  C   UNL     1      -5.004  13.479  20.310  0.00  0.00    +0.000 A 
ATOM      7  C   UNL     1      -5.664  12.959  19.180  0.00  0.00    +0.000 A 
ATOM      8  C   UNL     1      -4.778  12.069  18.616  0.00  0.00    +0.000 A 
ATOM      9  C   UNL     1      -4.940  11.160  17.454  0.00  0.00    +0.000 C 
ATOM     10  N   UNL     1      -3.628  12.127  19.388  0.00  0.00    +0.000 N 
ATOM     11  C   UNL     1      -2.386  11.460  19.145  0.00  0.00    +0.000 A 
ATOM     12  C   UNL     1      -1.341  11.621  20.050  0.00  0.00    +0.000 A 
ATOM     13  C   UNL     1      -0.138  10.941  19.832  0.00  0.00    +0.000 A 
ATOM     14  C   UNL     1       0.006  10.160  18.686  0.00  0.00    +0.000 A 
ATOM     15  C   UNL     1      -1.079  10.083  17.818  0.00  0.00    +0.000 A 
ATOM     16  N   UNL     1      -2.266  10.684  18.039  0.00  0.00    +0.000 NA
ATOM     17  N   UNL     1      -3.808  12.915  20.489  0.00  0.00    +0.000 NA
ENDBRANCH   1  14
BRANCH   3  18
ATOM     18  C   UNL     1       2.663   7.448  18.483  0.00  0.00    +0.000 A 
ATOM     19  C   UNL     1       3.514   7.818  17.444  0.00  0.00    +0.000 A 
ATOM     20  C   UNL     1       4.585   7.009  17.062  0.00  0.00    +0.000 A 
ATOM     21  C   UNL     1       4.846   5.825  17.747  0.00  0.00    +0.000 A 
ATOM     22  C   UNL     1       4.024   5.460  18.813  0.00  0.00    +0.000 A 
ATOM     23  C   UNL     1       2.939   6.274  19.192  0.00  0.00    +0.000 A 
BRANCH  21  24
ATOM     24  O   UNL     1       5.831   4.934  17.380  0.00  0.00    +0.000 OA
BRANCH  24  25
ATOM     25  C   UNL     1       6.246   4.818  16.102  0.00  0.00    +0.000 A 
ATOM     26  C   UNL     1       5.693   4.083  15.033  0.00  0.00    +0.000 A 
ATOM     27  C   UNL     1       6.575   4.269  13.992  0.00  0.00    +0.000 A 
ATOM     28  C   UNL     1       6.610   3.716  12.622  0.00  0.00    +0.000 C 
ATOM     29  N   UNL     1       7.533   5.131  14.467  0.00  0.00    +0.000 N 
ATOM     30  N   UNL     1       7.337   5.499  15.746  0.00  0.00    +0.000 NA
ATOM     31  H   UNL     1       8.345   5.493  13.982  0.00  0.00    +0.000 HD
ENDBRANCH  24  25
ENDBRANCH  21  24
ENDBRANCH   3  18
TORSDOF 4
ENDMDL
MODEL 4
REMARK VINA RESULT:      -8.8      2.441     11.681
REMARK  Name = 
REMARK  7 active torsions:
REMARK  status: ('A' for Active; 'I' for Inactive)
REMARK    1  A    between atoms: C_1  and  C_2
REMARK    2  A    between atoms: C_4  and  C_5
REMARK    3  A    between atoms: C_10  and  C_11
REMARK    4  A    between atoms: N_13  and  C_14
REMARK    5  A    between atoms: C_17  and  O_18
REMARK    6  A    between atoms: O_18  and  C_19
REMARK    7  A    between atoms: C_21  and  C_22
REMARK                            x       y       z     vdW  Elec       q    Type
REMARK                         _______ _______ _______ _____ _____    ______ ____
ROOT
ATOM      1  C   UNL     1       1.661   7.867  20.235  0.00  0.00    +0.000 C 
ATOM      2  O   UNL     1       2.125   7.064  21.057  0.00  0.00    +0.000 OA
ATOM      3  N   UNL     1       1.988   7.913  18.888  0.00  0.00    +0.000 N 
ATOM      4  H   UNL     1       1.721   8.731  18.351  0.00  0.00    +0.000 HD
ENDROOT
BRANCH   1  14
ATOM      5  C   UNL     1      -3.110  14.095  24.502  0.00  0.00    +0.000 C 
ATOM      6  C   UNL     1      -2.768  13.401  23.238  0.00  0.00    +0.000 A 
ATOM      7  C   UNL     1      -3.122  13.782  21.930  0.00  0.00    +0.000 A 
ATOM      8  C   UNL     1      -2.522  12.859  21.104  0.00  0.00    +0.000 A 
ATOM      9  C   UNL     1      -2.598  12.697  19.631  0.00  0.00    +0.000 C 
ATOM     10  N   UNL     1      -1.806  12.008  21.932  0.00  0.00    +0.000 N 
ATOM     11  C   UNL     1      -0.934  10.946  21.537  0.00  0.00    +0.000 A 
ATOM     12  C   UNL     1      -0.313  10.177  22.518  0.00  0.00    +0.000 A 
ATOM     13  C   UNL     1       0.512   9.115  22.132  0.00  0.00    +0.000 A 
ATOM     14  C   UNL     1       0.740   8.885  20.776  0.00  0.00    +0.000 A 
ATOM     15  C   UNL     1       0.106   9.726  19.865  0.00  0.00    +0.000 A 
ATOM     16  N   UNL     1      -0.740  10.717  20.214  0.00  0.00    +0.000 NA
ATOM     17  N   UNL     1      -2.045  12.279  23.249  0.00  0.00    +0.000 NA
ENDBRANCH   1  14
BRANCH   3  18
ATOM     18  C   UNL     1       2.888   7.007  18.264  0.00  0.00    +0.000 A 
ATOM     19  C   UNL     1       2.594   5.651  18.145  0.00  0.00    +0.000 A 
ATOM     20  C   UNL     1       3.520   4.752  17.612  0.00  0.00    +0.000 A 
ATOM     21  C   UNL     1       4.751   5.211  17.147  0.00  0.00    +0.000 A 
ATOM     22  C   UNL     1       5.044   6.572  17.226  0.00  0.00    +0.000 A 
ATOM     23  C   UNL     1       4.112   7.475  17.772  0.00  0.00    +0.000 A 
BRANCH  21  24
ATOM     24  O   UNL     1       5.747   4.380  16.685  0.00  0.00    +0.000 OA
BRANCH  24  25
ATOM     25  C   UNL     1       6.288   4.531  15.458  0.00  0.00    +0.000 A 
ATOM     26  C   UNL     1       5.901   3.975  14.222  0.00  0.00    +0.000 A 
ATOM     27  C   UNL     1       6.859   4.408  13.332  0.00  0.00    +0.000 A 
ATOM     28  C   UNL     1       7.068   4.124  11.896  0.00  0.00    +0.000 C 
ATOM     29  N   UNL     1       7.693   5.225  14.054  0.00  0.00    +0.000 N 
ATOM     30  N   UNL     1       7.348   5.334  15.350  0.00  0.00    +0.000 NA
ATOM     31  H   UNL     1       8.515   5.723  13.731  0.00  0.00    +0.000 HD
ENDBRANCH  24  25
ENDBRANCH  21  24
ENDBRANCH   3  18
TORSDOF 4
ENDMDL
MODEL 5
REMARK VINA RESULT:      -8.7      2.615     11.780
REMARK  Name = 
REMARK  7 active torsions:
REMARK  status: ('A' for Active; 'I' for Inactive)
REMARK    1  A    between atoms: C_1  and  C_2
REMARK    2  A    between atoms: C_4  and  C_5
REMARK    3  A    between atoms: C_10  and  C_11
REMARK    4  A    between atoms: N_13  and  C_14
REMARK    5  A    between atoms: C_17  and  O_18
REMARK    6  A    between atoms: O_18  and  C_19
REMARK    7  A    between atoms: C_21  and  C_22
REMARK                            x       y       z     vdW  Elec       q    Type
REMARK                         _______ _______ _______ _____ _____    ______ ____
ROOT
ATOM      1  C   UNL     1       1.809   8.888  18.526  0.00  0.00    +0.000 C 
ATOM      2  O   UNL     1       2.176   9.358  17.441  0.00  0.00    +0.000 OA
ATOM      3  N   UNL     1       2.142   7.631  19.008  0.00  0.00    +0.000 N 
ATOM      4  H   UNL     1       1.624   7.261  19.798  0.00  0.00    +0.000 HD
ENDROOT
BRANCH   1  14
ATOM      5  C   UNL     1      -3.425  13.245  24.305  0.00  0.00    +0.000 C 
ATOM      6  C   UNL     1      -2.693  13.228  23.017  0.00  0.00    +0.000 A 
ATOM      7  C   UNL     1      -2.433  14.320  22.167  0.00  0.00    +0.000 A 
ATOM      8  C   UNL     1      -1.676  13.810  21.137  0.00  0.00    +0.000 A 
ATOM      9  C   UNL     1      -1.168  14.463  19.904  0.00  0.00    +0.000 C 
ATOM     10  N   UNL     1      -1.475  12.470  21.431  0.00  0.00    +0.000 N 
ATOM     11  C   UNL     1      -0.664  11.537  20.713  0.00  0.00    +0.000 A 
ATOM     12  C   UNL     1      -0.602  10.216  21.148  0.00  0.00    +0.000 A 
ATOM     13  C   UNL     1       0.163   9.294  20.425  0.00  0.00    +0.000 A 
ATOM     14  C   UNL     1       0.889   9.730  19.317  0.00  0.00    +0.000 A 
ATOM     15  C   UNL     1       0.795  11.075  18.974  0.00  0.00    +0.000 A 
ATOM     16  N   UNL     1       0.018  11.967  19.622  0.00  0.00    +0.000 NA
ATOM     17  N   UNL     1      -2.190  12.092  22.531  0.00  0.00    +0.000 NA
ENDBRANCH   1  14
BRANCH   3  18
ATOM     18  C   UNL     1       2.990   6.722  18.320  0.00  0.00    +0.000 A 
ATOM     19  C   UNL     1       2.772   5.347  18.359  0.00  0.00    +0.000 A 
ATOM     20  C   UNL     1       3.660   4.455  17.755  0.00  0.00    +0.000 A 
ATOM     21  C   UNL     1       4.769   4.934  17.062  0.00  0.00    +0.000 A 
ATOM     22  C   UNL     1       4.979   6.311  16.983  0.00  0.00    +0.000 A 
ATOM     23  C   UNL     1       4.087   7.208  17.600  0.00  0.00    +0.000 A 
BRANCH  21  24
ATOM     24  O   UNL     1       5.733   4.120  16.511  0.00  0.00    +0.000 OA
BRANCH  24  25
ATOM     25  C   UNL     1       6.320   4.407  15.330  0.00  0.00    +0.000 A 
ATOM     26  C   UNL     1       6.003   3.966  14.030  0.00  0.00    +0.000 A 
ATOM     27  C   UNL     1       6.982   4.512  13.230  0.00  0.00    +0.000 A 
ATOM     28  C   UNL     1       7.260   4.378  11.784  0.00  0.00    +0.000 C 
ATOM     29  N   UNL     1       7.757   5.278  14.065  0.00  0.00    +0.000 N 
ATOM     30  N   UNL     1       7.355   5.249  15.349  0.00  0.00    +0.000 NA
ATOM     31  H   UNL     1       8.574   5.830  13.830  0.00  0.00    +0.000 HD
ENDBRANCH  24  25
ENDBRANCH  21  24
ENDBRANCH   3  18
TORSDOF 4
ENDMDL
MODEL 6
REMARK VINA RESULT:      -8.7      2.577     11.649
REMARK  Name = 
REMARK  7 active torsions:
REMARK  status: ('A' for Active; 'I' for Inactive)
REMARK    1  A    between atoms: C_1  and  C_2
REMARK    2  A    between atoms: C_4  and  C_5
REMARK    3  A    between atoms: C_10  and  C_11
REMARK    4  A    between atoms: N_13  and  C_14
REMARK    5  A    between atoms: C_17  and  O_18
REMARK    6  A    between atoms: O_18  and  C_19
REMARK    7  A    between atoms: C_21  and  C_22
REMARK                            x       y       z     vdW  Elec       q    Type
REMARK                         _______ _______ _______ _____ _____    ______ ____
ROOT
ATOM      1  C   UNL     1       1.793   8.818  18.953  0.00  0.00    +0.000 C 
ATOM      2  O   UNL     1       2.150   9.241  17.845  0.00  0.00    +0.000 OA
ATOM      3  N   UNL     1       2.223   7.635  19.534  0.00  0.00    +0.000 N 
ATOM      4  H   UNL     1       1.717   7.275  20.336  0.00  0.00    +0.000 HD
ENDROOT
BRANCH   1  14
ATOM      5  C   UNL     1      -3.397  14.094  23.953  0.00  0.00    +0.000 C 
ATOM      6  C   UNL     1      -3.180  13.356  22.685  0.00  0.00    +0.000 A 
ATOM      7  C   UNL     1      -3.925  13.464  21.496  0.00  0.00    +0.000 A 
ATOM      8  C   UNL     1      -3.301  12.629  20.596  0.00  0.00    +0.000 A 
ATOM      9  C   UNL     1      -3.673  12.267  19.206  0.00  0.00    +0.000 C 
ATOM     10  N   UNL     1      -2.200  12.104  21.255  0.00  0.00    +0.000 N 
ATOM     11  C   UNL     1      -1.182  11.263  20.708  0.00  0.00    +0.000 A 
ATOM     12  C   UNL     1      -0.158  10.811  21.535  0.00  0.00    +0.000 A 
ATOM     13  C   UNL     1       0.819   9.958  21.009  0.00  0.00    +0.000 A 
ATOM     14  C   UNL     1       0.776   9.624  19.656  0.00  0.00    +0.000 A 
ATOM     15  C   UNL     1      -0.265  10.149  18.896  0.00  0.00    +0.000 A 
ATOM     16  N   UNL     1      -1.248  10.925  19.396  0.00  0.00    +0.000 NA
ATOM     17  N   UNL     1      -2.189  12.470  22.571  0.00  0.00    +0.000 NA
ENDBRANCH   1  14
BRANCH   3  18
ATOM     18  C   UNL     1       3.172   6.761  18.936  0.00  0.00    +0.000 A 
ATOM     19  C   UNL     1       3.593   5.594  19.570  0.00  0.00    +0.000 A 
ATOM     20  C   UNL     1       4.590   4.789  19.018  0.00  0.00    +0.000 A 
ATOM     21  C   UNL     1       5.158   5.122  17.791  0.00  0.00    +0.000 A 
ATOM     22  C   UNL     1       4.720   6.268  17.127  0.00  0.00    +0.000 A 
ATOM     23  C   UNL     1       3.720   7.083  17.690  0.00  0.00    +0.000 A 
BRANCH  21  24
ATOM     24  O   UNL     1       6.201   4.426  17.221  0.00  0.00    +0.000 OA
BRANCH  24  25
ATOM     25  C   UNL     1       6.478   4.511  15.903  0.00  0.00    +0.000 A 
ATOM     26  C   UNL     1       5.931   3.803  14.815  0.00  0.00    +0.000 A 
ATOM     27  C   UNL     1       6.645   4.240  13.722  0.00  0.00    +0.000 A 
ATOM     28  C   UNL     1       6.610   3.841  12.299  0.00  0.00    +0.000 C 
ATOM     29  N   UNL     1       7.501   5.202  14.200  0.00  0.00    +0.000 N 
ATOM     30  N   UNL     1       7.398   5.402  15.526  0.00  0.00    +0.000 NA
ATOM     31  H   UNL     1       8.183   5.746  13.683  0.00  0.00    +0.000 HD
ENDBRANCH  24  25
ENDBRANCH  21  24
ENDBRANCH   3  18
TORSDOF 4
ENDMDL
MODEL 7
REMARK VINA RESULT:      -8.7      7.908     11.004
REMARK  Name = 
REMARK  7 active torsions:
REMARK  status: ('A' for Active; 'I' for Inactive)
REMARK    1  A    between atoms: C_1  and  C_2
REMARK    2  A    between atoms: C_4  and  C_5
REMARK    3  A    between atoms: C_10  and  C_11
REMARK    4  A    between atoms: N_13  and  C_14
REMARK    5  A    between atoms: C_17  and  O_18
REMARK    6  A    between atoms: O_18  and  C_19
REMARK    7  A    between atoms: C_21  and  C_22
REMARK                            x       y       z     vdW  Elec       q    Type
REMARK                         _______ _______ _______ _____ _____    ______ ____
ROOT
ATOM      1  C   UNL     1       8.035   8.458  18.065  0.00  0.00    +0.000 C 
ATOM      2  O   UNL     1       8.610   7.662  18.821  0.00  0.00    +0.000 OA
ATOM      3  N   UNL     1       7.015   8.130  17.184  0.00  0.00    +0.000 N 
ATOM      4  H   UNL     1       6.761   8.798  16.465  0.00  0.00    +0.000 HD
ENDROOT
BRANCH   1  14
ATOM      5  C   UNL     1       9.894  17.193  18.100  0.00  0.00    +0.000 C 
ATOM      6  C   UNL     1      10.321  15.802  18.378  0.00  0.00    +0.000 A 
ATOM      7  C   UNL     1      11.455  15.384  19.100  0.00  0.00    +0.000 A 
ATOM      8  C   UNL     1      11.383  14.010  19.134  0.00  0.00    +0.000 A 
ATOM      9  C   UNL     1      12.333  13.012  19.684  0.00  0.00    +0.000 C 
ATOM     10  N   UNL     1      10.206  13.669  18.486  0.00  0.00    +0.000 N 
ATOM     11  C   UNL     1       9.637  12.365  18.350  0.00  0.00    +0.000 A 
ATOM     12  C   UNL     1       8.450  12.212  17.640  0.00  0.00    +0.000 A 
ATOM     13  C   UNL     1       7.911  10.930  17.476  0.00  0.00    +0.000 A 
ATOM     14  C   UNL     1       8.546   9.843  18.075  0.00  0.00    +0.000 A 
ATOM     15  C   UNL     1       9.710  10.093  18.796  0.00  0.00    +0.000 A 
ATOM     16  N   UNL     1      10.276  11.311  18.916  0.00  0.00    +0.000 NA
ATOM     17  N   UNL     1       9.610  14.766  17.930  0.00  0.00    +0.000 NA
ENDBRANCH   1  14
BRANCH   3  18
ATOM     18  C   UNL     1       6.467   6.825  17.063  0.00  0.00    +0.000 A 
ATOM     19  C   UNL     1       5.788   6.420  15.915  0.00  0.00    +0.000 A 
ATOM     20  C   UNL     1       5.175   5.169  15.839  0.00  0.00    +0.000 A 
ATOM     21  C   UNL     1       5.269   4.278  16.905  0.00  0.00    +0.000 A 
ATOM     22  C   UNL     1       5.978   4.655  18.046  0.00  0.00    +0.000 A 
ATOM     23  C   UNL     1       6.588   5.921  18.124  0.00  0.00    +0.000 A 
BRANCH  21  24
ATOM     24  O   UNL     1       4.626   3.061  16.939  0.00  0.00    +0.000 OA
BRANCH  24  25
ATOM     25  C   UNL     1       3.562   2.839  17.740  0.00  0.00    +0.000 A 
ATOM     26  C   UNL     1       2.640   3.750  18.294  0.00  0.00    +0.000 A 
ATOM     27  C   UNL     1       1.824   2.976  19.089  0.00  0.00    +0.000 A 
ATOM     28  C   UNL     1       0.707   3.329  19.990  0.00  0.00    +0.000 C 
ATOM     29  N   UNL     1       2.251   1.684  18.911  0.00  0.00    +0.000 N 
ATOM     30  N   UNL     1       3.297   1.574  18.071  0.00  0.00    +0.000 NA
ATOM     31  H   UNL     1       1.888   0.840  19.338  0.00  0.00    +0.000 HD
ENDBRANCH  24  25
ENDBRANCH  21  24
ENDBRANCH   3  18
TORSDOF 4
ENDMDL
MODEL 8
REMARK VINA RESULT:      -8.7      2.812     11.670
REMARK  Name = 
REMARK  7 active torsions:
REMARK  status: ('A' for Active; 'I' for Inactive)
REMARK    1  A    between atoms: C_1  and  C_2
REMARK    2  A    between atoms: C_4  and  C_5
REMARK    3  A    between atoms: C_10  and  C_11
REMARK    4  A    between atoms: N_13  and  C_14
REMARK    5  A    between atoms: C_17  and  O_18
REMARK    6  A    between atoms: O_18  and  C_19
REMARK    7  A    between atoms: C_21  and  C_22
REMARK                            x       y       z     vdW  Elec       q    Type
REMARK                         _______ _______ _______ _____ _____    ______ ____
ROOT
ATOM      1  C   UNL     1       1.533   9.169  18.444  0.00  0.00    +0.000 C 
ATOM      2  O   UNL     1       1.984   9.589  17.369  0.00  0.00    +0.000 OA
ATOM      3  N   UNL     1       1.855   7.952  19.027  0.00  0.00    +0.000 N 
ATOM      4  H   UNL     1       1.278   7.610  19.788  0.00  0.00    +0.000 HD
ENDROOT
BRANCH   1  14
ATOM      5  C   UNL     1      -3.578  15.039  22.825  0.00  0.00    +0.000 C 
ATOM      6  C   UNL     1      -3.449  14.000  21.776  0.00  0.00    +0.000 A 
ATOM      7  C   UNL     1      -4.381  13.681  20.770  0.00  0.00    +0.000 A 
ATOM      8  C   UNL     1      -3.782  12.700  20.013  0.00  0.00    +0.000 A 
ATOM      9  C   UNL     1      -4.307  11.917  18.867  0.00  0.00    +0.000 C 
ATOM     10  N   UNL     1      -2.520  12.510  20.556  0.00  0.00    +0.000 N 
ATOM     11  C   UNL     1      -1.480  11.666  20.056  0.00  0.00    +0.000 A 
ATOM     12  C   UNL     1      -0.277  11.585  20.753  0.00  0.00    +0.000 A 
ATOM     13  C   UNL     1       0.728  10.732  20.284  0.00  0.00    +0.000 A 
ATOM     14  C   UNL     1       0.525  10.024  19.100  0.00  0.00    +0.000 A 
ATOM     15  C   UNL     1      -0.695  10.192  18.451  0.00  0.00    +0.000 A 
ATOM     16  N   UNL     1      -1.698  10.963  18.917  0.00  0.00    +0.000 NA
ATOM     17  N   UNL     1      -2.359  13.234  21.702  0.00  0.00    +0.000 NA
ENDBRANCH   1  14
BRANCH   3  18
ATOM     18  C   UNL     1       2.785   7.033  18.470  0.00  0.00    +0.000 A 
ATOM     19  C   UNL     1       3.778   7.444  17.584  0.00  0.00    +0.000 A 
ATOM     20  C   UNL     1       4.630   6.523  16.972  0.00  0.00    +0.000 A 
ATOM     21  C   UNL     1       4.526   5.167  17.273  0.00  0.00    +0.000 A 
ATOM     22  C   UNL     1       3.560   4.745  18.187  0.00  0.00    +0.000 A 
ATOM     23  C   UNL     1       2.696   5.675  18.796  0.00  0.00    +0.000 A 
BRANCH  21  24
ATOM     24  O   UNL     1       5.272   4.190  16.653  0.00  0.00    +0.000 OA
BRANCH  24  25
ATOM     25  C   UNL     1       6.023   4.452  15.563  0.00  0.00    +0.000 A 
ATOM     26  C   UNL     1       5.768   4.187  14.202  0.00  0.00    +0.000 A 
ATOM     27  C   UNL     1       6.911   4.594  13.549  0.00  0.00    +0.000 A 
ATOM     28  C   UNL     1       7.310   4.525  12.128  0.00  0.00    +0.000 C 
ATOM     29  N   UNL     1       7.723   5.124  14.522  0.00  0.00    +0.000 N 
ATOM     30  N   UNL     1       7.190   5.070  15.756  0.00  0.00    +0.000 NA
ATOM     31  H   UNL     1       8.649   5.522  14.415  0.00  0.00    +0.000 HD
ENDBRANCH  24  25
ENDBRANCH  21  24
ENDBRANCH   3  18
TORSDOF 4
ENDMDL
MODEL 9
REMARK VINA RESULT:      -8.6      0.590      1.068
REMARK  Name = 
REMARK  7 active torsions:
REMARK  status: ('A' for Active; 'I' for Inactive)
REMARK    1  A    between atoms: C_1  and  C_2
REMARK    2  A    between atoms: C_4  and  C_5
REMARK    3  A    between atoms: C_10  and  C_11
REMARK    4  A    between atoms: N_13  and  C_14
REMARK    5  A    between atoms: C_17  and  O_18
REMARK    6  A    between atoms: O_18  and  C_19
REMARK    7  A    between atoms: C_21  and  C_22
REMARK                            x       y       z     vdW  Elec       q    Type
REMARK                         _______ _______ _______ _____ _____    ______ ____
ROOT
ATOM      1  C   UNL     1       1.081   8.843  20.677  0.00  0.00    +0.000 C 
ATOM      2  O   UNL     1       1.093   8.466  21.857  0.00  0.00    +0.000 OA
ATOM      3  N   UNL     1       0.370   9.929  20.190  0.00  0.00    +0.000 N 
ATOM      4  H   UNL     1       0.256  10.026  19.187  0.00  0.00    +0.000 HD
ENDROOT
BRANCH   1  14
ATOM      5  C   UNL     1       6.212   4.882  14.532  0.00  0.00    +0.000 C 
ATOM      6  C   UNL     1       5.399   4.779  15.768  0.00  0.00    +0.000 A 
ATOM      7  C   UNL     1       5.337   3.693  16.662  0.00  0.00    +0.000 A 
ATOM      8  C   UNL     1       4.497   4.100  17.674  0.00  0.00    +0.000 A 
ATOM      9  C   UNL     1       3.989   3.360  18.855  0.00  0.00    +0.000 C 
ATOM     10  N   UNL     1       4.137   5.406  17.376  0.00  0.00    +0.000 N 
ATOM     11  C   UNL     1       3.358   6.295  18.180  0.00  0.00    +0.000 A 
ATOM     12  C   UNL     1       3.076   7.572  17.702  0.00  0.00    +0.000 A 
ATOM     13  C   UNL     1       2.283   8.430  18.472  0.00  0.00    +0.000 A 
ATOM     14  C   UNL     1       1.839   8.007  19.724  0.00  0.00    +0.000 A 
ATOM     15  C   UNL     1       2.196   6.727  20.137  0.00  0.00    +0.000 A 
ATOM     16  N   UNL     1       2.910   5.864  19.385  0.00  0.00    +0.000 NA
ATOM     17  N   UNL     1       4.608   5.782  16.151  0.00  0.00    +0.000 NA
ENDBRANCH   1  14
BRANCH   3  18
ATOM     18  C   UNL     1      -0.420  10.784  21.006  0.00  0.00    +0.000 A 
ATOM     19  C   UNL     1      -0.609  10.530  22.363  0.00  0.00    +0.000 A 
ATOM     20  C   UNL     1      -1.458  11.322  23.137  0.00  0.00    +0.000 A 
ATOM     21  C   UNL     1      -2.106  12.416  22.568  0.00  0.00    +0.000 A 
ATOM     22  C   UNL     1      -1.897  12.704  21.219  0.00  0.00    +0.000 A 
ATOM     23  C   UNL     1      -1.046  11.899  20.438  0.00  0.00    +0.000 A 
BRANCH  21  24
ATOM     24  O   UNL     1      -3.020  13.195  23.242  0.00  0.00    +0.000 OA
BRANCH  24  25
ATOM     25  C   UNL     1      -4.320  12.845  23.339  0.00  0.00    +0.000 A 
ATOM     26  C   UNL     1      -5.375  13.016  22.420  0.00  0.00    +0.000 A 
ATOM     27  C   UNL     1      -6.489  12.547  23.081  0.00  0.00    +0.000 A 
ATOM     28  C   UNL     1      -7.916  12.508  22.698  0.00  0.00    +0.000 C 
ATOM     29  N   UNL     1      -6.033  12.076  24.287  0.00  0.00    +0.000 N 
ATOM     30  N   UNL     1      -4.706  12.226  24.456  0.00  0.00    +0.000 NA
ATOM     31  H   UNL     1      -6.568  11.659  25.039  0.00  0.00    +0.000 HD
ENDBRANCH  24  25
ENDBRANCH  21  24
ENDBRANCH   3  18
TORSDOF 4
ENDMDL
