MODEL 1
REMARK VINA RESULT:      -8.5      0.000      0.000
REMARK  Name = 
REMARK  4 active torsions:
REMARK  status: ('A' for Active; 'I' for Inactive)
REMARK    1  A    between atoms: C_2  and  C_18
REMARK    2  A    between atoms: N_3  and  C_4
REMARK    3  A    between atoms: C_8  and  C_9
REMARK    4  A    between atoms: C_22  and  C_23
REMARK                            x       y       z     vdW  Elec       q    Type
REMARK                         _______ _______ _______ _____ _____    ______ ____
ROOT
ATOM      1  C   UNL     1       2.145   5.624  20.508  0.00  0.00    +0.000 A 
ATOM      2  C   UNL     1       1.578   4.351  20.607  0.00  0.00    +0.000 A 
ATOM      3  C   UNL     1       2.309   3.216  20.273  0.00  0.00    +0.000 A 
ATOM      4  C   UNL     1       3.612   3.351  19.815  0.00  0.00    +0.000 A 
ATOM      5  C   UNL     1       4.147   4.615  19.546  0.00  0.00    +0.000 A 
ATOM      6  C   UNL     1       3.414   5.758  19.924  0.00  0.00    +0.000 A 
ENDROOT
BRANCH   5   7
ATOM      7  C   UNL     1       5.518   4.780  18.969  0.00  0.00    +0.000 C 
ATOM      8  O   UNL     1       6.393   5.191  19.728  0.00  0.00    +0.000 OA
ATOM      9  N   UNL     1       5.777   4.466  17.622  0.00  0.00    +0.000 N 
ATOM     10  C   UNL     1       7.171   4.364  17.183  0.00  0.00    +0.000 C 
ATOM     11  C   UNL     1       7.431   5.214  15.940  0.00  0.00    +0.000 C 
ATOM     12  C   UNL     1       6.439   4.891  14.825  0.00  0.00    +0.000 C 
ATOM     13  C   UNL     1       5.012   5.021  15.331  0.00  0.00    +0.000 C 
ATOM     14  C   UNL     1       4.786   4.187  16.583  0.00  0.00    +0.000 C 
ENDBRANCH   5   7
BRANCH   1  17
ATOM     15  O   UNL     1       1.953   8.260  19.257  0.00  0.00    +0.000 OA
ATOM     16  C   UNL     1       1.457   8.003  20.348  0.00  0.00    +0.000 C 
ATOM     17  N   UNL     1       1.485   6.778  21.003  0.00  0.00    +0.000 N 
ATOM     18  H   UNL     1       0.831   6.634  21.761  0.00  0.00    +0.000 HD
BRANCH  16  19
ATOM     19  C   UNL     1       0.694   9.091  21.004  0.00  0.00    +0.000 A 
ATOM     20  C   UNL     1       0.445   8.972  22.371  0.00  0.00    +0.000 A 
ATOM     21  C   UNL     1      -0.323   9.943  22.968  0.00  0.00    +0.000 A 
ATOM     22  N   UNL     1      -0.851  10.988  22.298  0.00  0.00    +0.000 NA
ATOM     23  C   UNL     1      -0.630  11.092  20.961  0.00  0.00    +0.000 A 
ATOM     24  C   UNL     1       0.155  10.157  20.287  0.00  0.00    +0.000 A 
BRANCH  23  25
ATOM     25  C   UNL     1      -1.266  12.261  20.251  0.00  0.00    +0.000 C 
ATOM     26  C   UNL     1      -2.320  11.977  19.202  0.00  0.00    +0.000 C 
ATOM     27  C   UNL     1      -1.003  12.564  18.794  0.00  0.00    +0.000 C 
ENDBRANCH  23  25
ENDBRANCH  16  19
ENDBRANCH   1  17
TORSDOF 4
ENDMDL
MODEL 2
REMARK VINA RESULT:      -8.4      0.931      1.226
REMARK  Name = 
REMARK  4 active torsions:
REMARK  status: ('A' for Active; 'I' for Inactive)
REMARK    1  A    between atoms: C_2  and  C_18
REMARK    2  A    between atoms: N_3  and  C_4
REMARK    3  A    between atoms: C_8  and  C_9
REMARK    4  A    between atoms: C_22  and  C_23
REMARK                            x       y       z     vdW  Elec       q    Type
REMARK                         _______ _______ _______ _____ _____    ______ ____
ROOT
ATOM      1  C   UNL     1       2.115   5.791  20.409  0.00  0.00    +0.000 A 
ATOM      2  C   UNL     1       1.404   4.592  20.310  0.00  0.00    +0.000 A 
ATOM      3  C   UNL     1       2.014   3.437  19.834  0.00  0.00    +0.000 A 
ATOM      4  C   UNL     1       3.342   3.479  19.432  0.00  0.00    +0.000 A 
ATOM      5  C   UNL     1       4.027   4.697  19.360  0.00  0.00    +0.000 A 
ATOM      6  C   UNL     1       3.413   5.854  19.881  0.00  0.00    +0.000 A 
ENDROOT
BRANCH   5   7
ATOM      7  C   UNL     1       5.431   4.777  18.846  0.00  0.00    +0.000 C 
ATOM      8  O   UNL     1       6.298   5.103  19.653  0.00  0.00    +0.000 OA
ATOM      9  N   UNL     1       5.725   4.483  17.502  0.00  0.00    +0.000 N 
ATOM     10  C   UNL     1       7.126   4.293  17.118  0.00  0.00    +0.000 C 
ATOM     11  C   UNL     1       7.500   5.155  15.914  0.00  0.00    +0.000 C 
ATOM     12  C   UNL     1       6.537   4.937  14.749  0.00  0.00    +0.000 C 
ATOM     13  C   UNL     1       5.102   5.156  15.199  0.00  0.00    +0.000 C 
ATOM     14  C   UNL     1       4.762   4.306  16.414  0.00  0.00    +0.000 C 
ENDBRANCH   5   7
BRANCH   1  17
ATOM     15  O   UNL     1       1.762   8.473  19.299  0.00  0.00    +0.000 OA
ATOM     16  C   UNL     1       1.454   8.182  20.450  0.00  0.00    +0.000 C 
ATOM     17  N   UNL     1       1.570   6.934  21.048  0.00  0.00    +0.000 N 
ATOM     18  H   UNL     1       1.053   6.771  21.902  0.00  0.00    +0.000 HD
BRANCH  16  19
ATOM     19  C   UNL     1       0.835   9.255  21.263  0.00  0.00    +0.000 A 
ATOM     20  C   UNL     1       0.283   8.897  22.492  0.00  0.00    +0.000 A 
ATOM     21  C   UNL     1      -0.356   9.875  23.216  0.00  0.00    +0.000 A 
ATOM     22  N   UNL     1      -0.481  11.149  22.792  0.00  0.00    +0.000 NA
ATOM     23  C   UNL     1       0.034  11.495  21.583  0.00  0.00    +0.000 A 
ATOM     24  C   UNL     1       0.714  10.563  20.799  0.00  0.00    +0.000 A 
BRANCH  23  25
ATOM     25  C   UNL     1      -0.157  12.924  21.139  0.00  0.00    +0.000 C 
ATOM     26  C   UNL     1       0.942  13.921  21.435  0.00  0.00    +0.000 C 
ATOM     27  C   UNL     1      -0.386  14.052  22.117  0.00  0.00    +0.000 C 
ENDBRANCH  23  25
ENDBRANCH  16  19
ENDBRANCH   1  17
TORSDOF 4
ENDMDL
MODEL 3
REMARK VINA RESULT:      -8.3      4.983      7.662
REMARK  Name = 
REMARK  4 active torsions:
REMARK  status: ('A' for Active; 'I' for Inactive)
REMARK    1  A    between atoms: C_2  and  C_18
REMARK    2  A    between atoms: N_3  and  C_4
REMARK    3  A    between atoms: C_8  and  C_9
REMARK    4  A    between atoms: C_22  and  C_23
REMARK                            x       y       z     vdW  Elec       q    Type
REMARK                         _______ _______ _______ _____ _____    ______ ____
ROOT
ATOM      1  C   UNL     1       6.565   6.446  17.004  0.00  0.00    +0.000 A 
ATOM      2  C   UNL     1       6.647   5.847  15.744  0.00  0.00    +0.000 A 
ATOM      3  C   UNL     1       6.019   4.632  15.489  0.00  0.00    +0.000 A 
ATOM      4  C   UNL     1       5.320   3.996  16.506  0.00  0.00    +0.000 A 
ATOM      5  C   UNL     1       5.362   4.485  17.816  0.00  0.00    +0.000 A 
ATOM      6  C   UNL     1       5.968   5.735  18.055  0.00  0.00    +0.000 A 
ENDROOT
BRANCH   5   7
ATOM      7  C   UNL     1       4.688   3.767  18.943  0.00  0.00    +0.000 C 
ATOM      8  O   UNL     1       5.400   3.062  19.655  0.00  0.00    +0.000 OA
ATOM      9  N   UNL     1       3.307   3.911  19.167  0.00  0.00    +0.000 N 
ATOM     10  C   UNL     1       2.750   3.432  20.435  0.00  0.00    +0.000 C 
ATOM     11  C   UNL     1       1.550   2.513  20.210  0.00  0.00    +0.000 C 
ATOM     12  C   UNL     1       0.500   3.173  19.319  0.00  0.00    +0.000 C 
ATOM     13  C   UNL     1       1.127   3.641  18.017  0.00  0.00    +0.000 C 
ATOM     14  C   UNL     1       2.334   4.533  18.268  0.00  0.00    +0.000 C 
ENDBRANCH   5   7
BRANCH   1  17
ATOM     15  O   UNL     1       8.596   7.294  18.930  0.00  0.00    +0.000 OA
ATOM     16  C   UNL     1       8.008   8.078  18.193  0.00  0.00    +0.000 C 
ATOM     17  N   UNL     1       7.048   7.759  17.241  0.00  0.00    +0.000 N 
ATOM     18  H   UNL     1       6.833   8.453  16.537  0.00  0.00    +0.000 HD
BRANCH  16  19
ATOM     19  C   UNL     1       8.409   9.501  18.282  0.00  0.00    +0.000 A 
ATOM     20  C   UNL     1       7.835  10.392  17.376  0.00  0.00    +0.000 A 
ATOM     21  C   UNL     1       8.259  11.699  17.408  0.00  0.00    +0.000 A 
ATOM     22  N   UNL     1       9.203  12.152  18.258  0.00  0.00    +0.000 NA
ATOM     23  C   UNL     1       9.782  11.281  19.125  0.00  0.00    +0.000 A 
ATOM     24  C   UNL     1       9.391   9.943  19.167  0.00  0.00    +0.000 A 
BRANCH  23  25
ATOM     25  C   UNL     1      10.853  11.828  20.036  0.00  0.00    +0.000 C 
ATOM     26  C   UNL     1      10.424  12.583  21.275  0.00  0.00    +0.000 C 
ATOM     27  C   UNL     1      11.126  13.308  20.167  0.00  0.00    +0.000 C 
ENDBRANCH  23  25
ENDBRANCH  16  19
ENDBRANCH   1  17
TORSDOF 4
ENDMDL
MODEL 4
REMARK VINA RESULT:      -8.1      4.869      7.925
REMARK  Name = 
REMARK  4 active torsions:
REMARK  status: ('A' for Active; 'I' for Inactive)
REMARK    1  A    between atoms: C_2  and  C_18
REMARK    2  A    between atoms: N_3  and  C_4
REMARK    3  A    between atoms: C_8  and  C_9
REMARK    4  A    between atoms: C_22  and  C_23
REMARK                            x       y       z     vdW  Elec       q    Type
REMARK                         _______ _______ _______ _____ _____    ______ ____
ROOT
ATOM      1  C   UNL     1       6.116   6.730  17.014  0.00  0.00    +0.000 A 
ATOM      2  C   UNL     1       6.711   5.794  16.163  0.00  0.00    +0.000 A 
ATOM      3  C   UNL     1       6.031   4.643  15.781  0.00  0.00    +0.000 A 
ATOM      4  C   UNL     1       4.752   4.410  16.266  0.00  0.00    +0.000 A 
ATOM      5  C   UNL     1       4.199   5.239  17.248  0.00  0.00    +0.000 A 
ATOM      6  C   UNL     1       4.879   6.422  17.600  0.00  0.00    +0.000 A 
ENDROOT
BRANCH   5   7
ATOM      7  C   UNL     1       2.858   4.956  17.850  0.00  0.00    +0.000 C 
ATOM      8  O   UNL     1       1.946   5.727  17.560  0.00  0.00    +0.000 OA
ATOM      9  N   UNL     1       2.666   3.850  18.697  0.00  0.00    +0.000 N 
ATOM     10  C   UNL     1       1.296   3.447  19.024  0.00  0.00    +0.000 C 
ATOM     11  C   UNL     1       1.097   3.305  20.532  0.00  0.00    +0.000 C 
ATOM     12  C   UNL     1       2.144   2.379  21.148  0.00  0.00    +0.000 C 
ATOM     13  C   UNL     1       3.544   2.846  20.787  0.00  0.00    +0.000 C 
ATOM     14  C   UNL     1       3.708   3.005  19.283  0.00  0.00    +0.000 C 
ENDBRANCH   5   7
BRANCH   1  17
ATOM     15  O   UNL     1       8.485   7.281  18.637  0.00  0.00    +0.000 OA
ATOM     16  C   UNL     1       7.838   8.162  18.082  0.00  0.00    +0.000 C 
ATOM     17  N   UNL     1       6.716   7.987  17.281  0.00  0.00    +0.000 N 
ATOM     18  H   UNL     1       6.436   8.756  16.688  0.00  0.00    +0.000 HD
BRANCH  16  19
ATOM     19  C   UNL     1       8.342   9.547  18.227  0.00  0.00    +0.000 A 
ATOM     20  C   UNL     1       7.881  10.501  17.320  0.00  0.00    +0.000 A 
ATOM     21  C   UNL     1       8.402  11.770  17.406  0.00  0.00    +0.000 A 
ATOM     22  N   UNL     1       9.335  12.129  18.310  0.00  0.00    +0.000 NA
ATOM     23  C   UNL     1       9.804  11.196  19.179  0.00  0.00    +0.000 A 
ATOM     24  C   UNL     1       9.312   9.892  19.167  0.00  0.00    +0.000 A 
BRANCH  23  25
ATOM     25  C   UNL     1      10.869  11.638  20.152  0.00  0.00    +0.000 C 
ATOM     26  C   UNL     1      11.547  12.970  19.917  0.00  0.00    +0.000 C 
ATOM     27  C   UNL     1      12.332  11.701  19.779  0.00  0.00    +0.000 C 
ENDBRANCH  23  25
ENDBRANCH  16  19
ENDBRANCH   1  17
TORSDOF 4
ENDMDL
MODEL 5
REMARK VINA RESULT:      -8.1      2.383      3.119
REMARK  Name = 
REMARK  4 active torsions:
REMARK  status: ('A' for Active; 'I' for Inactive)
REMARK    1  A    between atoms: C_2  and  C_18
REMARK    2  A    between atoms: N_3  and  C_4
REMARK    3  A    between atoms: C_8  and  C_9
REMARK    4  A    between atoms: C_22  and  C_23
REMARK                            x       y       z     vdW  Elec       q    Type
REMARK                         _______ _______ _______ _____ _____    ______ ____
ROOT
ATOM      1  C   UNL     1       2.706   7.291  18.229  0.00  0.00    +0.000 A 
ATOM      2  C   UNL     1       2.617   6.419  19.318  0.00  0.00    +0.000 A 
ATOM      3  C   UNL     1       3.673   5.577  19.647  0.00  0.00    +0.000 A 
ATOM      4  C   UNL     1       4.824   5.587  18.871  0.00  0.00    +0.000 A 
ATOM      5  C   UNL     1       4.876   6.321  17.681  0.00  0.00    +0.000 A 
ATOM      6  C   UNL     1       3.817   7.200  17.378  0.00  0.00    +0.000 A 
ENDROOT
BRANCH   5   7
ATOM      7  C   UNL     1       6.074   6.277  16.784  0.00  0.00    +0.000 C 
ATOM      8  O   UNL     1       6.885   7.193  16.897  0.00  0.00    +0.000 OA
ATOM      9  N   UNL     1       6.251   5.224  15.868  0.00  0.00    +0.000 N 
ATOM     10  C   UNL     1       7.558   5.066  15.227  0.00  0.00    +0.000 C 
ATOM     11  C   UNL     1       7.430   4.966  13.708  0.00  0.00    +0.000 C 
ATOM     12  C   UNL     1       6.442   3.876  13.301  0.00  0.00    +0.000 C 
ATOM     13  C   UNL     1       5.102   4.093  13.985  0.00  0.00    +0.000 C 
ATOM     14  C   UNL     1       5.259   4.214  15.493  0.00  0.00    +0.000 C 
ENDBRANCH   5   7
BRANCH   1  17
ATOM     15  O   UNL     1       1.522   9.175  20.125  0.00  0.00    +0.000 OA
ATOM     16  C   UNL     1       1.194   9.123  18.945  0.00  0.00    +0.000 C 
ATOM     17  N   UNL     1       1.717   8.276  17.976  0.00  0.00    +0.000 N 
ATOM     18  H   UNL     1       1.546   8.506  17.007  0.00  0.00    +0.000 HD
BRANCH  16  19
ATOM     19  C   UNL     1       0.186  10.110  18.492  0.00  0.00    +0.000 A 
ATOM     20  C   UNL     1       0.376  11.442  18.857  0.00  0.00    +0.000 A 
ATOM     21  C   UNL     1      -0.594  12.348  18.501  0.00  0.00    +0.000 A 
ATOM     22  N   UNL     1      -1.714  12.010  17.831  0.00  0.00    +0.000 NA
ATOM     23  C   UNL     1      -1.914  10.709  17.496  0.00  0.00    +0.000 A 
ATOM     24  C   UNL     1      -0.967   9.734  17.805  0.00  0.00    +0.000 A 
BRANCH  23  25
ATOM     25  C   UNL     1      -3.196  10.375  16.774  0.00  0.00    +0.000 C 
ATOM     26  C   UNL     1      -3.289  10.687  15.296  0.00  0.00    +0.000 C 
ATOM     27  C   UNL     1      -4.143  11.439  16.271  0.00  0.00    +0.000 C 
ENDBRANCH  23  25
ENDBRANCH  16  19
ENDBRANCH   1  17
TORSDOF 4
ENDMDL
MODEL 6
REMARK VINA RESULT:      -8.1      4.916      7.677
REMARK  Name = 
REMARK  4 active torsions:
REMARK  status: ('A' for Active; 'I' for Inactive)
REMARK    1  A    between atoms: C_2  and  C_18
REMARK    2  A    between atoms: N_3  and  C_4
REMARK    3  A    between atoms: C_8  and  C_9
REMARK    4  A    between atoms: C_22  and  C_23
REMARK                            x       y       z     vdW  Elec       q    Type
REMARK                         _______ _______ _______ _____ _____    ______ ____
ROOT
ATOM      1  C   UNL     1       7.309   6.235  17.838  0.00  0.00    +0.000 A 
ATOM      2  C   UNL     1       7.340   5.803  16.509  0.00  0.00    +0.000 A 
ATOM      3  C   UNL     1       6.503   4.783  16.070  0.00  0.00    +0.000 A 
ATOM      4  C   UNL     1       5.640   4.171  16.968  0.00  0.00    +0.000 A 
ATOM      5  C   UNL     1       5.705   4.465  18.334  0.00  0.00    +0.000 A 
ATOM      6  C   UNL     1       6.528   5.525  18.763  0.00  0.00    +0.000 A 
ENDROOT
BRANCH   5   7
ATOM      7  C   UNL     1       4.845   3.753  19.331  0.00  0.00    +0.000 C 
ATOM      8  O   UNL     1       5.407   2.959  20.081  0.00  0.00    +0.000 OA
ATOM      9  N   UNL     1       3.462   4.002  19.399  0.00  0.00    +0.000 N 
ATOM     10  C   UNL     1       2.719   3.512  20.563  0.00  0.00    +0.000 C 
ATOM     11  C   UNL     1       1.488   2.709  20.146  0.00  0.00    +0.000 C 
ATOM     12  C   UNL     1       0.609   3.496  19.177  0.00  0.00    +0.000 C 
ATOM     13  C   UNL     1       1.425   3.971  17.986  0.00  0.00    +0.000 C 
ATOM     14  C   UNL     1       2.658   4.746  18.428  0.00  0.00    +0.000 C 
ENDBRANCH   5   7
BRANCH   1  17
ATOM     15  O   UNL     1       6.939   9.008  16.986  0.00  0.00    +0.000 OA
ATOM     16  C   UNL     1       7.794   8.668  17.798  0.00  0.00    +0.000 C 
ATOM     17  N   UNL     1       8.023   7.382  18.269  0.00  0.00    +0.000 N 
ATOM     18  H   UNL     1       8.576   7.280  19.110  0.00  0.00    +0.000 HD
BRANCH  16  19
ATOM     19  C   UNL     1       8.621   9.749  18.382  0.00  0.00    +0.000 A 
ATOM     20  C   UNL     1       9.013   9.615  19.713  0.00  0.00    +0.000 A 
ATOM     21  C   UNL     1       9.719  10.649  20.281  0.00  0.00    +0.000 A 
ATOM     22  N   UNL     1      10.037  11.780  19.619  0.00  0.00    +0.000 NA
ATOM     23  C   UNL     1       9.635  11.924  18.329  0.00  0.00    +0.000 A 
ATOM     24  C   UNL     1       8.932  10.911  17.678  0.00  0.00    +0.000 A 
BRANCH  23  25
ATOM     25  C   UNL     1       9.989  13.219  17.641  0.00  0.00    +0.000 C 
ATOM     26  C   UNL     1      11.227  13.254  16.770  0.00  0.00    +0.000 C 
ATOM     27  C   UNL     1      11.187  14.048  18.041  0.00  0.00    +0.000 C 
ENDBRANCH  23  25
ENDBRANCH  16  19
ENDBRANCH   1  17
TORSDOF 4
ENDMDL
MODEL 7
REMARK VINA RESULT:      -8.1      1.336      1.699
REMARK  Name = 
REMARK  4 active torsions:
REMARK  status: ('A' for Active; 'I' for Inactive)
REMARK    1  A    between atoms: C_2  and  C_18
REMARK    2  A    between atoms: N_3  and  C_4
REMARK    3  A    between atoms: C_8  and  C_9
REMARK    4  A    between atoms: C_22  and  C_23
REMARK                            x       y       z     vdW  Elec       q    Type
REMARK                         _______ _______ _______ _____ _____    ______ ____
ROOT
ATOM      1  C   UNL     1       1.933   5.196  20.571  0.00  0.00    +0.000 A 
ATOM      2  C   UNL     1       2.077   4.103  21.430  0.00  0.00    +0.000 A 
ATOM      3  C   UNL     1       2.714   2.942  21.007  0.00  0.00    +0.000 A 
ATOM      4  C   UNL     1       3.196   2.859  19.708  0.00  0.00    +0.000 A 
ATOM      5  C   UNL     1       2.918   3.866  18.778  0.00  0.00    +0.000 A 
ATOM      6  C   UNL     1       2.305   5.054  19.226  0.00  0.00    +0.000 A 
ENDROOT
BRANCH   5   7
ATOM      7  C   UNL     1       3.351   3.756  17.350  0.00  0.00    +0.000 C 
ATOM      8  O   UNL     1       2.628   3.104  16.600  0.00  0.00    +0.000 OA
ATOM      9  N   UNL     1       4.528   4.384  16.902  0.00  0.00    +0.000 N 
ATOM     10  C   UNL     1       4.756   4.494  15.459  0.00  0.00    +0.000 C 
ATOM     11  C   UNL     1       6.138   3.973  15.068  0.00  0.00    +0.000 C 
ATOM     12  C   UNL     1       7.239   4.639  15.890  0.00  0.00    +0.000 C 
ATOM     13  C   UNL     1       6.959   4.487  17.375  0.00  0.00    +0.000 C 
ATOM     14  C   UNL     1       5.568   4.989  17.735  0.00  0.00    +0.000 C 
ENDBRANCH   5   7
BRANCH   1  17
ATOM     15  O   UNL     1       2.302   7.825  19.345  0.00  0.00    +0.000 OA
ATOM     16  C   UNL     1       1.681   7.658  20.389  0.00  0.00    +0.000 C 
ATOM     17  N   UNL     1       1.443   6.447  21.027  0.00  0.00    +0.000 N 
ATOM     18  H   UNL     1       0.715   6.418  21.728  0.00  0.00    +0.000 HD
BRANCH  16  19
ATOM     19  C   UNL     1       1.067   8.861  20.996  0.00  0.00    +0.000 A 
ATOM     20  C   UNL     1       0.829   8.842  22.370  0.00  0.00    +0.000 A 
ATOM     21  C   UNL     1       0.195   9.928  22.925  0.00  0.00    +0.000 A 
ATOM     22  N   UNL     1      -0.215  10.994  22.208  0.00  0.00    +0.000 NA
ATOM     23  C   UNL     1      -0.007  11.004  20.865  0.00  0.00    +0.000 A 
ATOM     24  C   UNL     1       0.648   9.949  20.232  0.00  0.00    +0.000 A 
BRANCH  23  25
ATOM     25  C   UNL     1      -0.508  12.205  20.102  0.00  0.00    +0.000 C 
ATOM     26  C   UNL     1      -1.869  12.120  19.444  0.00  0.00    +0.000 C 
ATOM     27  C   UNL     1      -0.636  12.213  18.597  0.00  0.00    +0.000 C 
ENDBRANCH  23  25
ENDBRANCH  16  19
ENDBRANCH   1  17
TORSDOF 4
ENDMDL
MODEL 8
REMARK VINA RESULT:      -8.0      1.229      1.463
REMARK  Name = 
REMARK  4 active torsions:
REMARK  status: ('A' for Active; 'I' for Inactive)
REMARK    1  A    between atoms: C_2  and  C_18
REMARK    2  A    between atoms: N_3  and  C_4
REMARK    3  A    between atoms: C_8  and  C_9
REMARK    4  A    between atoms: C_22  and  C_23
REMARK                            x       y       z     vdW  Elec       q    Type
REMARK                         _______ _______ _______ _____ _____    ______ ____
ROOT
ATOM      1  C   UNL     1       2.087   6.462  19.869  0.00  0.00    +0.000 A 
ATOM      2  C   UNL     1       1.555   5.342  20.515  0.00  0.00    +0.000 A 
ATOM      3  C   UNL     1       2.330   4.208  20.734  0.00  0.00    +0.000 A 
ATOM      4  C   UNL     1       3.644   4.181  20.289  0.00  0.00    +0.000 A 
ATOM      5  C   UNL     1       4.151   5.215  19.495  0.00  0.00    +0.000 A 
ATOM      6  C   UNL     1       3.371   6.374  19.310  0.00  0.00    +0.000 A 
ENDROOT
BRANCH   5   7
ATOM      7  C   UNL     1       5.536   5.164  18.930  0.00  0.00    +0.000 C 
ATOM      8  O   UNL     1       6.441   5.594  19.642  0.00  0.00    +0.000 OA
ATOM      9  N   UNL     1       5.774   4.637  17.648  0.00  0.00    +0.000 N 
ATOM     10  C   UNL     1       7.154   4.341  17.258  0.00  0.00    +0.000 C 
ATOM     11  C   UNL     1       7.506   4.975  15.913  0.00  0.00    +0.000 C 
ATOM     12  C   UNL     1       6.496   4.593  14.834  0.00  0.00    +0.000 C 
ATOM     13  C   UNL     1       5.085   4.930  15.284  0.00  0.00    +0.000 C 
ATOM     14  C   UNL     1       4.768   4.308  16.637  0.00  0.00    +0.000 C 
ENDBRANCH   5   7
BRANCH   1  17
ATOM     15  O   UNL     1       1.647   8.431  21.985  0.00  0.00    +0.000 OA
ATOM     16  C   UNL     1       1.199   8.560  20.851  0.00  0.00    +0.000 C 
ATOM     17  N   UNL     1       1.376   7.686  19.786  0.00  0.00    +0.000 N 
ATOM     18  H   UNL     1       1.175   8.029  18.856  0.00  0.00    +0.000 HD
BRANCH  16  19
ATOM     19  C   UNL     1       0.449   9.806  20.571  0.00  0.00    +0.000 A 
ATOM     20  C   UNL     1       0.311  10.725  21.611  0.00  0.00    +0.000 A 
ATOM     21  C   UNL     1      -0.445  11.849  21.377  0.00  0.00    +0.000 A 
ATOM     22  N   UNL     1      -1.063  12.096  20.204  0.00  0.00    +0.000 NA
ATOM     23  C   UNL     1      -0.951  11.190  19.197  0.00  0.00    +0.000 A 
ATOM     24  C   UNL     1      -0.185  10.035  19.351  0.00  0.00    +0.000 A 
BRANCH  23  25
ATOM     25  C   UNL     1      -1.685  11.496  17.915  0.00  0.00    +0.000 C 
ATOM     26  C   UNL     1      -3.161  11.172  17.837  0.00  0.00    +0.000 C 
ATOM     27  C   UNL     1      -2.186  10.413  16.989  0.00  0.00    +0.000 C 
ENDBRANCH  23  25
ENDBRANCH  16  19
ENDBRANCH   1  17
TORSDOF 4
ENDMDL
MODEL 9
REMARK VINA RESULT:      -8.0      2.538      9.202
REMARK  Name = 
REMARK  4 active torsions:
REMARK  status: ('A' for Active; 'I' for Inactive)
REMARK    1  A    between atoms: C_2  and  C_18
REMARK    2  A    between atoms: N_3  and  C_4
REMARK    3  A    between atoms: C_8  and  C_9
REMARK    4  A    between atoms: C_22  and  C_23
REMARK                            x       y       z     vdW  Elec       q    Type
REMARK                         _______ _______ _______ _____ _____    ______ ____
ROOT
ATOM      1  C   UNL     1       1.714  10.001  18.019  0.00  0.00    +0.000 A 
ATOM      2  C   UNL     1       2.534  11.131  17.938  0.00  0.00    +0.000 A 
ATOM      3  C   UNL     1       2.108  12.359  18.432  0.00  0.00    +0.000 A 
ATOM      4  C   UNL     1       0.844  12.469  18.996  0.00  0.00    +0.000 A 
ATOM      5  C   UNL     1      -0.059  11.402  18.939  0.00  0.00    +0.000 A 
ATOM      6  C   UNL     1       0.395  10.152  18.471  0.00  0.00    +0.000 A 
ENDROOT
BRANCH   5   7
ATOM      7  C   UNL     1      -1.456  11.527  19.461  0.00  0.00    +0.000 C 
ATOM      8  O   UNL     1      -1.600  11.461  20.680  0.00  0.00    +0.000 OA
ATOM      9  N   UNL     1      -2.539  11.720  18.585  0.00  0.00    +0.000 N 
ATOM     10  C   UNL     1      -3.830  12.125  19.147  0.00  0.00    +0.000 C 
ATOM     11  C   UNL     1      -4.962  11.219  18.664  0.00  0.00    +0.000 C 
ATOM     12  C   UNL     1      -4.989  11.123  17.140  0.00  0.00    +0.000 C 
ATOM     13  C   UNL     1      -3.631  10.692  16.611  0.00  0.00    +0.000 C 
ATOM     14  C   UNL     1      -2.519  11.593  17.127  0.00  0.00    +0.000 C 
ENDBRANCH   5   7
BRANCH   1  17
ATOM     15  O   UNL     1       2.125   7.716  19.797  0.00  0.00    +0.000 OA
ATOM     16  C   UNL     1       2.371   7.679  18.596  0.00  0.00    +0.000 C 
ATOM     17  N   UNL     1       2.188   8.707  17.681  0.00  0.00    +0.000 N 
ATOM     18  H   UNL     1       2.188   8.469  16.698  0.00  0.00    +0.000 HD
BRANCH  16  19
ATOM     19  C   UNL     1       2.850   6.385  18.056  0.00  0.00    +0.000 A 
ATOM     20  C   UNL     1       2.072   5.255  18.303  0.00  0.00    +0.000 A 
ATOM     21  C   UNL     1       2.548   4.041  17.866  0.00  0.00    +0.000 A 
ATOM     22  N   UNL     1       3.726   3.894  17.227  0.00  0.00    +0.000 NA
ATOM     23  C   UNL     1       4.498   4.991  17.007  0.00  0.00    +0.000 A 
ATOM     24  C   UNL     1       4.074   6.259  17.403  0.00  0.00    +0.000 A 
BRANCH  23  25
ATOM     25  C   UNL     1       5.821   4.771  16.315  0.00  0.00    +0.000 C 
ATOM     26  C   UNL     1       5.931   5.128  14.849  0.00  0.00    +0.000 C 
ATOM     27  C   UNL     1       6.022   3.694  15.275  0.00  0.00    +0.000 C 
ENDBRANCH  23  25
ENDBRANCH  16  19
ENDBRANCH   1  17
TORSDOF 4
ENDMDL
