MODEL 1
REMARK VINA RESULT:      -8.7      0.000      0.000
REMARK  Name = 
REMARK  5 active torsions:
REMARK  status: ('A' for Active; 'I' for Inactive)
REMARK    1  A    between atoms: C_2  and  C_19
REMARK    2  A    between atoms: N_3  and  C_4
REMARK    3  A    between atoms: C_6  and  C_7
REMARK    4  A    between atoms: C_13  and  N_14
REMARK    5  A    between atoms: N_22  and  C_23
REMARK                            x       y       z     vdW  Elec       q    Type
REMARK                         _______ _______ _______ _____ _____    ______ ____
ROOT
ATOM      1  O   UNL     1       4.297   7.626  17.528  0.00  0.00    +0.000 OA
ATOM      2  C   UNL     1       3.166   7.336  17.901  0.00  0.00    +0.000 C 
ATOM      3  N   UNL     1       2.676   6.018  17.929  0.00  0.00    +0.000 N 
ATOM      4  H   UNL     1       1.813   5.854  18.427  0.00  0.00    +0.000 HD
ENDROOT
BRANCH   3   5
ATOM      5  C   UNL     1       3.512   4.942  17.610  0.00  0.00    +0.000 A 
ATOM      6  C   UNL     1       4.391   5.152  16.547  0.00  0.00    +0.000 A 
ATOM      7  C   UNL     1       5.223   4.133  16.083  0.00  0.00    +0.000 A 
ATOM      8  C   UNL     1       5.170   2.891  16.722  0.00  0.00    +0.000 A 
ATOM      9  C   UNL     1       4.274   2.673  17.780  0.00  0.00    +0.000 A 
ATOM     10  C   UNL     1       3.410   3.683  18.246  0.00  0.00    +0.000 A 
BRANCH  10  11
ATOM     11  N   UNL     1       2.506   3.438  19.255  0.00  0.00    +0.000 N 
ATOM     12  C   UNL     1       1.176   2.901  19.012  0.00  0.00    +0.000 C 
ATOM     13  C   UNL     1       0.503   3.243  20.332  0.00  0.00    +0.000 C 
ATOM     14  C   UNL     1       1.578   2.898  21.360  0.00  0.00    +0.000 C 
ATOM     15  C   UNL     1       2.917   3.111  20.624  0.00  0.00    +0.000 C 
ENDBRANCH  10  11
BRANCH   7  16
ATOM     16  C   UNL     1       6.163   4.390  14.936  0.00  0.00    +0.000 C 
ATOM     17  F   UNL     1       6.091   3.451  13.951  0.00  0.00    +0.000 F 
ATOM     18  F   UNL     1       5.929   5.586  14.331  0.00  0.00    +0.000 F 
ATOM     19  F   UNL     1       7.468   4.415  15.325  0.00  0.00    +0.000 F 
ENDBRANCH   7  16
ENDBRANCH   3   5
BRANCH   2  20
ATOM     20  C   UNL     1       2.224   8.337  18.413  0.00  0.00    +0.000 A 
ATOM     21  N   UNL     1       1.607   9.256  17.579  0.00  0.00    +0.000 NA
ATOM     22  C   UNL     1       0.823   9.923  18.393  0.00  0.00    +0.000 A 
ATOM     23  N   UNL     1       0.942   9.451  19.671  0.00  0.00    +0.000 N 
ATOM     24  N   UNL     1       1.866   8.453  19.703  0.00  0.00    +0.000 NA
BRANCH  23  25
ATOM     25  C   UNL     1       0.215   9.851  20.818  0.00  0.00    +0.000 A 
ATOM     26  C   UNL     1       0.240   9.071  21.983  0.00  0.00    +0.000 A 
ATOM     27  C   UNL     1      -0.403   9.515  23.133  0.00  0.00    +0.000 A 
ATOM     28  C   UNL     1      -1.100  10.722  23.124  0.00  0.00    +0.000 A 
ATOM     29  C   UNL     1      -1.158  11.489  21.952  0.00  0.00    +0.000 A 
ATOM     30  C   UNL     1      -0.500  11.056  20.803  0.00  0.00    +0.000 A 
ENDBRANCH  23  25
ENDBRANCH   2  20
TORSDOF 5
ENDMDL
MODEL 2
REMARK VINA RESULT:      -8.4      0.338      1.191
REMARK  Name = 
REMARK  5 active torsions:
REMARK  status: ('A' for Active; 'I' for Inactive)
REMARK    1  A    between atoms: C_2  and  C_19
REMARK    2  A    between atoms: N_3  and  C_4
REMARK    3  A    between atoms: C_6  and  C_7
REMARK    4  A    between atoms: C_13  and  N_14
REMARK    5  A    between atoms: N_22  and  C_23
REMARK                            x       y       z     vdW  Elec       q    Type
REMARK                         _______ _______ _______ _____ _____    ______ ____
ROOT
ATOM      1  O   UNL     1       3.703   7.647  16.645  0.00  0.00    +0.000 OA
ATOM      2  C   UNL     1       2.989   7.452  17.622  0.00  0.00    +0.000 C 
ATOM      3  N   UNL     1       2.843   6.194  18.233  0.00  0.00    +0.000 N 
ATOM      4  H   UNL     1       2.393   6.166  19.137  0.00  0.00    +0.000 HD
ENDROOT
BRANCH   3   5
ATOM      5  C   UNL     1       3.599   5.099  17.796  0.00  0.00    +0.000 A 
ATOM      6  C   UNL     1       4.468   5.349  16.733  0.00  0.00    +0.000 A 
ATOM      7  C   UNL     1       5.220   4.326  16.157  0.00  0.00    +0.000 A 
ATOM      8  C   UNL     1       5.097   3.036  16.683  0.00  0.00    +0.000 A 
ATOM      9  C   UNL     1       4.211   2.780  17.739  0.00  0.00    +0.000 A 
ATOM     10  C   UNL     1       3.426   3.797  18.318  0.00  0.00    +0.000 A 
BRANCH  10  11
ATOM     11  N   UNL     1       2.528   3.519  19.324  0.00  0.00    +0.000 N 
ATOM     12  C   UNL     1       1.172   3.057  19.069  0.00  0.00    +0.000 C 
ATOM     13  C   UNL     1       0.535   3.332  20.422  0.00  0.00    +0.000 C 
ATOM     14  C   UNL     1       1.611   2.871  21.404  0.00  0.00    +0.000 C 
ATOM     15  C   UNL     1       2.946   3.079  20.659  0.00  0.00    +0.000 C 
ENDBRANCH  10  11
BRANCH   7  16
ATOM     16  C   UNL     1       6.151   4.625  15.014  0.00  0.00    +0.000 C 
ATOM     17  F   UNL     1       5.965   5.859  14.467  0.00  0.00    +0.000 F 
ATOM     18  F   UNL     1       7.460   4.573  15.384  0.00  0.00    +0.000 F 
ATOM     19  F   UNL     1       6.017   3.743  13.984  0.00  0.00    +0.000 F 
ENDBRANCH   7  16
ENDBRANCH   3   5
BRANCH   2  20
ATOM     20  C   UNL     1       2.255   8.531  18.290  0.00  0.00    +0.000 A 
ATOM     21  N   UNL     1       1.919   9.705  17.633  0.00  0.00    +0.000 NA
ATOM     22  C   UNL     1       1.242  10.374  18.537  0.00  0.00    +0.000 A 
ATOM     23  N   UNL     1       1.159   9.661  19.702  0.00  0.00    +0.000 N 
ATOM     24  N   UNL     1       1.836   8.489  19.566  0.00  0.00    +0.000 NA
BRANCH  23  25
ATOM     25  C   UNL     1       0.455  10.000  20.882  0.00  0.00    +0.000 A 
ATOM     26  C   UNL     1      -0.152  11.257  21.010  0.00  0.00    +0.000 A 
ATOM     27  C   UNL     1      -0.917  11.551  22.134  0.00  0.00    +0.000 A 
ATOM     28  C   UNL     1      -1.058  10.607  23.150  0.00  0.00    +0.000 A 
ATOM     29  C   UNL     1      -0.425   9.361  23.044  0.00  0.00    +0.000 A 
ATOM     30  C   UNL     1       0.328   9.057  21.910  0.00  0.00    +0.000 A 
ENDBRANCH  23  25
ENDBRANCH   2  20
TORSDOF 5
ENDMDL
MODEL 3
REMARK VINA RESULT:      -8.3      0.256      1.032
REMARK  Name = 
REMARK  5 active torsions:
REMARK  status: ('A' for Active; 'I' for Inactive)
REMARK    1  A    between atoms: C_2  and  C_19
REMARK    2  A    between atoms: N_3  and  C_4
REMARK    3  A    between atoms: C_6  and  C_7
REMARK    4  A    between atoms: C_13  and  N_14
REMARK    5  A    between atoms: N_22  and  C_23
REMARK                            x       y       z     vdW  Elec       q    Type
REMARK                         _______ _______ _______ _____ _____    ______ ____
ROOT
ATOM      1  O   UNL     1       4.332   7.687  17.773  0.00  0.00    +0.000 OA
ATOM      2  C   UNL     1       3.166   7.390  18.007  0.00  0.00    +0.000 C 
ATOM      3  N   UNL     1       2.669   6.078  17.907  0.00  0.00    +0.000 N 
ATOM      4  H   UNL     1       1.757   5.897  18.300  0.00  0.00    +0.000 HD
ENDROOT
BRANCH   3   5
ATOM      5  C   UNL     1       3.529   5.012  17.619  0.00  0.00    +0.000 A 
ATOM      6  C   UNL     1       4.394   5.206  16.541  0.00  0.00    +0.000 A 
ATOM      7  C   UNL     1       5.247   4.192  16.105  0.00  0.00    +0.000 A 
ATOM      8  C   UNL     1       5.229   2.972  16.788  0.00  0.00    +0.000 A 
ATOM      9  C   UNL     1       4.348   2.770  17.860  0.00  0.00    +0.000 A 
ATOM     10  C   UNL     1       3.463   3.774  18.299  0.00  0.00    +0.000 A 
BRANCH  10  11
ATOM     11  N   UNL     1       2.573   3.543  19.324  0.00  0.00    +0.000 N 
ATOM     12  C   UNL     1       2.691   4.171  20.631  0.00  0.00    +0.000 C 
ATOM     13  C   UNL     1       1.778   3.268  21.446  0.00  0.00    +0.000 C 
ATOM     14  C   UNL     1       0.589   3.055  20.512  0.00  0.00    +0.000 C 
ATOM     15  C   UNL     1       1.173   3.174  19.089  0.00  0.00    +0.000 C 
ENDBRANCH  10  11
BRANCH   7  16
ATOM     16  C   UNL     1       6.171   4.431  14.942  0.00  0.00    +0.000 C 
ATOM     17  F   UNL     1       5.934   5.603  14.289  0.00  0.00    +0.000 F 
ATOM     18  F   UNL     1       7.478   4.470  15.318  0.00  0.00    +0.000 F 
ATOM     19  F   UNL     1       6.082   3.458  13.994  0.00  0.00    +0.000 F 
ENDBRANCH   7  16
ENDBRANCH   3   5
BRANCH   2  20
ATOM     20  C   UNL     1       2.180   8.371  18.472  0.00  0.00    +0.000 A 
ATOM     21  N   UNL     1       1.508   9.208  17.593  0.00  0.00    +0.000 NA
ATOM     22  C   UNL     1       0.700   9.882  18.376  0.00  0.00    +0.000 A 
ATOM     23  N   UNL     1       0.856   9.492  19.679  0.00  0.00    +0.000 N 
ATOM     24  N   UNL     1       1.829   8.546  19.757  0.00  0.00    +0.000 NA
BRANCH  23  25
ATOM     25  C   UNL     1       0.121   9.922  20.809  0.00  0.00    +0.000 A 
ATOM     26  C   UNL     1       0.056   9.125  21.960  0.00  0.00    +0.000 A 
ATOM     27  C   UNL     1      -0.593   9.593  23.098  0.00  0.00    +0.000 A 
ATOM     28  C   UNL     1      -1.206  10.845  23.089  0.00  0.00    +0.000 A 
ATOM     29  C   UNL     1      -1.174  11.632  21.930  0.00  0.00    +0.000 A 
ATOM     30  C   UNL     1      -0.510  11.174  20.794  0.00  0.00    +0.000 A 
ENDBRANCH  23  25
ENDBRANCH   2  20
TORSDOF 5
ENDMDL
MODEL 4
REMARK VINA RESULT:      -8.3      1.851      2.535
REMARK  Name = 
REMARK  5 active torsions:
REMARK  status: ('A' for Active; 'I' for Inactive)
REMARK    1  A    between atoms: C_2  and  C_19
REMARK    2  A    between atoms: N_3  and  C_4
REMARK    3  A    between atoms: C_6  and  C_7
REMARK    4  A    between atoms: C_13  and  N_14
REMARK    5  A    between atoms: N_22  and  C_23
REMARK                            x       y       z     vdW  Elec       q    Type
REMARK                         _______ _______ _______ _____ _____    ______ ____
ROOT
ATOM      1  O   UNL     1       2.259   7.681  18.117  0.00  0.00    +0.000 OA
ATOM      2  C   UNL     1       2.246   7.496  19.329  0.00  0.00    +0.000 C 
ATOM      3  N   UNL     1       3.031   6.521  19.970  0.00  0.00    +0.000 N 
ATOM      4  H   UNL     1       3.101   6.569  20.976  0.00  0.00    +0.000 HD
ENDROOT
BRANCH   3   5
ATOM      5  C   UNL     1       3.956   5.762  19.242  0.00  0.00    +0.000 A 
ATOM      6  C   UNL     1       5.049   6.465  18.734  0.00  0.00    +0.000 A 
ATOM      7  C   UNL     1       6.001   5.839  17.928  0.00  0.00    +0.000 A 
ATOM      8  C   UNL     1       5.845   4.477  17.654  0.00  0.00    +0.000 A 
ATOM      9  C   UNL     1       4.737   3.774  18.150  0.00  0.00    +0.000 A 
ATOM     10  C   UNL     1       3.754   4.395  18.945  0.00  0.00    +0.000 A 
BRANCH  10  11
ATOM     11  N   UNL     1       2.650   3.700  19.386  0.00  0.00    +0.000 N 
ATOM     12  C   UNL     1       1.817   2.897  18.504  0.00  0.00    +0.000 C 
ATOM     13  C   UNL     1       0.577   2.745  19.372  0.00  0.00    +0.000 C 
ATOM     14  C   UNL     1       1.162   2.479  20.757  0.00  0.00    +0.000 C 
ATOM     15  C   UNL     1       2.527   3.198  20.759  0.00  0.00    +0.000 C 
ENDBRANCH  10  11
BRANCH   7  16
ATOM     16  C   UNL     1       7.171   6.621  17.396  0.00  0.00    +0.000 C 
ATOM     17  F   UNL     1       7.659   6.139  16.219  0.00  0.00    +0.000 F 
ATOM     18  F   UNL     1       6.861   7.926  17.166  0.00  0.00    +0.000 F 
ATOM     19  F   UNL     1       8.227   6.632  18.255  0.00  0.00    +0.000 F 
ENDBRANCH   7  16
ENDBRANCH   3   5
BRANCH   2  20
ATOM     20  C   UNL     1       1.445   8.316  20.244  0.00  0.00    +0.000 A 
ATOM     21  N   UNL     1       1.448   8.101  21.614  0.00  0.00    +0.000 NA
ATOM     22  C   UNL     1       0.665   9.050  22.070  0.00  0.00    +0.000 A 
ATOM     23  N   UNL     1       0.192   9.819  21.042  0.00  0.00    +0.000 N 
ATOM     24  N   UNL     1       0.659   9.336  19.860  0.00  0.00    +0.000 NA
BRANCH  23  25
ATOM     25  C   UNL     1      -0.615  10.979  21.123  0.00  0.00    +0.000 A 
ATOM     26  C   UNL     1      -1.192  11.526  19.968  0.00  0.00    +0.000 A 
ATOM     27  C   UNL     1      -2.056  12.612  20.067  0.00  0.00    +0.000 A 
ATOM     28  C   UNL     1      -2.328  13.179  21.311  0.00  0.00    +0.000 A 
ATOM     29  C   UNL     1      -1.727  12.659  22.465  0.00  0.00    +0.000 A 
ATOM     30  C   UNL     1      -0.875  11.559  22.372  0.00  0.00    +0.000 A 
ENDBRANCH  23  25
ENDBRANCH   2  20
TORSDOF 5
ENDMDL
MODEL 5
REMARK VINA RESULT:      -8.2      1.720      2.346
REMARK  Name = 
REMARK  5 active torsions:
REMARK  status: ('A' for Active; 'I' for Inactive)
REMARK    1  A    between atoms: C_2  and  C_19
REMARK    2  A    between atoms: N_3  and  C_4
REMARK    3  A    between atoms: C_6  and  C_7
REMARK    4  A    between atoms: C_13  and  N_14
REMARK    5  A    between atoms: N_22  and  C_23
REMARK                            x       y       z     vdW  Elec       q    Type
REMARK                         _______ _______ _______ _____ _____    ______ ____
ROOT
ATOM      1  O   UNL     1       3.129   8.269  17.157  0.00  0.00    +0.000 OA
ATOM      2  C   UNL     1       2.464   8.063  18.165  0.00  0.00    +0.000 C 
ATOM      3  N   UNL     1       2.702   6.989  19.042  0.00  0.00    +0.000 N 
ATOM      4  H   UNL     1       2.236   7.009  19.938  0.00  0.00    +0.000 HD
ENDROOT
BRANCH   3   5
ATOM      5  C   UNL     1       3.798   6.140  18.845  0.00  0.00    +0.000 A 
ATOM      6  C   UNL     1       4.935   6.736  18.299  0.00  0.00    +0.000 A 
ATOM      7  C   UNL     1       6.066   5.984  17.983  0.00  0.00    +0.000 A 
ATOM      8  C   UNL     1       6.043   4.610  18.245  0.00  0.00    +0.000 A 
ATOM      9  C   UNL     1       4.894   4.007  18.777  0.00  0.00    +0.000 A 
ATOM     10  C   UNL     1       3.734   4.747  19.080  0.00  0.00    +0.000 A 
BRANCH  10  11
ATOM     11  N   UNL     1       2.600   4.131  19.560  0.00  0.00    +0.000 N 
ATOM     12  C   UNL     1       2.106   4.329  20.913  0.00  0.00    +0.000 C 
ATOM     13  C   UNL     1       1.163   3.141  21.031  0.00  0.00    +0.000 C 
ATOM     14  C   UNL     1       0.463   3.128  19.673  0.00  0.00    +0.000 C 
ATOM     15  C   UNL     1       1.487   3.734  18.691  0.00  0.00    +0.000 C 
ENDBRANCH  10  11
BRANCH   7  16
ATOM     16  C   UNL     1       7.280   6.654  17.398  0.00  0.00    +0.000 C 
ATOM     17  F   UNL     1       8.347   6.683  18.243  0.00  0.00    +0.000 F 
ATOM     18  F   UNL     1       7.716   6.039  16.265  0.00  0.00    +0.000 F 
ATOM     19  F   UNL     1       7.047   7.951  17.055  0.00  0.00    +0.000 F 
ENDBRANCH   7  16
ENDBRANCH   3   5
BRANCH   2  20
ATOM     20  C   UNL     1       1.381   8.955  18.592  0.00  0.00    +0.000 A 
ATOM     21  N   UNL     1       0.421   9.418  17.704  0.00  0.00    +0.000 NA
ATOM     22  C   UNL     1      -0.377  10.128  18.466  0.00  0.00    +0.000 A 
ATOM     23  N   UNL     1       0.058  10.115  19.763  0.00  0.00    +0.000 N 
ATOM     24  N   UNL     1       1.207   9.393  19.850  0.00  0.00    +0.000 NA
BRANCH  23  25
ATOM     25  C   UNL     1      -0.563  10.694  20.896  0.00  0.00    +0.000 A 
ATOM     26  C   UNL     1      -1.318  11.868  20.769  0.00  0.00    +0.000 A 
ATOM     27  C   UNL     1      -1.999  12.382  21.868  0.00  0.00    +0.000 A 
ATOM     28  C   UNL     1      -1.909  11.747  23.106  0.00  0.00    +0.000 A 
ATOM     29  C   UNL     1      -1.127  10.593  23.247  0.00  0.00    +0.000 A 
ATOM     30  C   UNL     1      -0.458  10.066  22.144  0.00  0.00    +0.000 A 
ENDBRANCH  23  25
ENDBRANCH   2  20
TORSDOF 5
ENDMDL
MODEL 6
REMARK VINA RESULT:      -8.1      1.865      2.723
REMARK  Name = 
REMARK  5 active torsions:
REMARK  status: ('A' for Active; 'I' for Inactive)
REMARK    1  A    between atoms: C_2  and  C_19
REMARK    2  A    between atoms: N_3  and  C_4
REMARK    3  A    between atoms: C_6  and  C_7
REMARK    4  A    between atoms: C_13  and  N_14
REMARK    5  A    between atoms: N_22  and  C_23
REMARK                            x       y       z     vdW  Elec       q    Type
REMARK                         _______ _______ _______ _____ _____    ______ ____
ROOT
ATOM      1  O   UNL     1       2.204   7.637  18.182  0.00  0.00    +0.000 OA
ATOM      2  C   UNL     1       2.246   7.478  19.396  0.00  0.00    +0.000 C 
ATOM      3  N   UNL     1       3.076   6.531  20.022  0.00  0.00    +0.000 N 
ATOM      4  H   UNL     1       3.188   6.601  21.023  0.00  0.00    +0.000 HD
ENDROOT
BRANCH   3   5
ATOM      5  C   UNL     1       3.981   5.772  19.270  0.00  0.00    +0.000 A 
ATOM      6  C   UNL     1       5.073   6.470  18.753  0.00  0.00    +0.000 A 
ATOM      7  C   UNL     1       6.005   5.846  17.925  0.00  0.00    +0.000 A 
ATOM      8  C   UNL     1       5.831   4.489  17.636  0.00  0.00    +0.000 A 
ATOM      9  C   UNL     1       4.725   3.790  18.141  0.00  0.00    +0.000 A 
ATOM     10  C   UNL     1       3.760   4.411  18.960  0.00  0.00    +0.000 A 
BRANCH  10  11
ATOM     11  N   UNL     1       2.657   3.721  19.410  0.00  0.00    +0.000 N 
ATOM     12  C   UNL     1       2.346   3.562  20.822  0.00  0.00    +0.000 C 
ATOM     13  C   UNL     1       1.351   2.413  20.749  0.00  0.00    +0.000 C 
ATOM     14  C   UNL     1       0.491   2.785  19.543  0.00  0.00    +0.000 C 
ATOM     15  C   UNL     1       1.423   3.604  18.626  0.00  0.00    +0.000 C 
ENDBRANCH  10  11
BRANCH   7  16
ATOM     16  C   UNL     1       7.174   6.623  17.383  0.00  0.00    +0.000 C 
ATOM     17  F   UNL     1       8.248   6.648  18.222  0.00  0.00    +0.000 F 
ATOM     18  F   UNL     1       7.632   6.118  16.205  0.00  0.00    +0.000 F 
ATOM     19  F   UNL     1       6.868   7.927  17.139  0.00  0.00    +0.000 F 
ENDBRANCH   7  16
ENDBRANCH   3   5
BRANCH   2  20
ATOM     20  C   UNL     1       1.472   8.304  20.328  0.00  0.00    +0.000 A 
ATOM     21  N   UNL     1       1.564   8.142  21.702  0.00  0.00    +0.000 NA
ATOM     22  C   UNL     1       0.775   9.079  22.171  0.00  0.00    +0.000 A 
ATOM     23  N   UNL     1       0.213   9.792  21.147  0.00  0.00    +0.000 N 
ATOM     24  N   UNL     1       0.627   9.281  19.956  0.00  0.00    +0.000 NA
BRANCH  23  25
ATOM     25  C   UNL     1      -0.630  10.926  21.236  0.00  0.00    +0.000 A 
ATOM     26  C   UNL     1      -1.070  11.576  20.075  0.00  0.00    +0.000 A 
ATOM     27  C   UNL     1      -1.970  12.634  20.166  0.00  0.00    +0.000 A 
ATOM     28  C   UNL     1      -2.414  13.069  21.414  0.00  0.00    +0.000 A 
ATOM     29  C   UNL     1      -1.950  12.445  22.580  0.00  0.00    +0.000 A 
ATOM     30  C   UNL     1      -1.062  11.374  22.491  0.00  0.00    +0.000 A 
ENDBRANCH  23  25
ENDBRANCH   2  20
TORSDOF 5
ENDMDL
MODEL 7
REMARK VINA RESULT:      -8.1      1.909      2.615
REMARK  Name = 
REMARK  5 active torsions:
REMARK  status: ('A' for Active; 'I' for Inactive)
REMARK    1  A    between atoms: C_2  and  C_19
REMARK    2  A    between atoms: N_3  and  C_4
REMARK    3  A    between atoms: C_6  and  C_7
REMARK    4  A    between atoms: C_13  and  N_14
REMARK    5  A    between atoms: N_22  and  C_23
REMARK                            x       y       z     vdW  Elec       q    Type
REMARK                         _______ _______ _______ _____ _____    ______ ____
ROOT
ATOM      1  O   UNL     1       2.251   7.595  18.043  0.00  0.00    +0.000 OA
ATOM      2  C   UNL     1       2.221   7.513  19.265  0.00  0.00    +0.000 C 
ATOM      3  N   UNL     1       3.007   6.606  19.998  0.00  0.00    +0.000 N 
ATOM      4  H   UNL     1       3.061   6.739  20.997  0.00  0.00    +0.000 HD
ENDROOT
BRANCH   3   5
ATOM      5  C   UNL     1       3.951   5.799  19.351  0.00  0.00    +0.000 A 
ATOM      6  C   UNL     1       5.030   6.471  18.776  0.00  0.00    +0.000 A 
ATOM      7  C   UNL     1       5.998   5.789  18.039  0.00  0.00    +0.000 A 
ATOM      8  C   UNL     1       5.872   4.404  17.901  0.00  0.00    +0.000 A 
ATOM      9  C   UNL     1       4.778   3.729  18.463  0.00  0.00    +0.000 A 
ATOM     10  C   UNL     1       3.779   4.405  19.190  0.00  0.00    +0.000 A 
BRANCH  10  11
ATOM     11  N   UNL     1       2.688   3.733  19.697  0.00  0.00    +0.000 N 
ATOM     12  C   UNL     1       1.776   2.965  18.863  0.00  0.00    +0.000 C 
ATOM     13  C   UNL     1       0.593   2.833  19.811  0.00  0.00    +0.000 C 
ATOM     14  C   UNL     1       1.263   2.532  21.149  0.00  0.00    +0.000 C 
ATOM     15  C   UNL     1       2.644   3.214  21.068  0.00  0.00    +0.000 C 
ENDBRANCH  10  11
BRANCH   7  16
ATOM     16  C   UNL     1       7.153   6.540  17.433  0.00  0.00    +0.000 C 
ATOM     17  F   UNL     1       6.865   7.838  17.137  0.00  0.00    +0.000 F 
ATOM     18  F   UNL     1       8.237   6.575  18.255  0.00  0.00    +0.000 F 
ATOM     19  F   UNL     1       7.584   5.984  16.267  0.00  0.00    +0.000 F 
ENDBRANCH   7  16
ENDBRANCH   3   5
BRANCH   2  20
ATOM     20  C   UNL     1       1.398   8.399  20.095  0.00  0.00    +0.000 A 
ATOM     21  N   UNL     1       1.197   8.158  21.446  0.00  0.00    +0.000 NA
ATOM     22  C   UNL     1       0.465   9.179  21.829  0.00  0.00    +0.000 A 
ATOM     23  N   UNL     1       0.217  10.015  20.774  0.00  0.00    +0.000 N 
ATOM     24  N   UNL     1       0.783   9.506  19.647  0.00  0.00    +0.000 NA
BRANCH  23  25
ATOM     25  C   UNL     1      -0.466  11.254  20.789  0.00  0.00    +0.000 A 
ATOM     26  C   UNL     1      -0.125  12.243  21.723  0.00  0.00    +0.000 A 
ATOM     27  C   UNL     1      -0.738  13.490  21.675  0.00  0.00    +0.000 A 
ATOM     28  C   UNL     1      -1.716  13.752  20.716  0.00  0.00    +0.000 A 
ATOM     29  C   UNL     1      -2.086  12.757  19.802  0.00  0.00    +0.000 A 
ATOM     30  C   UNL     1      -1.460  11.512  19.836  0.00  0.00    +0.000 A 
ENDBRANCH  23  25
ENDBRANCH   2  20
TORSDOF 5
ENDMDL
MODEL 8
REMARK VINA RESULT:      -8.1      3.697      8.289
REMARK  Name = 
REMARK  5 active torsions:
REMARK  status: ('A' for Active; 'I' for Inactive)
REMARK    1  A    between atoms: C_2  and  C_19
REMARK    2  A    between atoms: N_3  and  C_4
REMARK    3  A    between atoms: C_6  and  C_7
REMARK    4  A    between atoms: C_13  and  N_14
REMARK    5  A    between atoms: N_22  and  C_23
REMARK                            x       y       z     vdW  Elec       q    Type
REMARK                         _______ _______ _______ _____ _____    ______ ____
ROOT
ATOM      1  O   UNL     1       5.851   6.693  17.809  0.00  0.00    +0.000 OA
ATOM      2  C   UNL     1       5.251   6.047  16.958  0.00  0.00    +0.000 C 
ATOM      3  N   UNL     1       3.869   5.790  17.014  0.00  0.00    +0.000 N 
ATOM      4  H   UNL     1       3.431   5.420  16.183  0.00  0.00    +0.000 HD
ENDROOT
BRANCH   3   5
ATOM      5  C   UNL     1       3.082   6.355  18.025  0.00  0.00    +0.000 A 
ATOM      6  C   UNL     1       2.708   7.685  17.829  0.00  0.00    +0.000 A 
ATOM      7  C   UNL     1       1.988   8.385  18.797  0.00  0.00    +0.000 A 
ATOM      8  C   UNL     1       1.631   7.715  19.971  0.00  0.00    +0.000 A 
ATOM      9  C   UNL     1       2.022   6.384  20.178  0.00  0.00    +0.000 A 
ATOM     10  C   UNL     1       2.770   5.669  19.221  0.00  0.00    +0.000 A 
BRANCH  10  11
ATOM     11  N   UNL     1       3.184   4.377  19.460  0.00  0.00    +0.000 N 
ATOM     12  C   UNL     1       2.532   3.217  18.872  0.00  0.00    +0.000 C 
ATOM     13  C   UNL     1       3.074   2.119  19.774  0.00  0.00    +0.000 C 
ATOM     14  C   UNL     1       4.543   2.503  19.932  0.00  0.00    +0.000 C 
ATOM     15  C   UNL     1       4.573   4.038  19.787  0.00  0.00    +0.000 C 
ENDBRANCH  10  11
BRANCH   7  16
ATOM     16  C   UNL     1       1.595   9.818  18.557  0.00  0.00    +0.000 C 
ATOM     17  F   UNL     1       0.436   9.955  17.854  0.00  0.00    +0.000 F 
ATOM     18  F   UNL     1       1.414  10.507  19.716  0.00  0.00    +0.000 F 
ATOM     19  F   UNL     1       2.536  10.507  17.853  0.00  0.00    +0.000 F 
ENDBRANCH   7  16
ENDBRANCH   3   5
BRANCH   2  20
ATOM     20  C   UNL     1       5.909   5.521  15.757  0.00  0.00    +0.000 A 
ATOM     21  N   UNL     1       7.254   5.742  15.502  0.00  0.00    +0.000 NA
ATOM     22  C   UNL     1       7.462   5.083  14.386  0.00  0.00    +0.000 A 
ATOM     23  N   UNL     1       6.309   4.481  13.961  0.00  0.00    +0.000 N 
ATOM     24  N   UNL     1       5.295   4.784  14.815  0.00  0.00    +0.000 NA
BRANCH  23  25
ATOM     25  C   UNL     1       6.134   3.624  12.848  0.00  0.00    +0.000 A 
ATOM     26  C   UNL     1       7.238   2.989  12.260  0.00  0.00    +0.000 A 
ATOM     27  C   UNL     1       7.049   2.080  11.225  0.00  0.00    +0.000 A 
ATOM     28  C   UNL     1       5.765   1.817  10.749  0.00  0.00    +0.000 A 
ATOM     29  C   UNL     1       4.662   2.475  11.309  0.00  0.00    +0.000 A 
ATOM     30  C   UNL     1       4.845   3.374  12.358  0.00  0.00    +0.000 A 
ENDBRANCH  23  25
ENDBRANCH   2  20
TORSDOF 5
ENDMDL
MODEL 9
REMARK VINA RESULT:      -8.1      2.596      3.449
REMARK  Name = 
REMARK  5 active torsions:
REMARK  status: ('A' for Active; 'I' for Inactive)
REMARK    1  A    between atoms: C_2  and  C_19
REMARK    2  A    between atoms: N_3  and  C_4
REMARK    3  A    between atoms: C_6  and  C_7
REMARK    4  A    between atoms: C_13  and  N_14
REMARK    5  A    between atoms: N_22  and  C_23
REMARK                            x       y       z     vdW  Elec       q    Type
REMARK                         _______ _______ _______ _____ _____    ______ ____
ROOT
ATOM      1  O   UNL     1       3.209   8.383  17.149  0.00  0.00    +0.000 OA
ATOM      2  C   UNL     1       2.417   8.079  18.033  0.00  0.00    +0.000 C 
ATOM      3  N   UNL     1       2.581   6.956  18.863  0.00  0.00    +0.000 N 
ATOM      4  H   UNL     1       1.992   6.892  19.680  0.00  0.00    +0.000 HD
ENDROOT
BRANCH   3   5
ATOM      5  C   UNL     1       3.735   6.167  18.772  0.00  0.00    +0.000 A 
ATOM      6  C   UNL     1       4.865   6.804  18.260  0.00  0.00    +0.000 A 
ATOM      7  C   UNL     1       6.055   6.109  18.048  0.00  0.00    +0.000 A 
ATOM      8  C   UNL     1       6.097   4.751  18.380  0.00  0.00    +0.000 A 
ATOM      9  C   UNL     1       4.957   4.105  18.879  0.00  0.00    +0.000 A 
ATOM     10  C   UNL     1       3.739   4.786  19.077  0.00  0.00    +0.000 A 
BRANCH  10  11
ATOM     11  N   UNL     1       2.617   4.126  19.525  0.00  0.00    +0.000 N 
ATOM     12  C   UNL     1       2.034   4.359  20.837  0.00  0.00    +0.000 C 
ATOM     13  C   UNL     1       1.157   3.122  20.964  0.00  0.00    +0.000 C 
ATOM     14  C   UNL     1       0.540   2.999  19.572  0.00  0.00    +0.000 C 
ATOM     15  C   UNL     1       1.582   3.619  18.618  0.00  0.00    +0.000 C 
ENDBRANCH  10  11
BRANCH   7  16
ATOM     16  C   UNL     1       7.259   6.823  17.497  0.00  0.00    +0.000 C 
ATOM     17  F   UNL     1       8.327   6.825  18.343  0.00  0.00    +0.000 F 
ATOM     18  F   UNL     1       7.703   6.270  16.335  0.00  0.00    +0.000 F 
ATOM     19  F   UNL     1       7.009   8.132  17.217  0.00  0.00    +0.000 F 
ENDBRANCH   7  16
ENDBRANCH   3   5
BRANCH   2  20
ATOM     20  C   UNL     1       1.241   8.894  18.355  0.00  0.00    +0.000 A 
ATOM     21  N   UNL     1       1.150   9.616  19.536  0.00  0.00    +0.000 NA
ATOM     22  C   UNL     1      -0.002  10.234  19.423  0.00  0.00    +0.000 A 
ATOM     23  N   UNL     1      -0.605   9.917  18.237  0.00  0.00    +0.000 N 
ATOM     24  N   UNL     1       0.169   9.030  17.557  0.00  0.00    +0.000 NA
BRANCH  23  25
ATOM     25  C   UNL     1      -1.814  10.431  17.711  0.00  0.00    +0.000 A 
ATOM     26  C   UNL     1      -2.246  10.060  16.430  0.00  0.00    +0.000 A 
ATOM     27  C   UNL     1      -3.478  10.498  15.955  0.00  0.00    +0.000 A 
ATOM     28  C   UNL     1      -4.274  11.331  16.740  0.00  0.00    +0.000 A 
ATOM     29  C   UNL     1      -3.832  11.734  18.007  0.00  0.00    +0.000 A 
ATOM     30  C   UNL     1      -2.606  11.283  18.493  0.00  0.00    +0.000 A 
ENDBRANCH  23  25
ENDBRANCH   2  20
TORSDOF 5
ENDMDL
