MODEL 1
REMARK VINA RESULT:      -8.9      0.000      0.000
REMARK  Name = 
REMARK  8 active torsions:
REMARK  status: ('A' for Active; 'I' for Inactive)
REMARK    1  A    between atoms: C_1  and  C_2
REMARK    2  A    between atoms: C_7  and  C_8
REMARK    3  A    between atoms: C_11  and  C_12
REMARK    4  A    between atoms: C_15  and  C_16
REMARK    5  A    between atoms: C_17  and  S_18
REMARK    6  A    between atoms: S_18  and  N_21
REMARK    7  A    between atoms: N_21  and  C_22
REMARK    8  A    between atoms: C_22  and  C_23
REMARK                            x       y       z     vdW  Elec       q    Type
REMARK                         _______ _______ _______ _____ _____    ______ ____
ROOT
ATOM      1  C   UNL     1       2.235   6.786  19.158  0.00  0.00    +0.000 A 
ATOM      2  C   UNL     1       1.822   6.546  20.469  0.00  0.00    +0.000 A 
ATOM      3  C   UNL     1       1.874   5.263  20.999  0.00  0.00    +0.000 A 
ATOM      4  C   UNL     1       2.348   4.177  20.245  0.00  0.00    +0.000 A 
ATOM      5  C   UNL     1       2.296   2.855  20.942  0.00  0.00    +0.000 C 
ATOM      6  C   UNL     1       2.821   4.421  18.937  0.00  0.00    +0.000 A 
ATOM      7  C   UNL     1       2.752   5.723  18.407  0.00  0.00    +0.000 A 
ENDROOT
BRANCH   1  11
ATOM      8  C   UNL     1       1.399  10.131  18.513  0.00  0.00    +0.000 A 
ATOM      9  N   UNL     1       2.195   9.946  17.478  0.00  0.00    +0.000 NA
ATOM     10  N   UNL     1       2.629   8.647  17.531  0.00  0.00    +0.000 NA
ATOM     11  C   UNL     1       2.078   8.117  18.603  0.00  0.00    +0.000 A 
ATOM     12  O   UNL     1       1.280   8.999  19.280  0.00  0.00    +0.000 OA
BRANCH   8  19
ATOM     13  C   UNL     1      -1.502  10.380  17.854  0.00  0.00    +0.000 C 
ATOM     14  C   UNL     1      -0.747  11.433  18.624  0.00  0.00    +0.000 A 
ATOM     15  C   UNL     1      -1.453  12.562  19.075  0.00  0.00    +0.000 A 
ATOM     16  C   UNL     1      -0.819  13.555  19.819  0.00  0.00    +0.000 A 
ATOM     17  C   UNL     1       0.534  13.443  20.112  0.00  0.00    +0.000 A 
ATOM     18  C   UNL     1       1.254  12.332  19.664  0.00  0.00    +0.000 A 
ATOM     19  C   UNL     1       0.631  11.305  18.925  0.00  0.00    +0.000 A 
ENDBRANCH   8  19
ENDBRANCH   1  11
BRANCH   6  20
ATOM     20  S   UNL     1       3.434   3.156  17.813  0.00  0.00    +0.000 S 
ATOM     21  O   UNL     1       4.427   2.389  18.541  0.00  0.00    +0.000 OA
ATOM     22  O   UNL     1       2.288   2.511  17.207  0.00  0.00    +0.000 OA
BRANCH  20  23
ATOM     23  N   UNL     1       4.185   4.018  16.578  0.00  0.00    +0.000 NA
ATOM     24  H   UNL     1       3.829   4.966  16.475  0.00  0.00    +0.000 HD
BRANCH  23  25
ATOM     25  C   UNL     1       5.642   3.882  16.475  0.00  0.00    +0.000 C 
BRANCH  25  26
ATOM     26  C   UNL     1       6.386   4.964  17.211  0.00  0.00    +0.000 A 
ATOM     27  C   UNL     1       6.986   4.747  18.464  0.00  0.00    +0.000 A 
ATOM     28  C   UNL     1       7.753   5.754  19.060  0.00  0.00    +0.000 A 
ATOM     29  C   UNL     1       7.911   6.983  18.418  0.00  0.00    +0.000 A 
ATOM     30  C   UNL     1       7.292   7.213  17.191  0.00  0.00    +0.000 A 
ATOM     31  C   UNL     1       6.530   6.212  16.596  0.00  0.00    +0.000 A 
ENDBRANCH  25  26
ENDBRANCH  23  25
ENDBRANCH  20  23
ENDBRANCH   6  20
TORSDOF 6
ENDMDL
MODEL 2
REMARK VINA RESULT:      -8.7      0.504      1.013
REMARK  Name = 
REMARK  8 active torsions:
REMARK  status: ('A' for Active; 'I' for Inactive)
REMARK    1  A    between atoms: C_1  and  C_2
REMARK    2  A    between atoms: C_7  and  C_8
REMARK    3  A    between atoms: C_11  and  C_12
REMARK    4  A    between atoms: C_15  and  C_16
REMARK    5  A    between atoms: C_17  and  S_18
REMARK    6  A    between atoms: S_18  and  N_21
REMARK    7  A    between atoms: N_21  and  C_22
REMARK    8  A    between atoms: C_22  and  C_23
REMARK                            x       y       z     vdW  Elec       q    Type
REMARK                         _______ _______ _______ _____ _____    ______ ____
ROOT
ATOM      1  C   UNL     1       2.255   6.663  19.124  0.00  0.00    +0.000 A 
ATOM      2  C   UNL     1       1.937   6.498  20.472  0.00  0.00    +0.000 A 
ATOM      3  C   UNL     1       1.968   5.237  21.053  0.00  0.00    +0.000 A 
ATOM      4  C   UNL     1       2.326   4.097  20.315  0.00  0.00    +0.000 A 
ATOM      5  C   UNL     1       2.265   2.810  21.072  0.00  0.00    +0.000 C 
ATOM      6  C   UNL     1       2.704   4.263  18.964  0.00  0.00    +0.000 A 
ATOM      7  C   UNL     1       2.657   5.544  18.383  0.00  0.00    +0.000 A 
ENDROOT
BRANCH   1  11
ATOM      8  C   UNL     1       1.465   9.993  18.359  0.00  0.00    +0.000 A 
ATOM      9  N   UNL     1       2.271   9.766  17.340  0.00  0.00    +0.000 NA
ATOM     10  N   UNL     1       2.689   8.464  17.441  0.00  0.00    +0.000 NA
ATOM     11  C   UNL     1       2.119   7.976  18.522  0.00  0.00    +0.000 A 
ATOM     12  O   UNL     1       1.324   8.888  19.161  0.00  0.00    +0.000 OA
BRANCH   8  19
ATOM     13  C   UNL     1      -1.497  10.103  18.003  0.00  0.00    +0.000 C 
ATOM     14  C   UNL     1      -0.699  11.252  18.565  0.00  0.00    +0.000 A 
ATOM     15  C   UNL     1      -1.391  12.409  18.965  0.00  0.00    +0.000 A 
ATOM     16  C   UNL     1      -0.714  13.493  19.521  0.00  0.00    +0.000 A 
ATOM     17  C   UNL     1       0.666  13.444  19.672  0.00  0.00    +0.000 A 
ATOM     18  C   UNL     1       1.370  12.307  19.271  0.00  0.00    +0.000 A 
ATOM     19  C   UNL     1       0.706  11.190  18.722  0.00  0.00    +0.000 A 
ENDBRANCH   8  19
ENDBRANCH   1  11
BRANCH   6  20
ATOM     20  S   UNL     1       3.162   2.922  17.854  0.00  0.00    +0.000 S 
ATOM     21  O   UNL     1       2.932   1.682  18.571  0.00  0.00    +0.000 OA
ATOM     22  O   UNL     1       2.532   3.174  16.575  0.00  0.00    +0.000 OA
BRANCH  20  23
ATOM     23  N   UNL     1       4.813   3.128  17.604  0.00  0.00    +0.000 NA
ATOM     24  H   UNL     1       5.318   2.250  17.509  0.00  0.00    +0.000 HD
BRANCH  23  25
ATOM     25  C   UNL     1       5.209   4.183  16.664  0.00  0.00    +0.000 C 
BRANCH  25  26
ATOM     26  C   UNL     1       6.214   5.139  17.246  0.00  0.00    +0.000 A 
ATOM     27  C   UNL     1       6.424   6.426  16.718  0.00  0.00    +0.000 A 
ATOM     28  C   UNL     1       7.294   7.315  17.356  0.00  0.00    +0.000 A 
ATOM     29  C   UNL     1       7.969   6.922  18.512  0.00  0.00    +0.000 A 
ATOM     30  C   UNL     1       7.789   5.638  19.022  0.00  0.00    +0.000 A 
ATOM     31  C   UNL     1       6.922   4.752  18.389  0.00  0.00    +0.000 A 
ENDBRANCH  25  26
ENDBRANCH  23  25
ENDBRANCH  20  23
ENDBRANCH   6  20
TORSDOF 6
ENDMDL
MODEL 3
REMARK VINA RESULT:      -8.6      2.403      3.138
REMARK  Name = 
REMARK  8 active torsions:
REMARK  status: ('A' for Active; 'I' for Inactive)
REMARK    1  A    between atoms: C_1  and  C_2
REMARK    2  A    between atoms: C_7  and  C_8
REMARK    3  A    between atoms: C_11  and  C_12
REMARK    4  A    between atoms: C_15  and  C_16
REMARK    5  A    between atoms: C_17  and  S_18
REMARK    6  A    between atoms: S_18  and  N_21
REMARK    7  A    between atoms: N_21  and  C_22
REMARK    8  A    between atoms: C_22  and  C_23
REMARK                            x       y       z     vdW  Elec       q    Type
REMARK                         _______ _______ _______ _____ _____    ______ ____
ROOT
ATOM      1  C   UNL     1       2.915   6.878  18.774  0.00  0.00    +0.000 A 
ATOM      2  C   UNL     1       2.225   5.897  19.487  0.00  0.00    +0.000 A 
ATOM      3  C   UNL     1       2.804   4.656  19.718  0.00  0.00    +0.000 A 
ATOM      4  C   UNL     1       4.094   4.351  19.255  0.00  0.00    +0.000 A 
ATOM      5  C   UNL     1       4.556   2.959  19.543  0.00  0.00    +0.000 C 
ATOM      6  C   UNL     1       4.822   5.358  18.581  0.00  0.00    +0.000 A 
ATOM      7  C   UNL     1       4.219   6.607  18.343  0.00  0.00    +0.000 A 
ENDROOT
BRANCH   1  11
ATOM      8  C   UNL     1       1.025   9.832  18.826  0.00  0.00    +0.000 A 
ATOM      9  N   UNL     1       1.538   9.973  17.619  0.00  0.00    +0.000 NA
ATOM     10  N   UNL     1       2.321   8.872  17.383  0.00  0.00    +0.000 NA
ATOM     11  C   UNL     1       2.245   8.128  18.466  0.00  0.00    +0.000 A 
ATOM     12  O   UNL     1       1.438   8.671  19.429  0.00  0.00    +0.000 OA
BRANCH   8  19
ATOM     13  C   UNL     1      -1.766  10.264  17.857  0.00  0.00    +0.000 C 
ATOM     14  C   UNL     1      -1.235  10.888  19.123  0.00  0.00    +0.000 A 
ATOM     15  C   UNL     1      -2.108  11.679  19.890  0.00  0.00    +0.000 A 
ATOM     16  C   UNL     1      -1.687  12.258  21.085  0.00  0.00    +0.000 A 
ATOM     17  C   UNL     1      -0.384  12.067  21.526  0.00  0.00    +0.000 A 
ATOM     18  C   UNL     1       0.499  11.291  20.772  0.00  0.00    +0.000 A 
ATOM     19  C   UNL     1       0.092  10.680  19.567  0.00  0.00    +0.000 A 
ENDBRANCH   8  19
ENDBRANCH   1  11
BRANCH   6  20
ATOM     20  S   UNL     1       6.470   5.145  17.889  0.00  0.00    +0.000 S 
ATOM     21  O   UNL     1       6.793   6.370  17.182  0.00  0.00    +0.000 OA
ATOM     22  O   UNL     1       7.328   4.640  18.940  0.00  0.00    +0.000 OA
BRANCH  20  23
ATOM     23  N   UNL     1       6.303   3.887  16.784  0.00  0.00    +0.000 NA
ATOM     24  H   UNL     1       6.284   2.968  17.219  0.00  0.00    +0.000 HD
BRANCH  23  25
ATOM     25  C   UNL     1       5.331   4.088  15.703  0.00  0.00    +0.000 C 
BRANCH  25  26
ATOM     26  C   UNL     1       5.976   4.202  14.348  0.00  0.00    +0.000 A 
ATOM     27  C   UNL     1       7.153   4.942  14.134  0.00  0.00    +0.000 A 
ATOM     28  C   UNL     1       7.771   4.933  12.880  0.00  0.00    +0.000 A 
ATOM     29  C   UNL     1       7.212   4.200  11.832  0.00  0.00    +0.000 A 
ATOM     30  C   UNL     1       6.029   3.491  12.030  0.00  0.00    +0.000 A 
ATOM     31  C   UNL     1       5.414   3.498  13.278  0.00  0.00    +0.000 A 
ENDBRANCH  25  26
ENDBRANCH  23  25
ENDBRANCH  20  23
ENDBRANCH   6  20
TORSDOF 6
ENDMDL
MODEL 4
REMARK VINA RESULT:      -8.6      0.471      1.517
REMARK  Name = 
REMARK  8 active torsions:
REMARK  status: ('A' for Active; 'I' for Inactive)
REMARK    1  A    between atoms: C_1  and  C_2
REMARK    2  A    between atoms: C_7  and  C_8
REMARK    3  A    between atoms: C_11  and  C_12
REMARK    4  A    between atoms: C_15  and  C_16
REMARK    5  A    between atoms: C_17  and  S_18
REMARK    6  A    between atoms: S_18  and  N_21
REMARK    7  A    between atoms: N_21  and  C_22
REMARK    8  A    between atoms: C_22  and  C_23
REMARK                            x       y       z     vdW  Elec       q    Type
REMARK                         _______ _______ _______ _____ _____    ______ ____
ROOT
ATOM      1  C   UNL     1       2.212   6.942  19.152  0.00  0.00    +0.000 A 
ATOM      2  C   UNL     1       1.834   6.711  20.475  0.00  0.00    +0.000 A 
ATOM      3  C   UNL     1       1.916   5.435  21.017  0.00  0.00    +0.000 A 
ATOM      4  C   UNL     1       2.386   4.347  20.264  0.00  0.00    +0.000 A 
ATOM      5  C   UNL     1       2.369   3.032  20.976  0.00  0.00    +0.000 C 
ATOM      6  C   UNL     1       2.824   4.583  18.942  0.00  0.00    +0.000 A 
ATOM      7  C   UNL     1       2.725   5.878  18.400  0.00  0.00    +0.000 A 
ENDROOT
BRANCH   1  11
ATOM      8  C   UNL     1       1.329  10.273  18.499  0.00  0.00    +0.000 A 
ATOM      9  N   UNL     1       2.083  10.079  17.434  0.00  0.00    +0.000 NA
ATOM     10  N   UNL     1       2.527   8.783  17.486  0.00  0.00    +0.000 NA
ATOM     11  C   UNL     1       2.024   8.265  18.586  0.00  0.00    +0.000 A 
ATOM     12  O   UNL     1       1.249   9.151  19.284  0.00  0.00    +0.000 OA
BRANCH   8  19
ATOM     13  C   UNL     1       2.591  12.978  18.558  0.00  0.00    +0.000 C 
ATOM     14  C   UNL     1       1.156  12.738  18.953  0.00  0.00    +0.000 A 
ATOM     15  C   UNL     1       0.377  13.845  19.333  0.00  0.00    +0.000 A 
ATOM     16  C   UNL     1      -0.964  13.693  19.680  0.00  0.00    +0.000 A 
ATOM     17  C   UNL     1      -1.544  12.431  19.665  0.00  0.00    +0.000 A 
ATOM     18  C   UNL     1      -0.782  11.319  19.299  0.00  0.00    +0.000 A 
ATOM     19  C   UNL     1       0.572  11.449  18.927  0.00  0.00    +0.000 A 
ENDBRANCH   8  19
ENDBRANCH   1  11
BRANCH   6  20
ATOM     20  S   UNL     1       3.426   3.313  17.817  0.00  0.00    +0.000 S 
ATOM     21  O   UNL     1       4.399   2.525  18.551  0.00  0.00    +0.000 OA
ATOM     22  O   UNL     1       2.276   2.692  17.196  0.00  0.00    +0.000 OA
BRANCH  20  23
ATOM     23  N   UNL     1       4.205   4.169  16.596  0.00  0.00    +0.000 NA
ATOM     24  H   UNL     1       3.911   5.141  16.534  0.00  0.00    +0.000 HD
BRANCH  23  25
ATOM     25  C   UNL     1       5.648   3.941  16.452  0.00  0.00    +0.000 C 
BRANCH  25  26
ATOM     26  C   UNL     1       6.478   5.015  17.102  0.00  0.00    +0.000 A 
ATOM     27  C   UNL     1       6.464   6.350  16.661  0.00  0.00    +0.000 A 
ATOM     28  C   UNL     1       7.173   7.330  17.363  0.00  0.00    +0.000 A 
ATOM     29  C   UNL     1       7.910   6.982  18.495  0.00  0.00    +0.000 A 
ATOM     30  C   UNL     1       7.954   5.655  18.918  0.00  0.00    +0.000 A 
ATOM     31  C   UNL     1       7.247   4.678  18.222  0.00  0.00    +0.000 A 
ENDBRANCH  25  26
ENDBRANCH  23  25
ENDBRANCH  20  23
ENDBRANCH   6  20
TORSDOF 6
ENDMDL
MODEL 5
REMARK VINA RESULT:      -8.5      2.387      3.451
REMARK  Name = 
REMARK  8 active torsions:
REMARK  status: ('A' for Active; 'I' for Inactive)
REMARK    1  A    between atoms: C_1  and  C_2
REMARK    2  A    between atoms: C_7  and  C_8
REMARK    3  A    between atoms: C_11  and  C_12
REMARK    4  A    between atoms: C_15  and  C_16
REMARK    5  A    between atoms: C_17  and  S_18
REMARK    6  A    between atoms: S_18  and  N_21
REMARK    7  A    between atoms: N_21  and  C_22
REMARK    8  A    between atoms: C_22  and  C_23
REMARK                            x       y       z     vdW  Elec       q    Type
REMARK                         _______ _______ _______ _____ _____    ______ ____
ROOT
ATOM      1  C   UNL     1       2.948   7.012  18.544  0.00  0.00    +0.000 A 
ATOM      2  C   UNL     1       2.200   6.061  19.239  0.00  0.00    +0.000 A 
ATOM      3  C   UNL     1       2.743   4.817  19.532  0.00  0.00    +0.000 A 
ATOM      4  C   UNL     1       4.052   4.480  19.153  0.00  0.00    +0.000 A 
ATOM      5  C   UNL     1       4.472   3.088  19.501  0.00  0.00    +0.000 C 
ATOM      6  C   UNL     1       4.836   5.457  18.500  0.00  0.00    +0.000 A 
ATOM      7  C   UNL     1       4.270   6.710  18.197  0.00  0.00    +0.000 A 
ENDROOT
BRANCH   1  11
ATOM      8  C   UNL     1       0.780   9.730  18.075  0.00  0.00    +0.000 A 
ATOM      9  N   UNL     1       1.838  10.243  17.476  0.00  0.00    +0.000 NA
ATOM     10  N   UNL     1       2.830   9.298  17.530  0.00  0.00    +0.000 NA
ATOM     11  C   UNL     1       2.320   8.265  18.168  0.00  0.00    +0.000 A 
ATOM     12  O   UNL     1       1.019   8.463  18.545  0.00  0.00    +0.000 OA
BRANCH   8  19
ATOM     13  C   UNL     1       0.223  11.696  20.250  0.00  0.00    +0.000 C 
ATOM     14  C   UNL     1      -0.838  11.216  19.293  0.00  0.00    +0.000 A 
ATOM     15  C   UNL     1      -2.134  11.746  19.417  0.00  0.00    +0.000 A 
ATOM     16  C   UNL     1      -3.151  11.365  18.543  0.00  0.00    +0.000 A 
ATOM     17  C   UNL     1      -2.892  10.439  17.541  0.00  0.00    +0.000 A 
ATOM     18  C   UNL     1      -1.612   9.896  17.409  0.00  0.00    +0.000 A 
ATOM     19  C   UNL     1      -0.562  10.278  18.270  0.00  0.00    +0.000 A 
ENDBRANCH   8  19
ENDBRANCH   1  11
BRANCH   6  20
ATOM     20  S   UNL     1       6.517   5.201  17.911  0.00  0.00    +0.000 S 
ATOM     21  O   UNL     1       6.917   6.419  17.231  0.00  0.00    +0.000 OA
ATOM     22  O   UNL     1       7.294   4.669  19.011  0.00  0.00    +0.000 OA
BRANCH  20  23
ATOM     23  N   UNL     1       6.385   3.951  16.792  0.00  0.00    +0.000 NA
ATOM     24  H   UNL     1       6.394   3.027  17.218  0.00  0.00    +0.000 HD
BRANCH  23  25
ATOM     25  C   UNL     1       5.406   4.135  15.715  0.00  0.00    +0.000 C 
BRANCH  25  26
ATOM     26  C   UNL     1       6.044   4.244  14.356  0.00  0.00    +0.000 A 
ATOM     27  C   UNL     1       7.167   5.055  14.114  0.00  0.00    +0.000 A 
ATOM     28  C   UNL     1       7.786   5.042  12.860  0.00  0.00    +0.000 A 
ATOM     29  C   UNL     1       7.280   4.236  11.840  0.00  0.00    +0.000 A 
ATOM     30  C   UNL     1       6.149   3.454  12.065  0.00  0.00    +0.000 A 
ATOM     31  C   UNL     1       5.533   3.464  13.313  0.00  0.00    +0.000 A 
ENDBRANCH  25  26
ENDBRANCH  23  25
ENDBRANCH  20  23
ENDBRANCH   6  20
TORSDOF 6
ENDMDL
MODEL 6
REMARK VINA RESULT:      -8.4      3.037      3.956
REMARK  Name = 
REMARK  8 active torsions:
REMARK  status: ('A' for Active; 'I' for Inactive)
REMARK    1  A    between atoms: C_1  and  C_2
REMARK    2  A    between atoms: C_7  and  C_8
REMARK    3  A    between atoms: C_11  and  C_12
REMARK    4  A    between atoms: C_15  and  C_16
REMARK    5  A    between atoms: C_17  and  S_18
REMARK    6  A    between atoms: S_18  and  N_21
REMARK    7  A    between atoms: N_21  and  C_22
REMARK    8  A    between atoms: C_22  and  C_23
REMARK                            x       y       z     vdW  Elec       q    Type
REMARK                         _______ _______ _______ _____ _____    ______ ____
ROOT
ATOM      1  C   UNL     1       3.055   6.967  17.995  0.00  0.00    +0.000 A 
ATOM      2  C   UNL     1       2.394   5.739  18.005  0.00  0.00    +0.000 A 
ATOM      3  C   UNL     1       3.049   4.583  17.600  0.00  0.00    +0.000 A 
ATOM      4  C   UNL     1       4.389   4.609  17.181  0.00  0.00    +0.000 A 
ATOM      5  C   UNL     1       4.936   3.291  16.732  0.00  0.00    +0.000 C 
ATOM      6  C   UNL     1       5.084   5.838  17.223  0.00  0.00    +0.000 A 
ATOM      7  C   UNL     1       4.405   7.004  17.623  0.00  0.00    +0.000 A 
ENDROOT
BRANCH   1  11
ATOM      8  C   UNL     1       1.206   9.502  19.561  0.00  0.00    +0.000 A 
ATOM      9  N   UNL     1       1.394  10.110  18.406  0.00  0.00    +0.000 NA
ATOM     10  N   UNL     1       2.105   9.250  17.609  0.00  0.00    +0.000 NA
ATOM     11  C   UNL     1       2.315   8.169  18.331  0.00  0.00    +0.000 A 
ATOM     12  O   UNL     1       1.772   8.253  19.584  0.00  0.00    +0.000 OA
BRANCH   8  19
ATOM     13  C   UNL     1      -0.250  12.108  19.619  0.00  0.00    +0.000 C 
ATOM     14  C   UNL     1      -0.218  11.164  20.795  0.00  0.00    +0.000 A 
ATOM     15  C   UNL     1      -0.933  11.520  21.952  0.00  0.00    +0.000 A 
ATOM     16  C   UNL     1      -0.968  10.676  23.061  0.00  0.00    +0.000 A 
ATOM     17  C   UNL     1      -0.278   9.470  23.035  0.00  0.00    +0.000 A 
ATOM     18  C   UNL     1       0.445   9.106  21.897  0.00  0.00    +0.000 A 
ATOM     19  C   UNL     1       0.482   9.934  20.756  0.00  0.00    +0.000 A 
ENDBRANCH   8  19
ENDBRANCH   1  11
BRANCH   6  20
ATOM     20  S   UNL     1       6.789   6.073  16.697  0.00  0.00    +0.000 S 
ATOM     21  O   UNL     1       7.610   5.210  17.526  0.00  0.00    +0.000 OA
ATOM     22  O   UNL     1       6.823   5.976  15.253  0.00  0.00    +0.000 OA
BRANCH  20  23
ATOM     23  N   UNL     1       7.123   7.682  17.060  0.00  0.00    +0.000 NA
ATOM     24  H   UNL     1       6.297   8.277  17.051  0.00  0.00    +0.000 HD
BRANCH  23  25
ATOM     25  C   UNL     1       8.059   7.926  18.163  0.00  0.00    +0.000 C 
BRANCH  25  26
ATOM     26  C   UNL     1       8.471   9.369  18.274  0.00  0.00    +0.000 A 
ATOM     27  C   UNL     1       7.965  10.365  17.419  0.00  0.00    +0.000 A 
ATOM     28  C   UNL     1       8.300  11.706  17.627  0.00  0.00    +0.000 A 
ATOM     29  C   UNL     1       9.150  12.059  18.676  0.00  0.00    +0.000 A 
ATOM     30  C   UNL     1       9.678  11.073  19.506  0.00  0.00    +0.000 A 
ATOM     31  C   UNL     1       9.346   9.737  19.302  0.00  0.00    +0.000 A 
ENDBRANCH  25  26
ENDBRANCH  23  25
ENDBRANCH  20  23
ENDBRANCH   6  20
TORSDOF 6
ENDMDL
MODEL 7
REMARK VINA RESULT:      -8.3      2.546      3.391
REMARK  Name = 
REMARK  8 active torsions:
REMARK  status: ('A' for Active; 'I' for Inactive)
REMARK    1  A    between atoms: C_1  and  C_2
REMARK    2  A    between atoms: C_7  and  C_8
REMARK    3  A    between atoms: C_11  and  C_12
REMARK    4  A    between atoms: C_15  and  C_16
REMARK    5  A    between atoms: C_17  and  S_18
REMARK    6  A    between atoms: S_18  and  N_21
REMARK    7  A    between atoms: N_21  and  C_22
REMARK    8  A    between atoms: C_22  and  C_23
REMARK                            x       y       z     vdW  Elec       q    Type
REMARK                         _______ _______ _______ _____ _____    ______ ____
ROOT
ATOM      1  C   UNL     1       2.728   6.670  19.217  0.00  0.00    +0.000 A 
ATOM      2  C   UNL     1       2.094   5.598  19.844  0.00  0.00    +0.000 A 
ATOM      3  C   UNL     1       2.715   4.357  19.915  0.00  0.00    +0.000 A 
ATOM      4  C   UNL     1       3.993   4.144  19.372  0.00  0.00    +0.000 A 
ATOM      5  C   UNL     1       4.503   2.744  19.488  0.00  0.00    +0.000 C 
ATOM      6  C   UNL     1       4.665   5.240  18.786  0.00  0.00    +0.000 A 
ATOM      7  C   UNL     1       4.020   6.488  18.709  0.00  0.00    +0.000 A 
ENDROOT
BRANCH   1  11
ATOM      8  C   UNL     1       1.034   9.701  19.713  0.00  0.00    +0.000 A 
ATOM      9  N   UNL     1       1.078   9.739  18.395  0.00  0.00    +0.000 NA
ATOM     10  N   UNL     1       1.705   8.591  17.981  0.00  0.00    +0.000 NA
ATOM     11  C   UNL     1       2.014   7.925  19.073  0.00  0.00    +0.000 A 
ATOM     12  O   UNL     1       1.618   8.566  20.216  0.00  0.00    +0.000 OA
BRANCH   8  19
ATOM     13  C   UNL     1       1.624  12.624  19.568  0.00  0.00    +0.000 C 
ATOM     14  C   UNL     1       0.713  12.026  20.610  0.00  0.00    +0.000 A 
ATOM     15  C   UNL     1       0.095  12.892  21.528  0.00  0.00    +0.000 A 
ATOM     16  C   UNL     1      -0.781  12.404  22.496  0.00  0.00    +0.000 A 
ATOM     17  C   UNL     1      -1.043  11.042  22.570  0.00  0.00    +0.000 A 
ATOM     18  C   UNL     1      -0.429  10.166  21.671  0.00  0.00    +0.000 A 
ATOM     19  C   UNL     1       0.447  10.637  20.672  0.00  0.00    +0.000 A 
ENDBRANCH   8  19
ENDBRANCH   1  11
BRANCH   6  20
ATOM     20  S   UNL     1       6.288   5.154  18.013  0.00  0.00    +0.000 S 
ATOM     21  O   UNL     1       6.510   6.428  17.353  0.00  0.00    +0.000 OA
ATOM     22  O   UNL     1       7.221   4.650  18.998  0.00  0.00    +0.000 OA
BRANCH  20  23
ATOM     23  N   UNL     1       6.139   3.942  16.855  0.00  0.00    +0.000 NA
ATOM     24  H   UNL     1       6.092   3.007  17.255  0.00  0.00    +0.000 HD
BRANCH  23  25
ATOM     25  C   UNL     1       5.207   4.199  15.751  0.00  0.00    +0.000 C 
BRANCH  25  26
ATOM     26  C   UNL     1       5.889   4.263  14.411  0.00  0.00    +0.000 A 
ATOM     27  C   UNL     1       7.043   5.037  14.190  0.00  0.00    +0.000 A 
ATOM     28  C   UNL     1       7.699   4.984  12.956  0.00  0.00    +0.000 A 
ATOM     29  C   UNL     1       7.201   4.173  11.936  0.00  0.00    +0.000 A 
ATOM     30  C   UNL     1       6.041   3.428  12.140  0.00  0.00    +0.000 A 
ATOM     31  C   UNL     1       5.387   3.479  13.367  0.00  0.00    +0.000 A 
ENDBRANCH  25  26
ENDBRANCH  23  25
ENDBRANCH  20  23
ENDBRANCH   6  20
TORSDOF 6
ENDMDL
MODEL 8
REMARK VINA RESULT:      -8.3      3.052      4.149
REMARK  Name = 
REMARK  8 active torsions:
REMARK  status: ('A' for Active; 'I' for Inactive)
REMARK    1  A    between atoms: C_1  and  C_2
REMARK    2  A    between atoms: C_7  and  C_8
REMARK    3  A    between atoms: C_11  and  C_12
REMARK    4  A    between atoms: C_15  and  C_16
REMARK    5  A    between atoms: C_17  and  S_18
REMARK    6  A    between atoms: S_18  and  N_21
REMARK    7  A    between atoms: N_21  and  C_22
REMARK    8  A    between atoms: C_22  and  C_23
REMARK                            x       y       z     vdW  Elec       q    Type
REMARK                         _______ _______ _______ _____ _____    ______ ____
ROOT
ATOM      1  C   UNL     1       1.060   9.029  20.603  0.00  0.00    +0.000 A 
ATOM      2  C   UNL     1       1.301   9.746  19.430  0.00  0.00    +0.000 A 
ATOM      3  C   UNL     1       1.964   9.150  18.365  0.00  0.00    +0.000 A 
ATOM      4  C   UNL     1       2.403   7.817  18.427  0.00  0.00    +0.000 A 
ATOM      5  C   UNL     1       3.141   7.339  17.218  0.00  0.00    +0.000 C 
ATOM      6  C   UNL     1       2.113   7.067  19.589  0.00  0.00    +0.000 A 
ATOM      7  C   UNL     1       1.451   7.686  20.666  0.00  0.00    +0.000 A 
ENDROOT
BRANCH   1  11
ATOM      8  C   UNL     1      -0.788  11.120  22.727  0.00  0.00    +0.000 A 
ATOM      9  N   UNL     1      -0.264  10.345  23.657  0.00  0.00    +0.000 NA
ATOM     10  N   UNL     1       0.540   9.437  23.017  0.00  0.00    +0.000 NA
ATOM     11  C   UNL     1       0.452   9.708  21.732  0.00  0.00    +0.000 A 
ATOM     12  O   UNL     1      -0.373  10.767  21.468  0.00  0.00    +0.000 OA
BRANCH   8  19
ATOM     13  C   UNL     1       0.135  13.860  21.985  0.00  0.00    +0.000 C 
ATOM     14  C   UNL     1      -1.258  13.576  22.488  0.00  0.00    +0.000 A 
ATOM     15  C   UNL     1      -2.163  14.648  22.578  0.00  0.00    +0.000 A 
ATOM     16  C   UNL     1      -3.474  14.445  23.007  0.00  0.00    +0.000 A 
ATOM     17  C   UNL     1      -3.896  13.171  23.365  0.00  0.00    +0.000 A 
ATOM     18  C   UNL     1      -3.007  12.097  23.290  0.00  0.00    +0.000 A 
ATOM     19  C   UNL     1      -1.681  12.273  22.843  0.00  0.00    +0.000 A 
ENDBRANCH   8  19
ENDBRANCH   1  11
BRANCH   6  20
ATOM     20  S   UNL     1       2.620   5.362  19.863  0.00  0.00    +0.000 S 
ATOM     21  O   UNL     1       2.292   5.040  21.240  0.00  0.00    +0.000 OA
ATOM     22  O   UNL     1       2.108   4.568  18.767  0.00  0.00    +0.000 OA
BRANCH  20  23
ATOM     23  N   UNL     1       4.292   5.386  19.676  0.00  0.00    +0.000 NA
ATOM     24  H   UNL     1       4.779   5.814  20.461  0.00  0.00    +0.000 HD
BRANCH  23  25
ATOM     25  C   UNL     1       4.911   4.165  19.146  0.00  0.00    +0.000 C 
BRANCH  25  26
ATOM     26  C   UNL     1       5.546   4.369  17.797  0.00  0.00    +0.000 A 
ATOM     27  C   UNL     1       6.892   4.747  17.648  0.00  0.00    +0.000 A 
ATOM     28  C   UNL     1       7.464   4.823  16.374  0.00  0.00    +0.000 A 
ATOM     29  C   UNL     1       6.694   4.538  15.245  0.00  0.00    +0.000 A 
ATOM     30  C   UNL     1       5.352   4.194  15.386  0.00  0.00    +0.000 A 
ATOM     31  C   UNL     1       4.781   4.116  16.653  0.00  0.00    +0.000 A 
ENDBRANCH  25  26
ENDBRANCH  23  25
ENDBRANCH  20  23
ENDBRANCH   6  20
TORSDOF 6
ENDMDL
MODEL 9
REMARK VINA RESULT:      -8.3      3.999      9.052
REMARK  Name = 
REMARK  8 active torsions:
REMARK  status: ('A' for Active; 'I' for Inactive)
REMARK    1  A    between atoms: C_1  and  C_2
REMARK    2  A    between atoms: C_7  and  C_8
REMARK    3  A    between atoms: C_11  and  C_12
REMARK    4  A    between atoms: C_15  and  C_16
REMARK    5  A    between atoms: C_17  and  S_18
REMARK    6  A    between atoms: S_18  and  N_21
REMARK    7  A    between atoms: N_21  and  C_22
REMARK    8  A    between atoms: C_22  and  C_23
REMARK                            x       y       z     vdW  Elec       q    Type
REMARK                         _______ _______ _______ _____ _____    ______ ____
ROOT
ATOM      1  C   UNL     1       0.596   9.372  20.988  0.00  0.00    +0.000 A 
ATOM      2  C   UNL     1       0.061   9.182  22.262  0.00  0.00    +0.000 A 
ATOM      3  C   UNL     1      -0.589  10.222  22.914  0.00  0.00    +0.000 A 
ATOM      4  C   UNL     1      -0.737  11.485  22.316  0.00  0.00    +0.000 A 
ATOM      5  C   UNL     1      -1.418  12.509  23.165  0.00  0.00    +0.000 C 
ATOM      6  C   UNL     1      -0.249  11.668  21.003  0.00  0.00    +0.000 A 
ATOM      7  C   UNL     1       0.419  10.610  20.358  0.00  0.00    +0.000 A 
ENDROOT
BRANCH   1  11
ATOM      8  C   UNL     1       1.926   6.287  19.980  0.00  0.00    +0.000 A 
ATOM      9  N   UNL     1       2.630   7.055  19.170  0.00  0.00    +0.000 NA
ATOM     10  N   UNL     1       2.265   8.351  19.427  0.00  0.00    +0.000 NA
ATOM     11  C   UNL     1       1.353   8.297  20.374  0.00  0.00    +0.000 A 
ATOM     12  O   UNL     1       1.084   7.018  20.779  0.00  0.00    +0.000 OA
BRANCH   8  19
ATOM     13  C   UNL     1       1.442   4.440  17.685  0.00  0.00    +0.000 C 
ATOM     14  C   UNL     1       1.718   3.949  19.084  0.00  0.00    +0.000 A 
ATOM     15  C   UNL     1       1.779   2.562  19.301  0.00  0.00    +0.000 A 
ATOM     16  C   UNL     1       2.060   2.046  20.565  0.00  0.00    +0.000 A 
ATOM     17  C   UNL     1       2.271   2.908  21.634  0.00  0.00    +0.000 A 
ATOM     18  C   UNL     1       2.204   4.289  21.437  0.00  0.00    +0.000 A 
ATOM     19  C   UNL     1       1.939   4.836  20.164  0.00  0.00    +0.000 A 
ENDBRANCH   8  19
ENDBRANCH   1  11
BRANCH   6  20
ATOM     20  S   UNL     1      -0.317  13.217  20.089  0.00  0.00    +0.000 S 
ATOM     21  O   UNL     1      -0.003  14.277  21.029  0.00  0.00    +0.000 OA
ATOM     22  O   UNL     1       0.448  13.045  18.872  0.00  0.00    +0.000 OA
BRANCH  20  23
ATOM     23  N   UNL     1      -1.925  13.351  19.609  0.00  0.00    +0.000 NA
ATOM     24  H   UNL     1      -2.050  13.920  18.776  0.00  0.00    +0.000 HD
BRANCH  23  25
ATOM     25  C   UNL     1      -2.729  12.125  19.657  0.00  0.00    +0.000 C 
BRANCH  25  26
ATOM     26  C   UNL     1      -2.887  11.475  18.308  0.00  0.00    +0.000 A 
ATOM     27  C   UNL     1      -1.932  10.585  17.784  0.00  0.00    +0.000 A 
ATOM     28  C   UNL     1      -2.173   9.928  16.574  0.00  0.00    +0.000 A 
ATOM     29  C   UNL     1      -3.357  10.167  15.874  0.00  0.00    +0.000 A 
ATOM     30  C   UNL     1      -4.292  11.071  16.373  0.00  0.00    +0.000 A 
ATOM     31  C   UNL     1      -4.054  11.725  17.579  0.00  0.00    +0.000 A 
ENDBRANCH  25  26
ENDBRANCH  23  25
ENDBRANCH  20  23
ENDBRANCH   6  20
TORSDOF 6
ENDMDL
