MODEL 1
REMARK VINA RESULT:      -9.1      0.000      0.000
REMARK  Name = 
REMARK  3 active torsions:
REMARK  status: ('A' for Active; 'I' for Inactive)
REMARK    1  A    between atoms: C_1  and  C_2
REMARK    2  A    between atoms: N_10  and  S_11
REMARK    3  A    between atoms: S_11  and  C_14
REMARK                            x       y       z     vdW  Elec       q    Type
REMARK                         _______ _______ _______ _____ _____    ______ ____
ROOT
ATOM      1  S   UNL     1       3.602   4.030  18.905  0.00  0.00    +0.000 S 
ATOM      2  O   UNL     1       2.805   3.495  17.842  0.00  0.00    +0.000 OA
ATOM      3  O   UNL     1       3.825   3.287  20.146  0.00  0.00    +0.000 OA
ENDROOT
BRANCH   1  13
ATOM      4  C   UNL     1       7.607   4.959  13.248  0.00  0.00    +0.000 C 
ATOM      5  C   UNL     1       6.848   4.761  14.529  0.00  0.00    +0.000 A 
ATOM      6  C   UNL     1       5.468   4.557  14.517  0.00  0.00    +0.000 A 
ATOM      7  C   UNL     1       4.730   4.381  15.718  0.00  0.00    +0.000 A 
ATOM      8  C   UNL     1       5.474   4.398  16.917  0.00  0.00    +0.000 A 
ATOM      9  C   UNL     1       6.843   4.601  16.943  0.00  0.00    +0.000 A 
ATOM     10  C   UNL     1       7.544   4.802  15.748  0.00  0.00    +0.000 A 
ATOM     11  N   UNL     1       7.303   4.556  18.227  0.00  0.00    +0.000 NA
ATOM     12  N   UNL     1       6.293   4.309  19.040  0.00  0.00    +0.000 NA
ATOM     13  N   UNL     1       5.159   4.280  18.251  0.00  0.00    +0.000 N 
ENDBRANCH   1  13
BRANCH   1  14
ATOM     14  C   UNL     1       2.927   5.605  19.335  0.00  0.00    +0.000 A 
ATOM     15  C   UNL     1       2.119   5.656  20.477  0.00  0.00    +0.000 A 
ATOM     16  C   UNL     1       1.522   6.855  20.856  0.00  0.00    +0.000 A 
ATOM     17  C   UNL     1       1.606   7.962  20.012  0.00  0.00    +0.000 A 
ATOM     18  C   UNL     1       0.951   9.143  20.334  0.00  0.00    +0.000 A 
ATOM     19  C   UNL     1       0.434   9.941  19.333  0.00  0.00    +0.000 A 
ATOM     20  C   UNL     1       0.999   9.833  18.073  0.00  0.00    +0.000 A 
ATOM     21  C   UNL     1       2.012   8.888  17.835  0.00  0.00    +0.000 A 
ATOM     22  C   UNL     1       2.252   7.865  18.769  0.00  0.00    +0.000 A 
ATOM     23  C   UNL     1       3.023   6.717  18.486  0.00  0.00    +0.000 A 
ENDBRANCH   1  14
TORSDOF 2
ENDMDL
MODEL 2
REMARK VINA RESULT:      -8.4      1.373      2.100
REMARK  Name = 
REMARK  3 active torsions:
REMARK  status: ('A' for Active; 'I' for Inactive)
REMARK    1  A    between atoms: C_1  and  C_2
REMARK    2  A    between atoms: N_10  and  S_11
REMARK    3  A    between atoms: S_11  and  C_14
REMARK                            x       y       z     vdW  Elec       q    Type
REMARK                         _______ _______ _______ _____ _____    ______ ____
ROOT
ATOM      1  S   UNL     1       4.989   5.022  18.650  0.00  0.00    +0.000 S 
ATOM      2  O   UNL     1       4.360   3.764  18.375  0.00  0.00    +0.000 OA
ATOM      3  O   UNL     1       5.812   5.223  19.843  0.00  0.00    +0.000 OA
ENDROOT
BRANCH   1  13
ATOM      4  C   UNL     1       6.724   3.732  11.999  0.00  0.00    +0.000 C 
ATOM      5  C   UNL     1       6.449   4.081  13.435  0.00  0.00    +0.000 A 
ATOM      6  C   UNL     1       5.398   3.478  14.127  0.00  0.00    +0.000 A 
ATOM      7  C   UNL     1       5.112   3.803  15.479  0.00  0.00    +0.000 A 
ATOM      8  C   UNL     1       5.966   4.748  16.088  0.00  0.00    +0.000 A 
ATOM      9  C   UNL     1       7.010   5.355  15.412  0.00  0.00    +0.000 A 
ATOM     10  C   UNL     1       7.253   5.039  14.070  0.00  0.00    +0.000 A 
ATOM     11  N   UNL     1       7.675   6.212  16.241  0.00  0.00    +0.000 NA
ATOM     12  N   UNL     1       7.120   6.173  17.439  0.00  0.00    +0.000 NA
ATOM     13  N   UNL     1       6.030   5.330  17.333  0.00  0.00    +0.000 N 
ENDBRANCH   1  13
BRANCH   1  14
ATOM     14  C   UNL     1       3.725   6.257  18.653  0.00  0.00    +0.000 A 
ATOM     15  C   UNL     1       3.776   7.214  17.633  0.00  0.00    +0.000 A 
ATOM     16  C   UNL     1       2.835   8.240  17.592  0.00  0.00    +0.000 A 
ATOM     17  C   UNL     1       1.943   8.398  18.652  0.00  0.00    +0.000 A 
ATOM     18  C   UNL     1       1.050   9.461  18.668  0.00  0.00    +0.000 A 
ATOM     19  C   UNL     1       0.690  10.042  19.867  0.00  0.00    +0.000 A 
ATOM     20  C   UNL     1       0.802   9.270  21.011  0.00  0.00    +0.000 A 
ATOM     21  C   UNL     1       1.332   7.970  20.933  0.00  0.00    +0.000 A 
ATOM     22  C   UNL     1       2.012   7.556  19.774  0.00  0.00    +0.000 A 
ATOM     23  C   UNL     1       2.825   6.405  19.718  0.00  0.00    +0.000 A 
ENDBRANCH   1  14
TORSDOF 2
ENDMDL
MODEL 3
REMARK VINA RESULT:      -8.4      0.735      1.626
REMARK  Name = 
REMARK  3 active torsions:
REMARK  status: ('A' for Active; 'I' for Inactive)
REMARK    1  A    between atoms: C_1  and  C_2
REMARK    2  A    between atoms: N_10  and  S_11
REMARK    3  A    between atoms: S_11  and  C_14
REMARK                            x       y       z     vdW  Elec       q    Type
REMARK                         _______ _______ _______ _____ _____    ______ ____
ROOT
ATOM      1  S   UNL     1       3.277   4.312  19.176  0.00  0.00    +0.000 S 
ATOM      2  O   UNL     1       2.578   3.521  18.207  0.00  0.00    +0.000 OA
ATOM      3  O   UNL     1       3.444   3.861  20.558  0.00  0.00    +0.000 OA
ENDROOT
BRANCH   1  13
ATOM      4  C   UNL     1       7.533   4.831  13.651  0.00  0.00    +0.000 C 
ATOM      5  C   UNL     1       6.717   4.724  14.908  0.00  0.00    +0.000 A 
ATOM      6  C   UNL     1       5.337   4.533  14.849  0.00  0.00    +0.000 A 
ATOM      7  C   UNL     1       4.545   4.443  16.025  0.00  0.00    +0.000 A 
ATOM      8  C   UNL     1       5.238   4.531  17.252  0.00  0.00    +0.000 A 
ATOM      9  C   UNL     1       6.606   4.722  17.325  0.00  0.00    +0.000 A 
ATOM     10  C   UNL     1       7.360   4.838  16.151  0.00  0.00    +0.000 A 
ATOM     11  N   UNL     1       7.010   4.757  18.628  0.00  0.00    +0.000 NA
ATOM     12  N   UNL     1       5.962   4.574  19.411  0.00  0.00    +0.000 NA
ATOM     13  N   UNL     1       4.864   4.504  18.576  0.00  0.00    +0.000 N 
ENDBRANCH   1  13
BRANCH   1  14
ATOM     14  C   UNL     1       2.509   5.902  19.218  0.00  0.00    +0.000 A 
ATOM     15  C   UNL     1       2.779   6.762  18.146  0.00  0.00    +0.000 A 
ATOM     16  C   UNL     1       2.239   8.045  18.128  0.00  0.00    +0.000 A 
ATOM     17  C   UNL     1       1.559   8.521  19.250  0.00  0.00    +0.000 A 
ATOM     18  C   UNL     1       1.082   9.825  19.282  0.00  0.00    +0.000 A 
ATOM     19  C   UNL     1       1.058  10.521  20.474  0.00  0.00    +0.000 A 
ATOM     20  C   UNL     1       1.015   9.783  21.645  0.00  0.00    +0.000 A 
ATOM     21  C   UNL     1       1.067   8.379  21.594  0.00  0.00    +0.000 A 
ATOM     22  C   UNL     1       1.451   7.732  20.407  0.00  0.00    +0.000 A 
ATOM     23  C   UNL     1       1.820   6.372  20.345  0.00  0.00    +0.000 A 
ENDBRANCH   1  14
TORSDOF 2
ENDMDL
MODEL 4
REMARK VINA RESULT:      -8.3      3.624      4.828
REMARK  Name = 
REMARK  3 active torsions:
REMARK  status: ('A' for Active; 'I' for Inactive)
REMARK    1  A    between atoms: C_1  and  C_2
REMARK    2  A    between atoms: N_10  and  S_11
REMARK    3  A    between atoms: S_11  and  C_14
REMARK                            x       y       z     vdW  Elec       q    Type
REMARK                         _______ _______ _______ _____ _____    ______ ____
ROOT
ATOM      1  S   UNL     1       5.428   4.645  16.509  0.00  0.00    +0.000 S 
ATOM      2  O   UNL     1       4.952   5.773  15.765  0.00  0.00    +0.000 OA
ATOM      3  O   UNL     1       6.039   3.492  15.848  0.00  0.00    +0.000 OA
ENDROOT
BRANCH   1  13
ATOM      4  C   UNL     1       9.085  10.116  18.875  0.00  0.00    +0.000 C 
ATOM      5  C   UNL     1       8.366   8.871  18.439  0.00  0.00    +0.000 A 
ATOM      6  C   UNL     1       7.399   8.919  17.435  0.00  0.00    +0.000 A 
ATOM      7  C   UNL     1       6.698   7.756  17.018  0.00  0.00    +0.000 A 
ATOM      8  C   UNL     1       7.056   6.550  17.656  0.00  0.00    +0.000 A 
ATOM      9  C   UNL     1       8.012   6.488  18.654  0.00  0.00    +0.000 A 
ATOM     10  C   UNL     1       8.668   7.654  19.069  0.00  0.00    +0.000 A 
ATOM     11  N   UNL     1       8.166   5.201  19.083  0.00  0.00    +0.000 NA
ATOM     12  N   UNL     1       7.363   4.415  18.389  0.00  0.00    +0.000 NA
ATOM     13  N   UNL     1       6.630   5.245  17.562  0.00  0.00    +0.000 N 
ENDBRANCH   1  13
BRANCH   1  14
ATOM     14  C   UNL     1       4.084   4.052  17.491  0.00  0.00    +0.000 A 
ATOM     15  C   UNL     1       2.812   4.558  17.193  0.00  0.00    +0.000 A 
ATOM     16  C   UNL     1       1.711   4.165  17.948  0.00  0.00    +0.000 A 
ATOM     17  C   UNL     1       1.902   3.391  19.093  0.00  0.00    +0.000 A 
ATOM     18  C   UNL     1       0.826   3.056  19.903  0.00  0.00    +0.000 A 
ATOM     19  C   UNL     1       0.999   2.941  21.268  0.00  0.00    +0.000 A 
ATOM     20  C   UNL     1       2.274   2.657  21.729  0.00  0.00    +0.000 A 
ATOM     21  C   UNL     1       3.346   2.566  20.824  0.00  0.00    +0.000 A 
ATOM     22  C   UNL     1       3.197   3.041  19.509  0.00  0.00    +0.000 A 
ATOM     23  C   UNL     1       4.282   3.267  18.636  0.00  0.00    +0.000 A 
ENDBRANCH   1  14
TORSDOF 2
ENDMDL
MODEL 5
REMARK VINA RESULT:      -7.7      2.845      6.996
REMARK  Name = 
REMARK  3 active torsions:
REMARK  status: ('A' for Active; 'I' for Inactive)
REMARK    1  A    between atoms: C_1  and  C_2
REMARK    2  A    between atoms: N_10  and  S_11
REMARK    3  A    between atoms: S_11  and  C_14
REMARK                            x       y       z     vdW  Elec       q    Type
REMARK                         _______ _______ _______ _____ _____    ______ ____
ROOT
ATOM      1  S   UNL     1       6.344   5.521  17.994  0.00  0.00    +0.000 S 
ATOM      2  O   UNL     1       6.872   6.852  17.943  0.00  0.00    +0.000 OA
ATOM      3  O   UNL     1       7.036   4.448  18.706  0.00  0.00    +0.000 OA
ENDROOT
BRANCH   1  13
ATOM      4  C   UNL     1       1.297   2.484  21.763  0.00  0.00    +0.000 C 
ATOM      5  C   UNL     1       2.310   3.234  20.946  0.00  0.00    +0.000 A 
ATOM      6  C   UNL     1       3.488   2.616  20.527  0.00  0.00    +0.000 A 
ATOM      7  C   UNL     1       4.465   3.311  19.765  0.00  0.00    +0.000 A 
ATOM      8  C   UNL     1       4.164   4.650  19.437  0.00  0.00    +0.000 A 
ATOM      9  C   UNL     1       3.000   5.276  19.848  0.00  0.00    +0.000 A 
ATOM     10  C   UNL     1       2.066   4.578  20.622  0.00  0.00    +0.000 A 
ATOM     11  N   UNL     1       2.962   6.557  19.379  0.00  0.00    +0.000 NA
ATOM     12  N   UNL     1       4.045   6.788  18.660  0.00  0.00    +0.000 NA
ATOM     13  N   UNL     1       4.818   5.646  18.749  0.00  0.00    +0.000 N 
ENDBRANCH   1  13
BRANCH   1  14
ATOM     14  C   UNL     1       6.091   4.987  16.329  0.00  0.00    +0.000 A 
ATOM     15  C   UNL     1       5.291   3.853  16.144  0.00  0.00    +0.000 A 
ATOM     16  C   UNL     1       5.078   3.351  14.863  0.00  0.00    +0.000 A 
ATOM     17  C   UNL     1       5.785   3.887  13.787  0.00  0.00    +0.000 A 
ATOM     18  C   UNL     1       5.646   3.349  12.515  0.00  0.00    +0.000 A 
ATOM     19  C   UNL     1       6.722   3.335  11.650  0.00  0.00    +0.000 A 
ATOM     20  C   UNL     1       7.718   4.276  11.853  0.00  0.00    +0.000 A 
ATOM     21  C   UNL     1       7.644   5.154  12.949  0.00  0.00    +0.000 A 
ATOM     22  C   UNL     1       6.737   4.899  13.993  0.00  0.00    +0.000 A 
ATOM     23  C   UNL     1       6.799   5.536  15.250  0.00  0.00    +0.000 A 
ENDBRANCH   1  14
TORSDOF 2
ENDMDL
MODEL 6
REMARK VINA RESULT:      -7.6      3.197      4.513
REMARK  Name = 
REMARK  3 active torsions:
REMARK  status: ('A' for Active; 'I' for Inactive)
REMARK    1  A    between atoms: C_1  and  C_2
REMARK    2  A    between atoms: N_10  and  S_11
REMARK    3  A    between atoms: S_11  and  C_14
REMARK                            x       y       z     vdW  Elec       q    Type
REMARK                         _______ _______ _______ _____ _____    ______ ____
ROOT
ATOM      1  S   UNL     1       7.064   5.700  16.958  0.00  0.00    +0.000 S 
ATOM      2  O   UNL     1       7.948   4.806  17.646  0.00  0.00    +0.000 OA
ATOM      3  O   UNL     1       7.169   7.151  17.111  0.00  0.00    +0.000 OA
ENDROOT
BRANCH   1  13
ATOM      4  C   UNL     1       4.827   2.663  11.069  0.00  0.00    +0.000 C 
ATOM      5  C   UNL     1       5.404   3.353  12.272  0.00  0.00    +0.000 A 
ATOM      6  C   UNL     1       4.787   3.251  13.519  0.00  0.00    +0.000 A 
ATOM      7  C   UNL     1       5.308   3.907  14.665  0.00  0.00    +0.000 A 
ATOM      8  C   UNL     1       6.497   4.643  14.477  0.00  0.00    +0.000 A 
ATOM      9  C   UNL     1       7.119   4.754  13.246  0.00  0.00    +0.000 A 
ATOM     10  C   UNL     1       6.569   4.123  12.124  0.00  0.00    +0.000 A 
ATOM     11  N   UNL     1       8.251   5.509  13.354  0.00  0.00    +0.000 NA
ATOM     12  N   UNL     1       8.405   5.879  14.612  0.00  0.00    +0.000 NA
ATOM     13  N   UNL     1       7.298   5.409  15.292  0.00  0.00    +0.000 N 
ENDBRANCH   1  13
BRANCH   1  14
ATOM     14  C   UNL     1       5.410   5.233  17.370  0.00  0.00    +0.000 A 
ATOM     15  C   UNL     1       4.443   6.245  17.341  0.00  0.00    +0.000 A 
ATOM     16  C   UNL     1       3.125   5.960  17.690  0.00  0.00    +0.000 A 
ATOM     17  C   UNL     1       2.808   4.707  18.215  0.00  0.00    +0.000 A 
ATOM     18  C   UNL     1       1.516   4.430  18.643  0.00  0.00    +0.000 A 
ATOM     19  C   UNL     1       1.311   3.587  19.716  0.00  0.00    +0.000 A 
ATOM     20  C   UNL     1       2.304   2.666  20.005  0.00  0.00    +0.000 A 
ATOM     21  C   UNL     1       3.496   2.659  19.260  0.00  0.00    +0.000 A 
ATOM     22  C   UNL     1       3.812   3.749  18.429  0.00  0.00    +0.000 A 
ATOM     23  C   UNL     1       5.096   3.969  17.889  0.00  0.00    +0.000 A 
ENDBRANCH   1  14
TORSDOF 2
ENDMDL
MODEL 7
REMARK VINA RESULT:      -7.6      2.203      7.182
REMARK  Name = 
REMARK  3 active torsions:
REMARK  status: ('A' for Active; 'I' for Inactive)
REMARK    1  A    between atoms: C_1  and  C_2
REMARK    2  A    between atoms: N_10  and  S_11
REMARK    3  A    between atoms: S_11  and  C_14
REMARK                            x       y       z     vdW  Elec       q    Type
REMARK                         _______ _______ _______ _____ _____    ______ ____
ROOT
ATOM      1  S   UNL     1       2.981   5.616  18.788  0.00  0.00    +0.000 S 
ATOM      2  O   UNL     1       3.492   5.505  20.122  0.00  0.00    +0.000 OA
ATOM      3  O   UNL     1       1.874   4.782  18.319  0.00  0.00    +0.000 OA
ENDROOT
BRANCH   1  13
ATOM      4  C   UNL     1      -0.165  11.160  21.664  0.00  0.00    +0.000 C 
ATOM      5  C   UNL     1       0.516  10.031  20.943  0.00  0.00    +0.000 A 
ATOM      6  C   UNL     1       0.727   8.805  21.574  0.00  0.00    +0.000 A 
ATOM      7  C   UNL     1       1.381   7.730  20.914  0.00  0.00    +0.000 A 
ATOM      8  C   UNL     1       1.780   7.966  19.581  0.00  0.00    +0.000 A 
ATOM      9  C   UNL     1       1.579   9.178  18.945  0.00  0.00    +0.000 A 
ATOM     10  C   UNL     1       0.958  10.232  19.626  0.00  0.00    +0.000 A 
ATOM     11  N   UNL     1       2.047   9.123  17.664  0.00  0.00    +0.000 NA
ATOM     12  N   UNL     1       2.528   7.915  17.431  0.00  0.00    +0.000 NA
ATOM     13  N   UNL     1       2.430   7.223  18.623  0.00  0.00    +0.000 N 
ENDBRANCH   1  13
BRANCH   1  14
ATOM     14  C   UNL     1       4.337   5.384  17.679  0.00  0.00    +0.000 A 
ATOM     15  C   UNL     1       5.321   6.379  17.667  0.00  0.00    +0.000 A 
ATOM     16  C   UNL     1       6.400   6.283  16.793  0.00  0.00    +0.000 A 
ATOM     17  C   UNL     1       6.415   5.277  15.827  0.00  0.00    +0.000 A 
ATOM     18  C   UNL     1       7.443   5.212  14.895  0.00  0.00    +0.000 A 
ATOM     19  C   UNL     1       7.186   4.763  13.615  0.00  0.00    +0.000 A 
ATOM     20  C   UNL     1       6.092   3.933  13.436  0.00  0.00    +0.000 A 
ATOM     21  C   UNL     1       5.251   3.634  14.522  0.00  0.00    +0.000 A 
ATOM     22  C   UNL     1       5.335   4.388  15.705  0.00  0.00    +0.000 A 
ATOM     23  C   UNL     1       4.350   4.365  16.716  0.00  0.00    +0.000 A 
ENDBRANCH   1  14
TORSDOF 2
ENDMDL
MODEL 8
REMARK VINA RESULT:      -7.6      4.043      8.249
REMARK  Name = 
REMARK  3 active torsions:
REMARK  status: ('A' for Active; 'I' for Inactive)
REMARK    1  A    between atoms: C_1  and  C_2
REMARK    2  A    between atoms: N_10  and  S_11
REMARK    3  A    between atoms: S_11  and  C_14
REMARK                            x       y       z     vdW  Elec       q    Type
REMARK                         _______ _______ _______ _____ _____    ______ ____
ROOT
ATOM      1  S   UNL     1       1.411   9.385  18.372  0.00  0.00    +0.000 S 
ATOM      2  O   UNL     1       0.195   9.227  17.630  0.00  0.00    +0.000 OA
ATOM      3  O   UNL     1       2.304  10.523  18.149  0.00  0.00    +0.000 OA
ENDROOT
BRANCH   1  13
ATOM      4  C   UNL     1      -2.483  12.487  23.283  0.00  0.00    +0.000 C 
ATOM      5  C   UNL     1      -1.596  11.755  22.316  0.00  0.00    +0.000 A 
ATOM      6  C   UNL     1      -1.577  12.098  20.964  0.00  0.00    +0.000 A 
ATOM      7  C   UNL     1      -0.757  11.410  20.032  0.00  0.00    +0.000 A 
ATOM      8  C   UNL     1       0.054  10.381  20.554  0.00  0.00    +0.000 A 
ATOM      9  C   UNL     1       0.044  10.029  21.892  0.00  0.00    +0.000 A 
ATOM     10  C   UNL     1      -0.796  10.703  22.787  0.00  0.00    +0.000 A 
ATOM     11  N   UNL     1       0.930   9.016  22.122  0.00  0.00    +0.000 NA
ATOM     12  N   UNL     1       1.536   8.706  20.990  0.00  0.00    +0.000 NA
ATOM     13  N   UNL     1       0.954   9.491  20.013  0.00  0.00    +0.000 N 
ENDBRANCH   1  13
BRANCH   1  14
ATOM     14  C   UNL     1       2.357   7.908  18.159  0.00  0.00    +0.000 A 
ATOM     15  C   UNL     1       3.582   8.033  17.491  0.00  0.00    +0.000 A 
ATOM     16  C   UNL     1       4.365   6.907  17.254  0.00  0.00    +0.000 A 
ATOM     17  C   UNL     1       3.856   5.641  17.546  0.00  0.00    +0.000 A 
ATOM     18  C   UNL     1       4.589   4.501  17.243  0.00  0.00    +0.000 A 
ATOM     19  C   UNL     1       3.940   3.344  16.863  0.00  0.00    +0.000 A 
ATOM     20  C   UNL     1       2.627   3.183  17.273  0.00  0.00    +0.000 A 
ATOM     21  C   UNL     1       1.982   4.208  17.988  0.00  0.00    +0.000 A 
ATOM     22  C   UNL     1       2.549   5.494  18.038  0.00  0.00    +0.000 A 
ATOM     23  C   UNL     1       1.844   6.639  18.463  0.00  0.00    +0.000 A 
ENDBRANCH   1  14
TORSDOF 2
ENDMDL
MODEL 9
REMARK VINA RESULT:      -7.6      2.115      6.094
REMARK  Name = 
REMARK  3 active torsions:
REMARK  status: ('A' for Active; 'I' for Inactive)
REMARK    1  A    between atoms: C_1  and  C_2
REMARK    2  A    between atoms: N_10  and  S_11
REMARK    3  A    between atoms: S_11  and  C_14
REMARK                            x       y       z     vdW  Elec       q    Type
REMARK                         _______ _______ _______ _____ _____    ______ ____
ROOT
ATOM      1  S   UNL     1       2.338   4.076  19.455  0.00  0.00    +0.000 S 
ATOM      2  O   UNL     1       2.575   3.328  20.654  0.00  0.00    +0.000 OA
ATOM      3  O   UNL     1       1.282   3.702  18.514  0.00  0.00    +0.000 OA
ENDROOT
BRANCH   1  13
ATOM      4  C   UNL     1       2.007  10.891  17.923  0.00  0.00    +0.000 C 
ATOM      5  C   UNL     1       2.041   9.455  18.364  0.00  0.00    +0.000 A 
ATOM      6  C   UNL     1       2.509   8.457  17.509  0.00  0.00    +0.000 A 
ATOM      7  C   UNL     1       2.537   7.093  17.901  0.00  0.00    +0.000 A 
ATOM      8  C   UNL     1       2.091   6.810  19.210  0.00  0.00    +0.000 A 
ATOM      9  C   UNL     1       1.623   7.790  20.067  0.00  0.00    +0.000 A 
ATOM     10  C   UNL     1       1.577   9.124  19.646  0.00  0.00    +0.000 A 
ATOM     11  N   UNL     1       1.271   7.241  21.266  0.00  0.00    +0.000 NA
ATOM     12  N   UNL     1       1.511   5.943  21.235  0.00  0.00    +0.000 NA
ATOM     13  N   UNL     1       1.949   5.662  19.954  0.00  0.00    +0.000 N 
ENDBRANCH   1  13
BRANCH   1  14
ATOM     14  C   UNL     1       3.859   4.139  18.560  0.00  0.00    +0.000 A 
ATOM     15  C   UNL     1       4.949   4.733  19.208  0.00  0.00    +0.000 A 
ATOM     16  C   UNL     1       6.171   4.852  18.552  0.00  0.00    +0.000 A 
ATOM     17  C   UNL     1       6.261   4.520  17.200  0.00  0.00    +0.000 A 
ATOM     18  C   UNL     1       7.450   4.707  16.507  0.00  0.00    +0.000 A 
ATOM     19  C   UNL     1       7.422   5.060  15.172  0.00  0.00    +0.000 A 
ATOM     20  C   UNL     1       6.291   4.727  14.446  0.00  0.00    +0.000 A 
ATOM     21  C   UNL     1       5.198   4.117  15.086  0.00  0.00    +0.000 A 
ATOM     22  C   UNL     1       5.122   4.106  16.490  0.00  0.00    +0.000 A 
ATOM     23  C   UNL     1       3.945   3.796  17.203  0.00  0.00    +0.000 A 
ENDBRANCH   1  14
TORSDOF 2
ENDMDL
