MODEL 1
REMARK VINA RESULT:      -8.0      0.000      0.000
REMARK  Name = 
REMARK  3 active torsions:
REMARK  status: ('A' for Active; 'I' for Inactive)
REMARK    1  A    between atoms: C_1  and  C_2
REMARK    2  A    between atoms: C_8  and  N_9
REMARK    3  A    between atoms: C_10  and  C_12
REMARK                            x       y       z     vdW  Elec       q    Type
REMARK                         _______ _______ _______ _____ _____    ______ ____
ROOT
ATOM      1  N   UNL     1       7.102   8.251  17.145  0.00  0.00    +0.000 N 
ATOM      2  C   UNL     1       8.069   8.672  18.042  0.00  0.00    +0.000 C 
ATOM      3  O   UNL     1       8.628   7.953  18.868  0.00  0.00    +0.000 OA
ATOM      4  H   UNL     1       6.849   8.862  16.380  0.00  0.00    +0.000 HD
ENDROOT
BRANCH   2   5
ATOM      5  C   UNL     1       8.527  10.072  17.975  0.00  0.00    +0.000 A 
ATOM      6  C   UNL     1       7.810  11.133  17.434  0.00  0.00    +0.000 A 
ATOM      7  C   UNL     1       8.358  12.425  17.496  0.00  0.00    +0.000 A 
ATOM      8  C   UNL     1       9.624  12.634  18.052  0.00  0.00    +0.000 A 
ATOM      9  N   UNL     1      10.249  13.868  18.052  0.00  0.00    +0.000 N 
ATOM     10  C   UNL     1      11.709  13.851  18.056  0.00  0.00    +0.000 C 
ATOM     11  C   UNL     1      12.262  14.028  19.467  0.00  0.00    +0.000 C 
ATOM     12  C   UNL     1      12.244  15.476  19.944  0.00  0.00    +0.000 C 
ATOM     13  C   UNL     1      10.863  16.134  19.952  0.00  0.00    +0.000 C 
ATOM     14  C   UNL     1      10.271  16.326  18.554  0.00  0.00    +0.000 C 
ATOM     15  C   UNL     1       9.501  15.114  18.019  0.00  0.00    +0.000 C 
ATOM     16  N   UNL     1      10.305  11.596  18.579  0.00  0.00    +0.000 NA
ATOM     17  C   UNL     1       9.753  10.364  18.555  0.00  0.00    +0.000 A 
ENDBRANCH   2   5
BRANCH   1  25
ATOM     18  C   UNL     1       2.260   5.245  18.045  0.00  0.00    +0.000 C 
ATOM     19  C   UNL     1       3.555   4.677  17.600  0.00  0.00    +0.000 A 
ATOM     20  N   UNL     1       3.664   3.362  17.351  0.00  0.00    +0.000 NA
ATOM     21  N   UNL     1       4.949   3.218  16.971  0.00  0.00    +0.000 N 
ATOM     22  C   UNL     1       5.656   4.383  16.975  0.00  0.00    +0.000 A 
ATOM     23  N   UNL     1       6.947   4.521  16.647  0.00  0.00    +0.000 NA
ATOM     24  C   UNL     1       7.365   5.810  16.729  0.00  0.00    +0.000 A 
ATOM     25  C   UNL     1       6.594   6.920  17.108  0.00  0.00    +0.000 A 
ATOM     26  C   UNL     1       5.258   6.694  17.467  0.00  0.00    +0.000 A 
ATOM     27  C   UNL     1       4.775   5.372  17.383  0.00  0.00    +0.000 A 
ATOM     28  H   UNL     1       5.295   2.301  16.716  0.00  0.00    +0.000 HD
ENDBRANCH   1  25
TORSDOF 2
ENDMDL
MODEL 2
REMARK VINA RESULT:      -8.0      7.165      8.881
REMARK  Name = 
REMARK  3 active torsions:
REMARK  status: ('A' for Active; 'I' for Inactive)
REMARK    1  A    between atoms: C_1  and  C_2
REMARK    2  A    between atoms: C_8  and  N_9
REMARK    3  A    between atoms: C_10  and  C_12
REMARK                            x       y       z     vdW  Elec       q    Type
REMARK                         _______ _______ _______ _____ _____    ______ ____
ROOT
ATOM      1  N   UNL     1       2.214   7.248  19.915  0.00  0.00    +0.000 N 
ATOM      2  C   UNL     1       1.883   8.220  18.987  0.00  0.00    +0.000 C 
ATOM      3  O   UNL     1       2.066   8.132  17.775  0.00  0.00    +0.000 OA
ATOM      4  H   UNL     1       1.847   7.326  20.853  0.00  0.00    +0.000 HD
ENDROOT
BRANCH   2   5
ATOM      5  C   UNL     1       1.196   9.437  19.459  0.00  0.00    +0.000 A 
ATOM      6  C   UNL     1       1.141  10.649  18.781  0.00  0.00    +0.000 A 
ATOM      7  C   UNL     1       0.396  11.704  19.336  0.00  0.00    +0.000 A 
ATOM      8  C   UNL     1      -0.241  11.552  20.571  0.00  0.00    +0.000 A 
ATOM      9  N   UNL     1      -0.906  12.585  21.205  0.00  0.00    +0.000 N 
ATOM     10  C   UNL     1      -0.963  12.518  22.662  0.00  0.00    +0.000 C 
ATOM     11  C   UNL     1      -2.284  11.922  23.139  0.00  0.00    +0.000 C 
ATOM     12  C   UNL     1      -3.440  12.915  23.107  0.00  0.00    +0.000 C 
ATOM     13  C   UNL     1      -3.728  13.523  21.733  0.00  0.00    +0.000 C 
ATOM     14  C   UNL     1      -2.608  14.430  21.220  0.00  0.00    +0.000 C 
ATOM     15  C   UNL     1      -1.490  13.695  20.471  0.00  0.00    +0.000 C 
ATOM     16  N   UNL     1      -0.184  10.367  21.214  0.00  0.00    +0.000 NA
ATOM     17  C   UNL     1       0.498   9.345  20.654  0.00  0.00    +0.000 A 
ENDBRANCH   2   5
BRANCH   1  25
ATOM     18  C   UNL     1       1.095   1.710  18.748  0.00  0.00    +0.000 C 
ATOM     19  C   UNL     1       2.439   2.336  18.740  0.00  0.00    +0.000 A 
ATOM     20  N   UNL     1       3.520   1.606  18.421  0.00  0.00    +0.000 NA
ATOM     21  N   UNL     1       4.534   2.489  18.510  0.00  0.00    +0.000 N 
ATOM     22  C   UNL     1       4.140   3.742  18.874  0.00  0.00    +0.000 A 
ATOM     23  N   UNL     1       4.942   4.802  19.040  0.00  0.00    +0.000 NA
ATOM     24  C   UNL     1       4.254   5.919  19.388  0.00  0.00    +0.000 A 
ATOM     25  C   UNL     1       2.867   6.028  19.573  0.00  0.00    +0.000 A 
ATOM     26  C   UNL     1       2.095   4.868  19.412  0.00  0.00    +0.000 A 
ATOM     27  C   UNL     1       2.765   3.686  19.036  0.00  0.00    +0.000 A 
ATOM     28  H   UNL     1       5.479   2.187  18.308  0.00  0.00    +0.000 HD
ENDBRANCH   1  25
TORSDOF 2
ENDMDL
MODEL 3
REMARK VINA RESULT:      -7.9      8.642     11.906
REMARK  Name = 
REMARK  3 active torsions:
REMARK  status: ('A' for Active; 'I' for Inactive)
REMARK    1  A    between atoms: C_1  and  C_2
REMARK    2  A    between atoms: C_8  and  N_9
REMARK    3  A    between atoms: C_10  and  C_12
REMARK                            x       y       z     vdW  Elec       q    Type
REMARK                         _______ _______ _______ _____ _____    ______ ____
ROOT
ATOM      1  N   UNL     1      -0.948  11.500  21.841  0.00  0.00    +0.000 N 
ATOM      2  C   UNL     1      -0.101  10.484  22.249  0.00  0.00    +0.000 C 
ATOM      3  O   UNL     1       0.096  10.155  23.417  0.00  0.00    +0.000 OA
ATOM      4  H   UNL     1      -1.195  11.564  20.863  0.00  0.00    +0.000 HD
ENDROOT
BRANCH   2   5
ATOM      5  C   UNL     1       0.578   9.678  21.218  0.00  0.00    +0.000 A 
ATOM      6  C   UNL     1       0.840  10.086  19.915  0.00  0.00    +0.000 A 
ATOM      7  C   UNL     1       1.549   9.224  19.063  0.00  0.00    +0.000 A 
ATOM      8  C   UNL     1       1.945   7.957  19.503  0.00  0.00    +0.000 A 
ATOM      9  N   UNL     1       2.561   7.034  18.678  0.00  0.00    +0.000 N 
ATOM     10  C   UNL     1       2.354   5.629  19.015  0.00  0.00    +0.000 C 
ATOM     11  C   UNL     1       3.523   5.074  19.822  0.00  0.00    +0.000 C 
ATOM     12  C   UNL     1       4.736   4.725  18.967  0.00  0.00    +0.000 C 
ATOM     13  C   UNL     1       5.305   5.888  18.153  0.00  0.00    +0.000 C 
ATOM     14  C   UNL     1       4.362   6.385  17.056  0.00  0.00    +0.000 C 
ATOM     15  C   UNL     1       3.344   7.432  17.520  0.00  0.00    +0.000 C 
ATOM     16  N   UNL     1       1.689   7.578  20.772  0.00  0.00    +0.000 NA
ATOM     17  C   UNL     1       1.045   8.429  21.598  0.00  0.00    +0.000 A 
ENDBRANCH   2   5
BRANCH   1  25
ATOM     18  C   UNL     1      -0.578  16.575  24.560  0.00  0.00    +0.000 C 
ATOM     19  C   UNL     1      -1.717  15.631  24.653  0.00  0.00    +0.000 A 
ATOM     20  N   UNL     1      -2.788  15.939  25.402  0.00  0.00    +0.000 NA
ATOM     21  N   UNL     1      -3.601  14.876  25.242  0.00  0.00    +0.000 N 
ATOM     22  C   UNL     1      -3.087  13.910  24.430  0.00  0.00    +0.000 A 
ATOM     23  N   UNL     1      -3.682  12.754  24.109  0.00  0.00    +0.000 NA
ATOM     24  C   UNL     1      -2.929  12.004  23.263  0.00  0.00    +0.000 A 
ATOM     25  C   UNL     1      -1.667  12.334  22.747  0.00  0.00    +0.000 A 
ATOM     26  C   UNL     1      -1.093  13.547  23.152  0.00  0.00    +0.000 A 
ATOM     27  C   UNL     1      -1.845  14.367  24.018  0.00  0.00    +0.000 A 
ATOM     28  H   UNL     1      -4.500  14.860  25.708  0.00  0.00    +0.000 HD
ENDBRANCH   1  25
TORSDOF 2
ENDMDL
MODEL 4
REMARK VINA RESULT:      -7.9      6.431      9.100
REMARK  Name = 
REMARK  3 active torsions:
REMARK  status: ('A' for Active; 'I' for Inactive)
REMARK    1  A    between atoms: C_1  and  C_2
REMARK    2  A    between atoms: C_8  and  N_9
REMARK    3  A    between atoms: C_10  and  C_12
REMARK                            x       y       z     vdW  Elec       q    Type
REMARK                         _______ _______ _______ _____ _____    ______ ____
ROOT
ATOM      1  N   UNL     1       1.941   7.644  18.825  0.00  0.00    +0.000 N 
ATOM      2  C   UNL     1       1.729   8.829  18.142  0.00  0.00    +0.000 C 
ATOM      3  O   UNL     1       2.267   9.141  17.082  0.00  0.00    +0.000 OA
ATOM      4  H   UNL     1       1.310   7.394  19.574  0.00  0.00    +0.000 HD
ENDROOT
BRANCH   2   5
ATOM      5  C   UNL     1       0.735   9.779  18.676  0.00  0.00    +0.000 A 
ATOM      6  C   UNL     1      -0.430  10.178  18.032  0.00  0.00    +0.000 A 
ATOM      7  C   UNL     1      -1.308  11.050  18.697  0.00  0.00    +0.000 A 
ATOM      8  C   UNL     1      -0.994  11.544  19.966  0.00  0.00    +0.000 A 
ATOM      9  N   UNL     1      -1.776  12.476  20.624  0.00  0.00    +0.000 N 
ATOM     10  C   UNL     1      -1.083  13.349  21.567  0.00  0.00    +0.000 C 
ATOM     11  C   UNL     1      -1.215  12.836  22.998  0.00  0.00    +0.000 C 
ATOM     12  C   UNL     1      -2.562  13.162  23.634  0.00  0.00    +0.000 C 
ATOM     13  C   UNL     1      -3.777  12.618  22.882  0.00  0.00    +0.000 C 
ATOM     14  C   UNL     1      -3.987  13.266  21.511  0.00  0.00    +0.000 C 
ATOM     15  C   UNL     1      -3.202  12.607  20.372  0.00  0.00    +0.000 C 
ATOM     16  N   UNL     1       0.137  11.143  20.582  0.00  0.00    +0.000 NA
ATOM     17  C   UNL     1       0.956  10.271  19.954  0.00  0.00    +0.000 A 
ENDBRANCH   2   5
BRANCH   1  25
ATOM     18  C   UNL     1       7.511   6.925  17.506  0.00  0.00    +0.000 C 
ATOM     19  C   UNL     1       6.479   5.860  17.489  0.00  0.00    +0.000 A 
ATOM     20  N   UNL     1       6.816   4.601  17.167  0.00  0.00    +0.000 NA
ATOM     21  N   UNL     1       5.652   3.929  17.265  0.00  0.00    +0.000 N 
ATOM     22  C   UNL     1       4.596   4.710  17.629  0.00  0.00    +0.000 A 
ATOM     23  N   UNL     1       3.332   4.299  17.792  0.00  0.00    +0.000 NA
ATOM     24  C   UNL     1       2.508   5.306  18.177  0.00  0.00    +0.000 A 
ATOM     25  C   UNL     1       2.865   6.646  18.396  0.00  0.00    +0.000 A 
ATOM     26  C   UNL     1       4.200   7.009  18.175  0.00  0.00    +0.000 A 
ATOM     27  C   UNL     1       5.097   5.993  17.788  0.00  0.00    +0.000 A 
ATOM     28  H   UNL     1       5.631   2.935  17.074  0.00  0.00    +0.000 HD
ENDBRANCH   1  25
TORSDOF 2
ENDMDL
MODEL 5
REMARK VINA RESULT:      -7.9      6.570      9.435
REMARK  Name = 
REMARK  3 active torsions:
REMARK  status: ('A' for Active; 'I' for Inactive)
REMARK    1  A    between atoms: C_1  and  C_2
REMARK    2  A    between atoms: C_8  and  N_9
REMARK    3  A    between atoms: C_10  and  C_12
REMARK                            x       y       z     vdW  Elec       q    Type
REMARK                         _______ _______ _______ _____ _____    ______ ____
ROOT
ATOM      1  N   UNL     1       2.004   7.865  18.420  0.00  0.00    +0.000 N 
ATOM      2  C   UNL     1       1.642   8.167  19.722  0.00  0.00    +0.000 C 
ATOM      3  O   UNL     1       2.064   7.594  20.724  0.00  0.00    +0.000 OA
ATOM      4  H   UNL     1       1.762   8.514  17.685  0.00  0.00    +0.000 HD
ENDROOT
BRANCH   2   5
ATOM      5  C   UNL     1       0.731   9.304  19.951  0.00  0.00    +0.000 A 
ATOM      6  C   UNL     1       0.262  10.174  18.975  0.00  0.00    +0.000 A 
ATOM      7  C   UNL     1      -0.650  11.178  19.341  0.00  0.00    +0.000 A 
ATOM      8  C   UNL     1      -1.044  11.328  20.674  0.00  0.00    +0.000 A 
ATOM      9  N   UNL     1      -1.864  12.355  21.104  0.00  0.00    +0.000 N 
ATOM     10  C   UNL     1      -1.696  12.777  22.491  0.00  0.00    +0.000 C 
ATOM     11  C   UNL     1      -2.732  12.122  23.400  0.00  0.00    +0.000 C 
ATOM     12  C   UNL     1      -4.103  12.786  23.329  0.00  0.00    +0.000 C 
ATOM     13  C   UNL     1      -4.731  12.817  21.935  0.00  0.00    +0.000 C 
ATOM     14  C   UNL     1      -3.974  13.705  20.945  0.00  0.00    +0.000 C 
ATOM     15  C   UNL     1      -2.818  13.005  20.221  0.00  0.00    +0.000 C 
ATOM     16  N   UNL     1      -0.586  10.471  21.610  0.00  0.00    +0.000 NA
ATOM     17  C   UNL     1       0.257   9.482  21.242  0.00  0.00    +0.000 A 
ENDBRANCH   2   5
BRANCH   1  25
ATOM     18  C   UNL     1       7.562   6.800  17.295  0.00  0.00    +0.000 C 
ATOM     19  C   UNL     1       6.480   5.786  17.319  0.00  0.00    +0.000 A 
ATOM     20  N   UNL     1       6.762   4.494  17.087  0.00  0.00    +0.000 NA
ATOM     21  N   UNL     1       5.564   3.886  17.197  0.00  0.00    +0.000 N 
ATOM     22  C   UNL     1       4.540   4.738  17.482  0.00  0.00    +0.000 A 
ATOM     23  N   UNL     1       3.254   4.398  17.639  0.00  0.00    +0.000 NA
ATOM     24  C   UNL     1       2.471   5.466  17.937  0.00  0.00    +0.000 A 
ATOM     25  C   UNL     1       2.888   6.799  18.080  0.00  0.00    +0.000 A 
ATOM     26  C   UNL     1       4.244   7.084  17.871  0.00  0.00    +0.000 A 
ATOM     27  C   UNL     1       5.099   6.003  17.573  0.00  0.00    +0.000 A 
ATOM     28  H   UNL     1       5.499   2.883  17.069  0.00  0.00    +0.000 HD
ENDBRANCH   1  25
TORSDOF 2
ENDMDL
MODEL 6
REMARK VINA RESULT:      -7.7      6.371      8.567
REMARK  Name = 
REMARK  3 active torsions:
REMARK  status: ('A' for Active; 'I' for Inactive)
REMARK    1  A    between atoms: C_1  and  C_2
REMARK    2  A    between atoms: C_8  and  N_9
REMARK    3  A    between atoms: C_10  and  C_12
REMARK                            x       y       z     vdW  Elec       q    Type
REMARK                         _______ _______ _______ _____ _____    ______ ____
ROOT
ATOM      1  N   UNL     1       2.209   7.232  19.158  0.00  0.00    +0.000 N 
ATOM      2  C   UNL     1       1.833   8.461  18.642  0.00  0.00    +0.000 C 
ATOM      3  O   UNL     1       2.059   8.845  17.496  0.00  0.00    +0.000 OA
ATOM      4  H   UNL     1       1.808   6.930  20.035  0.00  0.00    +0.000 HD
ENDROOT
BRANCH   2   5
ATOM      5  C   UNL     1       1.044   9.369  19.494  0.00  0.00    +0.000 A 
ATOM      6  C   UNL     1       0.620   9.098  20.790  0.00  0.00    +0.000 A 
ATOM      7  C   UNL     1      -0.078  10.091  21.498  0.00  0.00    +0.000 A 
ATOM      8  C   UNL     1      -0.382  11.314  20.893  0.00  0.00    +0.000 A 
ATOM      9  N   UNL     1      -1.147  12.287  21.510  0.00  0.00    +0.000 N 
ATOM     10  C   UNL     1      -1.899  13.173  20.626  0.00  0.00    +0.000 C 
ATOM     11  C   UNL     1      -1.157  14.485  20.393  0.00  0.00    +0.000 C 
ATOM     12  C   UNL     1      -1.294  15.469  21.550  0.00  0.00    +0.000 C 
ATOM     13  C   UNL     1      -0.802  14.946  22.900  0.00  0.00    +0.000 C 
ATOM     14  C   UNL     1      -1.645  13.795  23.453  0.00  0.00    +0.000 C 
ATOM     15  C   UNL     1      -1.227  12.407  22.956  0.00  0.00    +0.000 C 
ATOM     16  N   UNL     1       0.042  11.565  19.637  0.00  0.00    +0.000 NA
ATOM     17  C   UNL     1       0.750  10.622  18.979  0.00  0.00    +0.000 A 
ENDBRANCH   2   5
BRANCH   1  25
ATOM     18  C   UNL     1       7.458   6.350  16.933  0.00  0.00    +0.000 C 
ATOM     19  C   UNL     1       6.327   5.395  16.871  0.00  0.00    +0.000 A 
ATOM     20  N   UNL     1       6.485   4.201  16.277  0.00  0.00    +0.000 NA
ATOM     21  N   UNL     1       5.278   3.617  16.417  0.00  0.00    +0.000 N 
ATOM     22  C   UNL     1       4.366   4.392  17.068  0.00  0.00    +0.000 A 
ATOM     23  N   UNL     1       3.097   4.058  17.335  0.00  0.00    +0.000 NA
ATOM     24  C   UNL     1       2.439   5.031  18.015  0.00  0.00    +0.000 A 
ATOM     25  C   UNL     1       2.960   6.269  18.423  0.00  0.00    +0.000 A 
ATOM     26  C   UNL     1       4.287   6.563  18.081  0.00  0.00    +0.000 A 
ATOM     27  C   UNL     1       5.015   5.575  17.386  0.00  0.00    +0.000 A 
ATOM     28  H   UNL     1       5.129   2.685  16.052  0.00  0.00    +0.000 HD
ENDBRANCH   1  25
TORSDOF 2
ENDMDL
MODEL 7
REMARK VINA RESULT:      -7.7      7.108      9.107
REMARK  Name = 
REMARK  3 active torsions:
REMARK  status: ('A' for Active; 'I' for Inactive)
REMARK    1  A    between atoms: C_1  and  C_2
REMARK    2  A    between atoms: C_8  and  N_9
REMARK    3  A    between atoms: C_10  and  C_12
REMARK                            x       y       z     vdW  Elec       q    Type
REMARK                         _______ _______ _______ _____ _____    ______ ____
ROOT
ATOM      1  N   UNL     1       2.008   7.611  19.309  0.00  0.00    +0.000 N 
ATOM      2  C   UNL     1       1.763   8.702  18.493  0.00  0.00    +0.000 C 
ATOM      3  O   UNL     1       2.269   8.887  17.388  0.00  0.00    +0.000 OA
ATOM      4  H   UNL     1       1.401   7.448  20.100  0.00  0.00    +0.000 HD
ENDROOT
BRANCH   2   5
ATOM      5  C   UNL     1       0.772   9.701  18.935  0.00  0.00    +0.000 A 
ATOM      6  C   UNL     1      -0.302  10.163  18.183  0.00  0.00    +0.000 A 
ATOM      7  C   UNL     1      -1.195  11.076  18.765  0.00  0.00    +0.000 A 
ATOM      8  C   UNL     1      -0.984  11.548  20.064  0.00  0.00    +0.000 A 
ATOM      9  N   UNL     1      -1.778  12.518  20.650  0.00  0.00    +0.000 N 
ATOM     10  C   UNL     1      -1.138  13.349  21.665  0.00  0.00    +0.000 C 
ATOM     11  C   UNL     1      -1.437  12.838  23.070  0.00  0.00    +0.000 C 
ATOM     12  C   UNL     1      -2.822  13.232  23.573  0.00  0.00    +0.000 C 
ATOM     13  C   UNL     1      -3.983  12.755  22.700  0.00  0.00    +0.000 C 
ATOM     14  C   UNL     1      -4.022  13.418  21.321  0.00  0.00    +0.000 C 
ATOM     15  C   UNL     1      -3.162  12.723  20.259  0.00  0.00    +0.000 C 
ATOM     16  N   UNL     1       0.059  11.086  20.784  0.00  0.00    +0.000 NA
ATOM     17  C   UNL     1       0.889  10.175  20.233  0.00  0.00    +0.000 A 
ENDBRANCH   2   5
BRANCH   1  25
ATOM     18  C   UNL     1       5.501   5.873  15.058  0.00  0.00    +0.000 C 
ATOM     19  C   UNL     1       5.339   5.198  16.368  0.00  0.00    +0.000 A 
ATOM     20  N   UNL     1       6.054   4.097  16.651  0.00  0.00    +0.000 NA
ATOM     21  N   UNL     1       5.657   3.777  17.899  0.00  0.00    +0.000 N 
ATOM     22  C   UNL     1       4.721   4.623  18.412  0.00  0.00    +0.000 A 
ATOM     23  N   UNL     1       4.155   4.531  19.622  0.00  0.00    +0.000 NA
ATOM     24  C   UNL     1       3.270   5.534  19.855  0.00  0.00    +0.000 A 
ATOM     25  C   UNL     1       2.933   6.577  18.979  0.00  0.00    +0.000 A 
ATOM     26  C   UNL     1       3.543   6.591  17.717  0.00  0.00    +0.000 A 
ATOM     27  C   UNL     1       4.481   5.577  17.435  0.00  0.00    +0.000 A 
ATOM     28  H   UNL     1       6.059   2.969  18.359  0.00  0.00    +0.000 HD
ENDBRANCH   1  25
TORSDOF 2
ENDMDL
MODEL 8
REMARK VINA RESULT:      -7.7      7.984     11.317
REMARK  Name = 
REMARK  3 active torsions:
REMARK  status: ('A' for Active; 'I' for Inactive)
REMARK    1  A    between atoms: C_1  and  C_2
REMARK    2  A    between atoms: C_8  and  N_9
REMARK    3  A    between atoms: C_10  and  C_12
REMARK                            x       y       z     vdW  Elec       q    Type
REMARK                         _______ _______ _______ _____ _____    ______ ____
ROOT
ATOM      1  N   UNL     1       0.221  11.328  21.391  0.00  0.00    +0.000 N 
ATOM      2  C   UNL     1       0.160  11.154  20.019  0.00  0.00    +0.000 C 
ATOM      3  O   UNL     1      -0.437  11.893  19.239  0.00  0.00    +0.000 OA
ATOM      4  H   UNL     1       0.894  10.790  21.920  0.00  0.00    +0.000 HD
ENDROOT
BRANCH   2   5
ATOM      5  C   UNL     1       0.917  10.040  19.417  0.00  0.00    +0.000 A 
ATOM      6  C   UNL     1       1.505  10.049  18.158  0.00  0.00    +0.000 A 
ATOM      7  C   UNL     1       2.244   8.928  17.746  0.00  0.00    +0.000 A 
ATOM      8  C   UNL     1       2.349   7.803  18.571  0.00  0.00    +0.000 A 
ATOM      9  N   UNL     1       2.983   6.640  18.177  0.00  0.00    +0.000 N 
ATOM     10  C   UNL     1       2.507   5.405  18.793  0.00  0.00    +0.000 C 
ATOM     11  C   UNL     1       3.385   4.998  19.972  0.00  0.00    +0.000 C 
ATOM     12  C   UNL     1       4.687   4.325  19.551  0.00  0.00    +0.000 C 
ATOM     13  C   UNL     1       5.579   5.166  18.637  0.00  0.00    +0.000 C 
ATOM     14  C   UNL     1       4.972   5.418  17.255  0.00  0.00    +0.000 C 
ATOM     15  C   UNL     1       4.044   6.635  17.183  0.00  0.00    +0.000 C 
ATOM     16  N   UNL     1       1.778   7.812  19.793  0.00  0.00    +0.000 NA
ATOM     17  C   UNL     1       1.105   8.910  20.199  0.00  0.00    +0.000 A 
ENDBRANCH   2   5
BRANCH   1  25
ATOM     18  C   UNL     1      -4.444  12.310  24.640  0.00  0.00    +0.000 C 
ATOM     19  C   UNL     1      -3.433  13.325  24.259  0.00  0.00    +0.000 A 
ATOM     20  N   UNL     1      -3.550  14.589  24.694  0.00  0.00    +0.000 NA
ATOM     21  N   UNL     1      -2.473  15.205  24.167  0.00  0.00    +0.000 N 
ATOM     22  C   UNL     1      -1.686  14.386  23.416  0.00  0.00    +0.000 A 
ATOM     23  N   UNL     1      -0.563  14.741  22.777  0.00  0.00    +0.000 NA
ATOM     24  C   UNL     1       0.012  13.698  22.126  0.00  0.00    +0.000 A 
ATOM     25  C   UNL     1      -0.457  12.376  22.079  0.00  0.00    +0.000 A 
ATOM     26  C   UNL     1      -1.655  12.085  22.746  0.00  0.00    +0.000 A 
ATOM     27  C   UNL     1      -2.281  13.135  23.449  0.00  0.00    +0.000 A 
ATOM     28  H   UNL     1      -2.319  16.189  24.353  0.00  0.00    +0.000 HD
ENDBRANCH   1  25
TORSDOF 2
ENDMDL
MODEL 9
REMARK VINA RESULT:      -7.7      6.736      9.296
REMARK  Name = 
REMARK  3 active torsions:
REMARK  status: ('A' for Active; 'I' for Inactive)
REMARK    1  A    between atoms: C_1  and  C_2
REMARK    2  A    between atoms: C_8  and  N_9
REMARK    3  A    between atoms: C_10  and  C_12
REMARK                            x       y       z     vdW  Elec       q    Type
REMARK                         _______ _______ _______ _____ _____    ______ ____
ROOT
ATOM      1  N   UNL     1       1.992   8.038  18.512  0.00  0.00    +0.000 N 
ATOM      2  C   UNL     1       1.613   8.279  19.821  0.00  0.00    +0.000 C 
ATOM      3  O   UNL     1       1.967   7.614  20.793  0.00  0.00    +0.000 OA
ATOM      4  H   UNL     1       1.814   8.749  17.816  0.00  0.00    +0.000 HD
ENDROOT
BRANCH   2   5
ATOM      5  C   UNL     1       0.772   9.457  20.105  0.00  0.00    +0.000 A 
ATOM      6  C   UNL     1       0.506  10.493  19.217  0.00  0.00    +0.000 A 
ATOM      7  C   UNL     1      -0.364  11.521  19.615  0.00  0.00    +0.000 A 
ATOM      8  C   UNL     1      -0.917  11.527  20.899  0.00  0.00    +0.000 A 
ATOM      9  N   UNL     1      -1.702  12.562  21.373  0.00  0.00    +0.000 N 
ATOM     10  C   UNL     1      -1.685  12.775  22.817  0.00  0.00    +0.000 C 
ATOM     11  C   UNL     1      -2.880  12.106  23.491  0.00  0.00    +0.000 C 
ATOM     12  C   UNL     1      -4.173  12.903  23.355  0.00  0.00    +0.000 C 
ATOM     13  C   UNL     1      -4.608  13.183  21.916  0.00  0.00    +0.000 C 
ATOM     14  C   UNL     1      -3.659  14.119  21.163  0.00  0.00    +0.000 C 
ATOM     15  C   UNL     1      -2.478  13.414  20.487  0.00  0.00    +0.000 C 
ATOM     16  N   UNL     1      -0.655  10.512  21.747  0.00  0.00    +0.000 NA
ATOM     17  C   UNL     1       0.148   9.504  21.342  0.00  0.00    +0.000 A 
ENDBRANCH   2   5
BRANCH   1  25
ATOM     18  C   UNL     1       1.978   2.276  18.227  0.00  0.00    +0.000 C 
ATOM     19  C   UNL     1       3.090   3.156  17.792  0.00  0.00    +0.000 A 
ATOM     20  N   UNL     1       4.202   2.623  17.262  0.00  0.00    +0.000 NA
ATOM     21  N   UNL     1       4.966   3.699  16.986  0.00  0.00    +0.000 N 
ATOM     22  C   UNL     1       4.386   4.885  17.323  0.00  0.00    +0.000 A 
ATOM     23  N   UNL     1       4.926   6.100  17.163  0.00  0.00    +0.000 NA
ATOM     24  C   UNL     1       4.097   7.092  17.577  0.00  0.00    +0.000 A 
ATOM     25  C   UNL     1       2.813   6.940  18.122  0.00  0.00    +0.000 A 
ATOM     26  C   UNL     1       2.325   5.636  18.289  0.00  0.00    +0.000 A 
ATOM     27  C   UNL     1       3.146   4.573  17.859  0.00  0.00    +0.000 A 
ATOM     28  H   UNL     1       5.877   3.570  16.563  0.00  0.00    +0.000 HD
ENDBRANCH   1  25
TORSDOF 2
ENDMDL
