MODEL 1
REMARK VINA RESULT:      -8.4      0.000      0.000
REMARK  Name = 
REMARK  4 active torsions:
REMARK  status: ('A' for Active; 'I' for Inactive)
REMARK    1  A    between atoms: C_2  and  C_15
REMARK    2  A    between atoms: N_3  and  C_4
REMARK    3  A    between atoms: C_8  and  C_9
REMARK    4  A    between atoms: N_18  and  C_19
REMARK                            x       y       z     vdW  Elec       q    Type
REMARK                         _______ _______ _______ _____ _____    ______ ____
ROOT
ATOM      1  O   UNL     1       2.277   6.315  18.007  0.00  0.00    +0.000 OA
ATOM      2  C   UNL     1       2.353   6.578  19.205  0.00  0.00    +0.000 C 
ATOM      3  N   UNL     1       2.932   5.786  20.179  0.00  0.00    +0.000 N 
ATOM      4  H   UNL     1       2.920   6.142  21.136  0.00  0.00    +0.000 HD
ENDROOT
BRANCH   3   5
ATOM      5  C   UNL     1       3.511   4.547  19.979  0.00  0.00    +0.000 A 
ATOM      6  C   UNL     1       2.979   3.321  20.293  0.00  0.00    +0.000 A 
ATOM      7  N   UNL     1       3.901   2.398  19.919  0.00  0.00    +0.000 N 
ATOM      8  N   UNL     1       5.011   2.927  19.390  0.00  0.00    +0.000 NA
ATOM      9  C   UNL     1       4.799   4.260  19.417  0.00  0.00    +0.000 A 
ATOM     10  H   UNL     1       3.839   1.389  20.000  0.00  0.00    +0.000 HD
BRANCH   9  11
ATOM     11  C   UNL     1       5.816   5.209  18.927  0.00  0.00    +0.000 A 
ATOM     12  C   UNL     1       5.593   5.940  17.758  0.00  0.00    +0.000 A 
ATOM     13  C   UNL     1       6.575   6.817  17.307  0.00  0.00    +0.000 A 
ATOM     14  C   UNL     1       7.750   6.946  18.033  0.00  0.00    +0.000 A 
ATOM     15  C   UNL     1       7.895   6.188  19.185  0.00  0.00    +0.000 A 
ATOM     16  N   UNL     1       6.963   5.324  19.651  0.00  0.00    +0.000 NA
ENDBRANCH   9  11
ENDBRANCH   3   5
BRANCH   2  17
ATOM     17  C   UNL     1       1.792   7.825  19.748  0.00  0.00    +0.000 A 
ATOM     18  C   UNL     1       1.473   8.082  21.101  0.00  0.00    +0.000 A 
ATOM     19  C   UNL     1       1.006   9.372  21.123  0.00  0.00    +0.000 A 
ATOM     20  N   UNL     1       1.031   9.839  19.828  0.00  0.00    +0.000 N 
ATOM     21  N   UNL     1       1.521   8.892  18.977  0.00  0.00    +0.000 NA
BRANCH  20  22
ATOM     22  C   UNL     1       0.612  11.100  19.325  0.00  0.00    +0.000 A 
ATOM     23  C   UNL     1       1.551  12.142  19.212  0.00  0.00    +0.000 A 
ATOM     24  C   UNL     1       1.173  13.382  18.688  0.00  0.00    +0.000 A 
ATOM     25  C   UNL     1      -0.141  13.599  18.280  0.00  0.00    +0.000 A 
ATOM     26  C   UNL     1      -1.080  12.577  18.404  0.00  0.00    +0.000 A 
ATOM     27  C   UNL     1      -0.704  11.338  18.924  0.00  0.00    +0.000 A 
ATOM     28  F   UNL     1      -1.662  10.407  19.025  0.00  0.00    +0.000 F 
ENDBRANCH  20  22
ENDBRANCH   2  17
TORSDOF 4
ENDMDL
MODEL 2
REMARK VINA RESULT:      -8.4      2.147      2.589
REMARK  Name = 
REMARK  4 active torsions:
REMARK  status: ('A' for Active; 'I' for Inactive)
REMARK    1  A    between atoms: C_2  and  C_15
REMARK    2  A    between atoms: N_3  and  C_4
REMARK    3  A    between atoms: C_8  and  C_9
REMARK    4  A    between atoms: N_18  and  C_19
REMARK                            x       y       z     vdW  Elec       q    Type
REMARK                         _______ _______ _______ _____ _____    ______ ____
ROOT
ATOM      1  O   UNL     1       3.860   5.789  19.851  0.00  0.00    +0.000 OA
ATOM      2  C   UNL     1       2.874   6.014  19.153  0.00  0.00    +0.000 C 
ATOM      3  N   UNL     1       2.205   5.097  18.366  0.00  0.00    +0.000 N 
ATOM      4  H   UNL     1       1.397   5.435  17.840  0.00  0.00    +0.000 HD
ENDROOT
BRANCH   3   5
ATOM      5  C   UNL     1       2.540   3.765  18.209  0.00  0.00    +0.000 A 
ATOM      6  C   UNL     1       1.803   2.673  18.597  0.00  0.00    +0.000 A 
ATOM      7  N   UNL     1       2.526   1.580  18.241  0.00  0.00    +0.000 N 
ATOM      8  N   UNL     1       3.693   1.872  17.654  0.00  0.00    +0.000 NA
ATOM      9  C   UNL     1       3.731   3.221  17.623  0.00  0.00    +0.000 A 
ATOM     10  H   UNL     1       2.282   0.604  18.373  0.00  0.00    +0.000 HD
BRANCH   9  11
ATOM     11  C   UNL     1       4.885   3.944  17.058  0.00  0.00    +0.000 A 
ATOM     12  C   UNL     1       4.875   4.355  15.724  0.00  0.00    +0.000 A 
ATOM     13  C   UNL     1       5.983   5.021  15.210  0.00  0.00    +0.000 A 
ATOM     14  C   UNL     1       7.070   5.263  16.037  0.00  0.00    +0.000 A 
ATOM     15  C   UNL     1       7.002   4.827  17.352  0.00  0.00    +0.000 A 
ATOM     16  N   UNL     1       5.943   4.174  17.884  0.00  0.00    +0.000 NA
ENDBRANCH   9  11
ENDBRANCH   3   5
BRANCH   2  17
ATOM     17  C   UNL     1       2.288   7.362  19.075  0.00  0.00    +0.000 A 
ATOM     18  C   UNL     1       2.218   8.181  17.926  0.00  0.00    +0.000 A 
ATOM     19  C   UNL     1       1.572   9.321  18.334  0.00  0.00    +0.000 A 
ATOM     20  N   UNL     1       1.299   9.180  19.676  0.00  0.00    +0.000 N 
ATOM     21  N   UNL     1       1.731   7.971  20.136  0.00  0.00    +0.000 NA
BRANCH  20  22
ATOM     22  C   UNL     1       0.678  10.100  20.563  0.00  0.00    +0.000 A 
ATOM     23  C   UNL     1       0.927  11.476  20.411  0.00  0.00    +0.000 A 
ATOM     24  C   UNL     1       0.302  12.405  21.249  0.00  0.00    +0.000 A 
ATOM     25  C   UNL     1      -0.569  11.974  22.247  0.00  0.00    +0.000 A 
ATOM     26  C   UNL     1      -0.808  10.611  22.413  0.00  0.00    +0.000 A 
ATOM     27  C   UNL     1      -0.187   9.683  21.576  0.00  0.00    +0.000 A 
ATOM     28  F   UNL     1      -0.455   8.390  21.801  0.00  0.00    +0.000 F 
ENDBRANCH  20  22
ENDBRANCH   2  17
TORSDOF 4
ENDMDL
MODEL 3
REMARK VINA RESULT:      -8.3      1.940      2.211
REMARK  Name = 
REMARK  4 active torsions:
REMARK  status: ('A' for Active; 'I' for Inactive)
REMARK    1  A    between atoms: C_2  and  C_15
REMARK    2  A    between atoms: N_3  and  C_4
REMARK    3  A    between atoms: C_8  and  C_9
REMARK    4  A    between atoms: N_18  and  C_19
REMARK                            x       y       z     vdW  Elec       q    Type
REMARK                         _______ _______ _______ _____ _____    ______ ____
ROOT
ATOM      1  O   UNL     1       3.269   5.955  20.057  0.00  0.00    +0.000 OA
ATOM      2  C   UNL     1       2.577   6.247  19.086  0.00  0.00    +0.000 C 
ATOM      3  N   UNL     1       2.086   5.369  18.139  0.00  0.00    +0.000 N 
ATOM      4  H   UNL     1       1.520   5.763  17.385  0.00  0.00    +0.000 HD
ENDROOT
BRANCH   3   5
ATOM      5  C   UNL     1       2.304   4.004  18.108  0.00  0.00    +0.000 A 
ATOM      6  C   UNL     1       1.414   3.013  18.441  0.00  0.00    +0.000 A 
ATOM      7  N   UNL     1       2.066   1.837  18.257  0.00  0.00    +0.000 N 
ATOM      8  N   UNL     1       3.329   1.980  17.837  0.00  0.00    +0.000 NA
ATOM      9  C   UNL     1       3.506   3.315  17.737  0.00  0.00    +0.000 A 
ATOM     10  H   UNL     1       1.710   0.898  18.405  0.00  0.00    +0.000 HD
BRANCH   9  11
ATOM     11  C   UNL     1       4.796   3.889  17.313  0.00  0.00    +0.000 A 
ATOM     12  C   UNL     1       5.079   4.059  15.956  0.00  0.00    +0.000 A 
ATOM     13  C   UNL     1       6.311   4.587  15.580  0.00  0.00    +0.000 A 
ATOM     14  C   UNL     1       7.225   4.935  16.563  0.00  0.00    +0.000 A 
ATOM     15  C   UNL     1       6.868   4.739  17.889  0.00  0.00    +0.000 A 
ATOM     16  N   UNL     1       5.682   4.225  18.290  0.00  0.00    +0.000 NA
ENDBRANCH   9  11
ENDBRANCH   3   5
BRANCH   2  17
ATOM     17  C   UNL     1       2.194   7.643  18.815  0.00  0.00    +0.000 A 
ATOM     18  C   UNL     1       2.586   8.420  17.702  0.00  0.00    +0.000 A 
ATOM     19  C   UNL     1       1.969   9.633  17.873  0.00  0.00    +0.000 A 
ATOM     20  N   UNL     1       1.264   9.572  19.054  0.00  0.00    +0.000 N 
ATOM     21  N   UNL     1       1.393   8.345  19.635  0.00  0.00    +0.000 NA
BRANCH  20  22
ATOM     22  C   UNL     1       0.492  10.583  19.687  0.00  0.00    +0.000 A 
ATOM     23  C   UNL     1       1.121  11.470  20.579  0.00  0.00    +0.000 A 
ATOM     24  C   UNL     1       0.391  12.496  21.190  0.00  0.00    +0.000 A 
ATOM     25  C   UNL     1      -0.968  12.642  20.924  0.00  0.00    +0.000 A 
ATOM     26  C   UNL     1      -1.601  11.757  20.054  0.00  0.00    +0.000 A 
ATOM     27  C   UNL     1      -0.874  10.735  19.441  0.00  0.00    +0.000 A 
ATOM     28  F   UNL     1      -1.550   9.915  18.626  0.00  0.00    +0.000 F 
ENDBRANCH  20  22
ENDBRANCH   2  17
TORSDOF 4
ENDMDL
MODEL 4
REMARK VINA RESULT:      -8.3      2.175      2.635
REMARK  Name = 
REMARK  4 active torsions:
REMARK  status: ('A' for Active; 'I' for Inactive)
REMARK    1  A    between atoms: C_2  and  C_15
REMARK    2  A    between atoms: N_3  and  C_4
REMARK    3  A    between atoms: C_8  and  C_9
REMARK    4  A    between atoms: N_18  and  C_19
REMARK                            x       y       z     vdW  Elec       q    Type
REMARK                         _______ _______ _______ _____ _____    ______ ____
ROOT
ATOM      1  O   UNL     1       3.483   5.815  20.032  0.00  0.00    +0.000 OA
ATOM      2  C   UNL     1       2.667   6.108  19.161  0.00  0.00    +0.000 C 
ATOM      3  N   UNL     1       2.112   5.243  18.238  0.00  0.00    +0.000 N 
ATOM      4  H   UNL     1       1.443   5.636  17.574  0.00  0.00    +0.000 HD
ENDROOT
BRANCH   3   5
ATOM      5  C   UNL     1       2.392   3.894  18.119  0.00  0.00    +0.000 A 
ATOM      6  C   UNL     1       1.569   2.844  18.443  0.00  0.00    +0.000 A 
ATOM      7  N   UNL     1       2.265   1.713  18.159  0.00  0.00    +0.000 N 
ATOM      8  N   UNL     1       3.494   1.941  17.681  0.00  0.00    +0.000 NA
ATOM      9  C   UNL     1       3.603   3.287  17.647  0.00  0.00    +0.000 A 
ATOM     10  H   UNL     1       1.962   0.752  18.273  0.00  0.00    +0.000 HD
BRANCH   9  11
ATOM     11  C   UNL     1       4.839   3.946  17.188  0.00  0.00    +0.000 A 
ATOM     12  C   UNL     1       5.013   4.253  15.837  0.00  0.00    +0.000 A 
ATOM     13  C   UNL     1       6.196   4.860  15.426  0.00  0.00    +0.000 A 
ATOM     14  C   UNL     1       7.171   5.149  16.370  0.00  0.00    +0.000 A 
ATOM     15  C   UNL     1       6.922   4.816  17.692  0.00  0.00    +0.000 A 
ATOM     16  N   UNL     1       5.786   4.223  18.127  0.00  0.00    +0.000 NA
ENDBRANCH   9  11
ENDBRANCH   3   5
BRANCH   2  17
ATOM     17  C   UNL     1       2.187   7.491  19.001  0.00  0.00    +0.000 A 
ATOM     18  C   UNL     1       2.222   8.259  17.816  0.00  0.00    +0.000 A 
ATOM     19  C   UNL     1       1.650   9.461  18.148  0.00  0.00    +0.000 A 
ATOM     20  N   UNL     1       1.316   9.402  19.482  0.00  0.00    +0.000 N 
ATOM     21  N   UNL     1       1.639   8.187  20.012  0.00  0.00    +0.000 NA
BRANCH  20  22
ATOM     22  C   UNL     1       0.734  10.405  20.303  0.00  0.00    +0.000 A 
ATOM     23  C   UNL     1      -0.231  10.038  21.259  0.00  0.00    +0.000 A 
ATOM     24  C   UNL     1      -0.794  11.001  22.103  0.00  0.00    +0.000 A 
ATOM     25  C   UNL     1      -0.408  12.335  21.999  0.00  0.00    +0.000 A 
ATOM     26  C   UNL     1       0.534  12.708  21.044  0.00  0.00    +0.000 A 
ATOM     27  C   UNL     1       1.100  11.749  20.203  0.00  0.00    +0.000 A 
ATOM     28  F   UNL     1       1.991  12.182  19.301  0.00  0.00    +0.000 F 
ENDBRANCH  20  22
ENDBRANCH   2  17
TORSDOF 4
ENDMDL
MODEL 5
REMARK VINA RESULT:      -8.2      0.957      1.306
REMARK  Name = 
REMARK  4 active torsions:
REMARK  status: ('A' for Active; 'I' for Inactive)
REMARK    1  A    between atoms: C_2  and  C_15
REMARK    2  A    between atoms: N_3  and  C_4
REMARK    3  A    between atoms: C_8  and  C_9
REMARK    4  A    between atoms: N_18  and  C_19
REMARK                            x       y       z     vdW  Elec       q    Type
REMARK                         _______ _______ _______ _____ _____    ______ ____
ROOT
ATOM      1  O   UNL     1       2.200   6.392  18.076  0.00  0.00    +0.000 OA
ATOM      2  C   UNL     1       2.306   6.639  19.274  0.00  0.00    +0.000 C 
ATOM      3  N   UNL     1       2.900   5.832  20.225  0.00  0.00    +0.000 N 
ATOM      4  H   UNL     1       2.913   6.176  21.187  0.00  0.00    +0.000 HD
ENDROOT
BRANCH   3   5
ATOM      5  C   UNL     1       3.464   4.590  19.999  0.00  0.00    +0.000 A 
ATOM      6  C   UNL     1       2.923   3.365  20.300  0.00  0.00    +0.000 A 
ATOM      7  N   UNL     1       3.831   2.438  19.899  0.00  0.00    +0.000 N 
ATOM      8  N   UNL     1       4.939   2.965  19.363  0.00  0.00    +0.000 NA
ATOM      9  C   UNL     1       4.741   4.300  19.413  0.00  0.00    +0.000 A 
ATOM     10  H   UNL     1       3.760   1.429  19.965  0.00  0.00    +0.000 HD
BRANCH   9  11
ATOM     11  C   UNL     1       5.760   5.246  18.924  0.00  0.00    +0.000 A 
ATOM     12  C   UNL     1       5.525   6.004  17.776  0.00  0.00    +0.000 A 
ATOM     13  C   UNL     1       6.509   6.878  17.324  0.00  0.00    +0.000 A 
ATOM     14  C   UNL     1       7.699   6.977  18.031  0.00  0.00    +0.000 A 
ATOM     15  C   UNL     1       7.856   6.194  19.164  0.00  0.00    +0.000 A 
ATOM     16  N   UNL     1       6.922   5.331  19.629  0.00  0.00    +0.000 NA
ENDBRANCH   9  11
ENDBRANCH   3   5
BRANCH   2  17
ATOM     17  C   UNL     1       1.769   7.885  19.845  0.00  0.00    +0.000 A 
ATOM     18  C   UNL     1       1.515   8.141  21.212  0.00  0.00    +0.000 A 
ATOM     19  C   UNL     1       1.045   9.430  21.256  0.00  0.00    +0.000 A 
ATOM     20  N   UNL     1       1.006   9.897  19.962  0.00  0.00    +0.000 N 
ATOM     21  N   UNL     1       1.457   8.952  19.089  0.00  0.00    +0.000 NA
BRANCH  20  22
ATOM     22  C   UNL     1       0.560  11.157  19.481  0.00  0.00    +0.000 A 
ATOM     23  C   UNL     1      -0.540  11.210  18.606  0.00  0.00    +0.000 A 
ATOM     24  C   UNL     1      -1.021  12.440  18.145  0.00  0.00    +0.000 A 
ATOM     25  C   UNL     1      -0.407  13.625  18.544  0.00  0.00    +0.000 A 
ATOM     26  C   UNL     1       0.692  13.580  19.397  0.00  0.00    +0.000 A 
ATOM     27  C   UNL     1       1.171  12.354  19.861  0.00  0.00    +0.000 A 
ATOM     28  F   UNL     1       2.239  12.386  20.669  0.00  0.00    +0.000 F 
ENDBRANCH  20  22
ENDBRANCH   2  17
TORSDOF 4
ENDMDL
MODEL 6
REMARK VINA RESULT:      -8.1      2.135      2.525
REMARK  Name = 
REMARK  4 active torsions:
REMARK  status: ('A' for Active; 'I' for Inactive)
REMARK    1  A    between atoms: C_2  and  C_15
REMARK    2  A    between atoms: N_3  and  C_4
REMARK    3  A    between atoms: C_8  and  C_9
REMARK    4  A    between atoms: N_18  and  C_19
REMARK                            x       y       z     vdW  Elec       q    Type
REMARK                         _______ _______ _______ _____ _____    ______ ____
ROOT
ATOM      1  O   UNL     1       2.355   5.372  20.848  0.00  0.00    +0.000 OA
ATOM      2  C   UNL     1       2.137   5.923  19.772  0.00  0.00    +0.000 C 
ATOM      3  N   UNL     1       2.202   5.332  18.525  0.00  0.00    +0.000 N 
ATOM      4  H   UNL     1       1.991   5.922  17.718  0.00  0.00    +0.000 HD
ENDROOT
BRANCH   3   5
ATOM      5  C   UNL     1       2.542   4.017  18.266  0.00  0.00    +0.000 A 
ATOM      6  C   UNL     1       1.693   2.941  18.179  0.00  0.00    +0.000 A 
ATOM      7  N   UNL     1       2.471   1.862  17.912  0.00  0.00    +0.000 N 
ATOM      8  N   UNL     1       3.777   2.146  17.826  0.00  0.00    +0.000 NA
ATOM      9  C   UNL     1       3.852   3.476  18.044  0.00  0.00    +0.000 A 
ATOM     10  H   UNL     1       2.177   0.901  17.780  0.00  0.00    +0.000 HD
BRANCH   9  11
ATOM     11  C   UNL     1       5.146   4.182  18.049  0.00  0.00    +0.000 A 
ATOM     12  C   UNL     1       5.951   4.184  16.908  0.00  0.00    +0.000 A 
ATOM     13  C   UNL     1       7.177   4.842  16.943  0.00  0.00    +0.000 A 
ATOM     14  C   UNL     1       7.565   5.486  18.109  0.00  0.00    +0.000 A 
ATOM     15  C   UNL     1       6.708   5.442  19.198  0.00  0.00    +0.000 A 
ATOM     16  N   UNL     1       5.512   4.808  19.201  0.00  0.00    +0.000 NA
ENDBRANCH   9  11
ENDBRANCH   3   5
BRANCH   2  17
ATOM     17  C   UNL     1       1.780   7.349  19.705  0.00  0.00    +0.000 A 
ATOM     18  C   UNL     1       2.030   8.227  18.626  0.00  0.00    +0.000 A 
ATOM     19  C   UNL     1       1.502   9.433  19.013  0.00  0.00    +0.000 A 
ATOM     20  N   UNL     1       0.985   9.269  20.278  0.00  0.00    +0.000 N 
ATOM     21  N   UNL     1       1.148   7.984  20.707  0.00  0.00    +0.000 NA
BRANCH  20  22
ATOM     22  C   UNL     1       0.367  10.230  21.122  0.00  0.00    +0.000 A 
ATOM     23  C   UNL     1       0.580  11.599  20.879  0.00  0.00    +0.000 A 
ATOM     24  C   UNL     1      -0.044  12.565  21.674  0.00  0.00    +0.000 A 
ATOM     25  C   UNL     1      -0.878  12.179  22.720  0.00  0.00    +0.000 A 
ATOM     26  C   UNL     1      -1.082  10.825  22.977  0.00  0.00    +0.000 A 
ATOM     27  C   UNL     1      -0.462   9.859  22.183  0.00  0.00    +0.000 A 
ATOM     28  F   UNL     1      -0.694   8.577  22.496  0.00  0.00    +0.000 F 
ENDBRANCH  20  22
ENDBRANCH   2  17
TORSDOF 4
ENDMDL
MODEL 7
REMARK VINA RESULT:      -8.1      2.002      2.583
REMARK  Name = 
REMARK  4 active torsions:
REMARK  status: ('A' for Active; 'I' for Inactive)
REMARK    1  A    between atoms: C_2  and  C_15
REMARK    2  A    between atoms: N_3  and  C_4
REMARK    3  A    between atoms: C_8  and  C_9
REMARK    4  A    between atoms: N_18  and  C_19
REMARK                            x       y       z     vdW  Elec       q    Type
REMARK                         _______ _______ _______ _____ _____    ______ ____
ROOT
ATOM      1  O   UNL     1       2.605   5.219  20.933  0.00  0.00    +0.000 OA
ATOM      2  C   UNL     1       2.251   5.732  19.874  0.00  0.00    +0.000 C 
ATOM      3  N   UNL     1       2.206   5.111  18.641  0.00  0.00    +0.000 N 
ATOM      4  H   UNL     1       1.887   5.672  17.848  0.00  0.00    +0.000 HD
ENDROOT
BRANCH   3   5
ATOM      5  C   UNL     1       2.568   3.804  18.376  0.00  0.00    +0.000 A 
ATOM      6  C   UNL     1       1.743   2.707  18.327  0.00  0.00    +0.000 A 
ATOM      7  N   UNL     1       2.537   1.645  18.036  0.00  0.00    +0.000 N 
ATOM      8  N   UNL     1       3.831   1.960  17.901  0.00  0.00    +0.000 NA
ATOM      9  C   UNL     1       3.882   3.293  18.109  0.00  0.00    +0.000 A 
ATOM     10  H   UNL     1       2.262   0.676  17.920  0.00  0.00    +0.000 HD
BRANCH   9  11
ATOM     11  C   UNL     1       5.158   4.030  18.063  0.00  0.00    +0.000 A 
ATOM     12  C   UNL     1       5.884   4.107  16.873  0.00  0.00    +0.000 A 
ATOM     13  C   UNL     1       7.094   4.794  16.859  0.00  0.00    +0.000 A 
ATOM     14  C   UNL     1       7.547   5.389  18.027  0.00  0.00    +0.000 A 
ATOM     15  C   UNL     1       6.766   5.272  19.167  0.00  0.00    +0.000 A 
ATOM     16  N   UNL     1       5.588   4.609  19.218  0.00  0.00    +0.000 NA
ENDBRANCH   9  11
ENDBRANCH   3   5
BRANCH   2  17
ATOM     17  C   UNL     1       1.833   7.142  19.814  0.00  0.00    +0.000 A 
ATOM     18  C   UNL     1       2.184   8.080  18.817  0.00  0.00    +0.000 A 
ATOM     19  C   UNL     1       1.545   9.241  19.172  0.00  0.00    +0.000 A 
ATOM     20  N   UNL     1       0.867   8.994  20.345  0.00  0.00    +0.000 N 
ATOM     21  N   UNL     1       1.035   7.700  20.741  0.00  0.00    +0.000 NA
BRANCH  20  22
ATOM     22  C   UNL     1       0.088   9.885  21.131  0.00  0.00    +0.000 A 
ATOM     23  C   UNL     1      -0.185   9.560  22.472  0.00  0.00    +0.000 A 
ATOM     24  C   UNL     1      -0.921  10.435  23.278  0.00  0.00    +0.000 A 
ATOM     25  C   UNL     1      -1.395  11.636  22.755  0.00  0.00    +0.000 A 
ATOM     26  C   UNL     1      -1.142  11.957  21.423  0.00  0.00    +0.000 A 
ATOM     27  C   UNL     1      -0.406  11.086  20.619  0.00  0.00    +0.000 A 
ATOM     28  F   UNL     1      -0.212  11.455  19.346  0.00  0.00    +0.000 F 
ENDBRANCH  20  22
ENDBRANCH   2  17
TORSDOF 4
ENDMDL
MODEL 8
REMARK VINA RESULT:      -8.1      2.222      2.903
REMARK  Name = 
REMARK  4 active torsions:
REMARK  status: ('A' for Active; 'I' for Inactive)
REMARK    1  A    between atoms: C_2  and  C_15
REMARK    2  A    between atoms: N_3  and  C_4
REMARK    3  A    between atoms: C_8  and  C_9
REMARK    4  A    between atoms: N_18  and  C_19
REMARK                            x       y       z     vdW  Elec       q    Type
REMARK                         _______ _______ _______ _____ _____    ______ ____
ROOT
ATOM      1  O   UNL     1       3.727   5.666  20.083  0.00  0.00    +0.000 OA
ATOM      2  C   UNL     1       2.782   5.934  19.345  0.00  0.00    +0.000 C 
ATOM      3  N   UNL     1       2.157   5.065  18.472  0.00  0.00    +0.000 N 
ATOM      4  H   UNL     1       1.380   5.435  17.922  0.00  0.00    +0.000 HD
ENDROOT
BRANCH   3   5
ATOM      5  C   UNL     1       2.497   3.741  18.261  0.00  0.00    +0.000 A 
ATOM      6  C   UNL     1       1.763   2.631  18.597  0.00  0.00    +0.000 A 
ATOM      7  N   UNL     1       2.492   1.557  18.200  0.00  0.00    +0.000 N 
ATOM      8  N   UNL     1       3.661   1.878  17.633  0.00  0.00    +0.000 NA
ATOM      9  C   UNL     1       3.694   3.228  17.660  0.00  0.00    +0.000 A 
ATOM     10  H   UNL     1       2.251   0.576  18.288  0.00  0.00    +0.000 HD
BRANCH   9  11
ATOM     11  C   UNL     1       4.849   3.978  17.134  0.00  0.00    +0.000 A 
ATOM     12  C   UNL     1       5.922   4.295  17.969  0.00  0.00    +0.000 A 
ATOM     13  C   UNL     1       6.994   5.019  17.453  0.00  0.00    +0.000 A 
ATOM     14  C   UNL     1       6.970   5.404  16.120  0.00  0.00    +0.000 A 
ATOM     15  C   UNL     1       5.869   5.048  15.355  0.00  0.00    +0.000 A 
ATOM     16  N   UNL     1       4.810   4.348  15.824  0.00  0.00    +0.000 NA
ENDBRANCH   9  11
ENDBRANCH   3   5
BRANCH   2  17
ATOM     17  C   UNL     1       2.203   7.287  19.309  0.00  0.00    +0.000 A 
ATOM     18  C   UNL     1       2.208   8.172  18.207  0.00  0.00    +0.000 A 
ATOM     19  C   UNL     1       1.538   9.289  18.640  0.00  0.00    +0.000 A 
ATOM     20  N   UNL     1       1.179   9.071  19.950  0.00  0.00    +0.000 N 
ATOM     21  N   UNL     1       1.580   7.835  20.366  0.00  0.00    +0.000 NA
BRANCH  20  22
ATOM     22  C   UNL     1       0.504   9.941  20.848  0.00  0.00    +0.000 A 
ATOM     23  C   UNL     1      -0.151   9.399  21.970  0.00  0.00    +0.000 A 
ATOM     24  C   UNL     1      -0.793  10.235  22.888  0.00  0.00    +0.000 A 
ATOM     25  C   UNL     1      -0.797  11.615  22.695  0.00  0.00    +0.000 A 
ATOM     26  C   UNL     1      -0.165  12.157  21.578  0.00  0.00    +0.000 A 
ATOM     27  C   UNL     1       0.480  11.324  20.662  0.00  0.00    +0.000 A 
ATOM     28  F   UNL     1       1.056  11.914  19.607  0.00  0.00    +0.000 F 
ENDBRANCH  20  22
ENDBRANCH   2  17
TORSDOF 4
ENDMDL
MODEL 9
REMARK VINA RESULT:      -8.1      1.657      2.332
REMARK  Name = 
REMARK  4 active torsions:
REMARK  status: ('A' for Active; 'I' for Inactive)
REMARK    1  A    between atoms: C_2  and  C_15
REMARK    2  A    between atoms: N_3  and  C_4
REMARK    3  A    between atoms: C_8  and  C_9
REMARK    4  A    between atoms: N_18  and  C_19
REMARK                            x       y       z     vdW  Elec       q    Type
REMARK                         _______ _______ _______ _____ _____    ______ ____
ROOT
ATOM      1  O   UNL     1       2.388   6.293  17.543  0.00  0.00    +0.000 OA
ATOM      2  C   UNL     1       2.393   6.762  18.678  0.00  0.00    +0.000 C 
ATOM      3  N   UNL     1       2.864   6.138  19.817  0.00  0.00    +0.000 N 
ATOM      4  H   UNL     1       2.803   6.658  20.694  0.00  0.00    +0.000 HD
ENDROOT
BRANCH   3   5
ATOM      5  C   UNL     1       3.398   4.864  19.883  0.00  0.00    +0.000 A 
ATOM      6  C   UNL     1       2.781   3.728  20.344  0.00  0.00    +0.000 A 
ATOM      7  N   UNL     1       3.686   2.724  20.218  0.00  0.00    +0.000 N 
ATOM      8  N   UNL     1       4.863   3.118  19.716  0.00  0.00    +0.000 NA
ATOM      9  C   UNL     1       4.715   4.443  19.500  0.00  0.00    +0.000 A 
ATOM     10  H   UNL     1       3.568   1.746  20.460  0.00  0.00    +0.000 HD
BRANCH   9  11
ATOM     11  C   UNL     1       5.816   5.260  18.959  0.00  0.00    +0.000 A 
ATOM     12  C   UNL     1       5.694   5.864  17.706  0.00  0.00    +0.000 A 
ATOM     13  C   UNL     1       6.754   6.617  17.208  0.00  0.00    +0.000 A 
ATOM     14  C   UNL     1       7.904   6.752  17.973  0.00  0.00    +0.000 A 
ATOM     15  C   UNL     1       7.947   6.124  19.209  0.00  0.00    +0.000 A 
ATOM     16  N   UNL     1       6.937   5.382  19.721  0.00  0.00    +0.000 NA
ENDBRANCH   9  11
ENDBRANCH   3   5
BRANCH   2  17
ATOM     17  C   UNL     1       1.854   8.105  18.950  0.00  0.00    +0.000 A 
ATOM     18  C   UNL     1       2.027   9.256  18.149  0.00  0.00    +0.000 A 
ATOM     19  C   UNL     1       1.330  10.250  18.791  0.00  0.00    +0.000 A 
ATOM     20  N   UNL     1       0.793   9.702  19.934  0.00  0.00    +0.000 N 
ATOM     21  N   UNL     1       1.107   8.378  20.034  0.00  0.00    +0.000 NA
BRANCH  20  22
ATOM     22  C   UNL     1       0.023  10.330  20.949  0.00  0.00    +0.000 A 
ATOM     23  C   UNL     1      -0.801  11.420  20.613  0.00  0.00    +0.000 A 
ATOM     24  C   UNL     1      -1.595  12.034  21.587  0.00  0.00    +0.000 A 
ATOM     25  C   UNL     1      -1.572  11.575  22.901  0.00  0.00    +0.000 A 
ATOM     26  C   UNL     1      -0.747  10.506  23.245  0.00  0.00    +0.000 A 
ATOM     27  C   UNL     1       0.044   9.890  22.274  0.00  0.00    +0.000 A 
ATOM     28  F   UNL     1       0.821   8.876  22.679  0.00  0.00    +0.000 F 
ENDBRANCH  20  22
ENDBRANCH   2  17
TORSDOF 4
ENDMDL
