MODEL 1
REMARK VINA RESULT:      -8.4      0.000      0.000
REMARK  Name = 
REMARK  3 active torsions:
REMARK  status: ('A' for Active; 'I' for Inactive)
REMARK    1  A    between atoms: C_2  and  C_10
REMARK    2  A    between atoms: C_14  and  S_15
REMARK    3  A    between atoms: S_15  and  N_18
REMARK                            x       y       z     vdW  Elec       q    Type
REMARK                         _______ _______ _______ _____ _____    ______ ____
ROOT
ATOM      1  C   UNL     1       7.952   7.933  18.218  0.00  0.00    +0.000 A 
ATOM      2  C   UNL     1       8.419   7.037  19.188  0.00  0.00    +0.000 A 
ATOM      3  C   UNL     1       8.005   5.702  19.162  0.00  0.00    +0.000 A 
ATOM      4  C   UNL     1       7.121   5.261  18.173  0.00  0.00    +0.000 A 
ATOM      5  C   UNL     1       6.666   6.157  17.200  0.00  0.00    +0.000 A 
ATOM      6  C   UNL     1       7.079   7.493  17.217  0.00  0.00    +0.000 A 
ENDROOT
BRANCH   1   8
ATOM      7  O   UNL     1       8.046  10.108  17.361  0.00  0.00    +0.000 OA
ATOM      8  C   UNL     1       8.388   9.352  18.262  0.00  0.00    +0.000 C 
ATOM      9  N   UNL     1       9.228   9.661  19.311  0.00  0.00    +0.000 N 
ATOM     10  C   UNL     1       9.785  10.926  19.505  0.00  0.00    +0.000 A 
ATOM     11  C   UNL     1       9.035  12.089  19.373  0.00  0.00    +0.000 A 
ATOM     12  C   UNL     1       9.663  13.313  19.588  0.00  0.00    +0.000 A 
ATOM     13  C   UNL     1      11.020  13.338  19.883  0.00  0.00    +0.000 A 
ATOM     14  C   UNL     1      11.681  12.127  20.007  0.00  0.00    +0.000 A 
ATOM     15  N   UNL     1      11.083  10.923  19.870  0.00  0.00    +0.000 NA
ATOM     16  H   UNL     1       9.794   8.917  19.698  0.00  0.00    +0.000 HD
ENDBRANCH   1   8
BRANCH   5  17
ATOM     17  S   UNL     1       5.363   5.672  16.078  0.00  0.00    +0.000 S 
ATOM     18  O   UNL     1       5.187   6.777  15.146  0.00  0.00    +0.000 OA
ATOM     19  O   UNL     1       5.736   4.369  15.567  0.00  0.00    +0.000 OA
BRANCH  17  20
ATOM     20  N   UNL     1       3.964   5.548  17.050  0.00  0.00    +0.000 N 
ATOM     21  C   UNL     1       3.384   6.786  17.600  0.00  0.00    +0.000 C 
ATOM     22  C   UNL     1       3.554   6.933  19.101  0.00  0.00    +0.000 C 
ATOM     23  C   UNL     1       3.361   5.660  19.909  0.00  0.00    +0.000 C 
ATOM     24  C   UNL     1       3.551   4.372  19.165  0.00  0.00    +0.000 A 
ATOM     25  C   UNL     1       3.452   3.166  19.884  0.00  0.00    +0.000 A 
ATOM     26  C   UNL     1       3.488   1.939  19.226  0.00  0.00    +0.000 A 
ATOM     27  C   UNL     1       3.586   1.903  17.841  0.00  0.00    +0.000 A 
ATOM     28  C   UNL     1       3.707   3.094  17.123  0.00  0.00    +0.000 A 
ATOM     29  C   UNL     1       3.743   4.330  17.780  0.00  0.00    +0.000 A 
ENDBRANCH  17  20
ENDBRANCH   5  17
TORSDOF 3
ENDMDL
MODEL 2
REMARK VINA RESULT:      -8.3      6.875      9.760
REMARK  Name = 
REMARK  3 active torsions:
REMARK  status: ('A' for Active; 'I' for Inactive)
REMARK    1  A    between atoms: C_2  and  C_10
REMARK    2  A    between atoms: C_14  and  S_15
REMARK    3  A    between atoms: S_15  and  N_18
REMARK                            x       y       z     vdW  Elec       q    Type
REMARK                         _______ _______ _______ _____ _____    ______ ____
ROOT
ATOM      1  C   UNL     1       1.407   8.822  19.215  0.00  0.00    +0.000 A 
ATOM      2  C   UNL     1       1.516   8.475  20.567  0.00  0.00    +0.000 A 
ATOM      3  C   UNL     1       0.650   9.041  21.506  0.00  0.00    +0.000 A 
ATOM      4  C   UNL     1      -0.323   9.959  21.099  0.00  0.00    +0.000 A 
ATOM      5  C   UNL     1      -0.436  10.294  19.746  0.00  0.00    +0.000 A 
ATOM      6  C   UNL     1       0.425   9.728  18.800  0.00  0.00    +0.000 A 
ENDROOT
BRANCH   1   8
ATOM      7  O   UNL     1       2.543   8.808  17.169  0.00  0.00    +0.000 OA
ATOM      8  C   UNL     1       2.341   8.224  18.227  0.00  0.00    +0.000 C 
ATOM      9  N   UNL     1       2.838   6.988  18.585  0.00  0.00    +0.000 N 
ATOM     10  C   UNL     1       3.694   6.239  17.775  0.00  0.00    +0.000 A 
ATOM     11  C   UNL     1       4.772   6.813  17.114  0.00  0.00    +0.000 A 
ATOM     12  C   UNL     1       5.582   5.997  16.328  0.00  0.00    +0.000 A 
ATOM     13  C   UNL     1       5.266   4.651  16.197  0.00  0.00    +0.000 A 
ATOM     14  C   UNL     1       4.179   4.166  16.905  0.00  0.00    +0.000 A 
ATOM     15  N   UNL     1       3.416   4.920  17.727  0.00  0.00    +0.000 NA
ATOM     16  H   UNL     1       2.282   6.417  19.207  0.00  0.00    +0.000 HD
ENDBRANCH   1   8
BRANCH   5  17
ATOM     17  S   UNL     1      -1.508  11.632  19.243  0.00  0.00    +0.000 S 
ATOM     18  O   UNL     1      -1.937  12.301  20.463  0.00  0.00    +0.000 OA
ATOM     19  O   UNL     1      -0.774  12.383  18.245  0.00  0.00    +0.000 OA
BRANCH  17  20
ATOM     20  N   UNL     1      -2.862  10.871  18.531  0.00  0.00    +0.000 N 
ATOM     21  C   UNL     1      -2.624   9.780  17.570  0.00  0.00    +0.000 C 
ATOM     22  C   UNL     1      -2.960  10.138  16.134  0.00  0.00    +0.000 C 
ATOM     23  C   UNL     1      -4.220  10.965  15.944  0.00  0.00    +0.000 C 
ATOM     24  C   UNL     1      -4.678  11.755  17.134  0.00  0.00    +0.000 A 
ATOM     25  C   UNL     1      -5.800  12.591  16.989  0.00  0.00    +0.000 A 
ATOM     26  C   UNL     1      -6.349  13.245  18.089  0.00  0.00    +0.000 A 
ATOM     27  C   UNL     1      -5.806  13.042  19.352  0.00  0.00    +0.000 A 
ATOM     28  C   UNL     1      -4.679  12.233  19.500  0.00  0.00    +0.000 A 
ATOM     29  C   UNL     1      -4.077  11.626  18.391  0.00  0.00    +0.000 A 
ENDBRANCH  17  20
ENDBRANCH   5  17
TORSDOF 3
ENDMDL
MODEL 3
REMARK VINA RESULT:      -8.1      5.558      7.956
REMARK  Name = 
REMARK  3 active torsions:
REMARK  status: ('A' for Active; 'I' for Inactive)
REMARK    1  A    between atoms: C_2  and  C_10
REMARK    2  A    between atoms: C_14  and  S_15
REMARK    3  A    between atoms: S_15  and  N_18
REMARK                            x       y       z     vdW  Elec       q    Type
REMARK                         _______ _______ _______ _____ _____    ______ ____
ROOT
ATOM      1  C   UNL     1       0.972   9.670  20.089  0.00  0.00    +0.000 A 
ATOM      2  C   UNL     1       1.192  10.279  18.847  0.00  0.00    +0.000 A 
ATOM      3  C   UNL     1       1.801   9.559  17.815  0.00  0.00    +0.000 A 
ATOM      4  C   UNL     1       2.197   8.235  18.022  0.00  0.00    +0.000 A 
ATOM      5  C   UNL     1       1.966   7.628  19.260  0.00  0.00    +0.000 A 
ATOM      6  C   UNL     1       1.353   8.340  20.297  0.00  0.00    +0.000 A 
ENDROOT
BRANCH   1   8
ATOM      7  O   UNL     1       0.644  10.204  22.344  0.00  0.00    +0.000 OA
ATOM      8  C   UNL     1       0.336  10.447  21.184  0.00  0.00    +0.000 C 
ATOM      9  N   UNL     1      -0.629  11.339  20.765  0.00  0.00    +0.000 N 
ATOM     10  C   UNL     1      -1.377  12.131  21.640  0.00  0.00    +0.000 A 
ATOM     11  C   UNL     1      -0.792  12.803  22.706  0.00  0.00    +0.000 A 
ATOM     12  C   UNL     1      -1.605  13.578  23.530  0.00  0.00    +0.000 A 
ATOM     13  C   UNL     1      -2.972  13.620  23.289  0.00  0.00    +0.000 A 
ATOM     14  C   UNL     1      -3.462  12.927  22.195  0.00  0.00    +0.000 A 
ATOM     15  N   UNL     1      -2.687  12.223  21.339  0.00  0.00    +0.000 NA
ATOM     16  H   UNL     1      -1.115  11.140  19.901  0.00  0.00    +0.000 HD
ENDBRANCH   1   8
BRANCH   5  17
ATOM     17  S   UNL     1       2.672   6.026  19.617  0.00  0.00    +0.000 S 
ATOM     18  O   UNL     1       4.083   6.248  19.899  0.00  0.00    +0.000 OA
ATOM     19  O   UNL     1       1.831   5.434  20.638  0.00  0.00    +0.000 OA
BRANCH  17  20
ATOM     20  N   UNL     1       2.537   5.147  18.159  0.00  0.00    +0.000 N 
ATOM     21  C   UNL     1       1.506   4.098  18.069  0.00  0.00    +0.000 C 
ATOM     22  C   UNL     1       2.063   2.686  18.042  0.00  0.00    +0.000 C 
ATOM     23  C   UNL     1       3.320   2.494  17.210  0.00  0.00    +0.000 C 
ATOM     24  C   UNL     1       4.140   3.725  16.960  0.00  0.00    +0.000 A 
ATOM     25  C   UNL     1       5.349   3.589  16.254  0.00  0.00    +0.000 A 
ATOM     26  C   UNL     1       6.086   4.710  15.878  0.00  0.00    +0.000 A 
ATOM     27  C   UNL     1       5.605   5.979  16.172  0.00  0.00    +0.000 A 
ATOM     28  C   UNL     1       4.418   6.122  16.892  0.00  0.00    +0.000 A 
ATOM     29  C   UNL     1       3.706   5.001  17.335  0.00  0.00    +0.000 A 
ENDBRANCH  17  20
ENDBRANCH   5  17
TORSDOF 3
ENDMDL
MODEL 4
REMARK VINA RESULT:      -8.1      6.812     10.125
REMARK  Name = 
REMARK  3 active torsions:
REMARK  status: ('A' for Active; 'I' for Inactive)
REMARK    1  A    between atoms: C_2  and  C_10
REMARK    2  A    between atoms: C_14  and  S_15
REMARK    3  A    between atoms: S_15  and  N_18
REMARK                            x       y       z     vdW  Elec       q    Type
REMARK                         _______ _______ _______ _____ _____    ______ ____
ROOT
ATOM      1  C   UNL     1       0.765   9.093  21.061  0.00  0.00    +0.000 A 
ATOM      2  C   UNL     1       0.032   8.744  22.202  0.00  0.00    +0.000 A 
ATOM      3  C   UNL     1      -0.634   9.732  22.934  0.00  0.00    +0.000 A 
ATOM      4  C   UNL     1      -0.565  11.069  22.532  0.00  0.00    +0.000 A 
ATOM      5  C   UNL     1       0.160  11.411  21.386  0.00  0.00    +0.000 A 
ATOM      6  C   UNL     1       0.825  10.428  20.646  0.00  0.00    +0.000 A 
ENDROOT
BRANCH   1   8
ATOM      7  O   UNL     1       1.867   8.284  19.162  0.00  0.00    +0.000 OA
ATOM      8  C   UNL     1       1.479   8.038  20.297  0.00  0.00    +0.000 C 
ATOM      9  N   UNL     1       1.562   6.822  20.943  0.00  0.00    +0.000 N 
ATOM     10  C   UNL     1       2.153   5.690  20.378  0.00  0.00    +0.000 A 
ATOM     11  C   UNL     1       3.365   5.751  19.702  0.00  0.00    +0.000 A 
ATOM     12  C   UNL     1       3.891   4.576  19.171  0.00  0.00    +0.000 A 
ATOM     13  C   UNL     1       3.173   3.394  19.296  0.00  0.00    +0.000 A 
ATOM     14  C   UNL     1       1.980   3.428  19.999  0.00  0.00    +0.000 A 
ATOM     15  N   UNL     1       1.479   4.540  20.582  0.00  0.00    +0.000 NA
ATOM     16  H   UNL     1       0.848   6.597  21.622  0.00  0.00    +0.000 HD
ENDBRANCH   1   8
BRANCH   5  17
ATOM     17  S   UNL     1       0.453  13.130  20.994  0.00  0.00    +0.000 S 
ATOM     18  O   UNL     1       0.740  13.799  22.254  0.00  0.00    +0.000 OA
ATOM     19  O   UNL     1       1.453  13.138  19.945  0.00  0.00    +0.000 OA
BRANCH  17  20
ATOM     20  N   UNL     1      -1.037  13.708  20.393  0.00  0.00    +0.000 N 
ATOM     21  C   UNL     1      -1.805  14.653  21.224  0.00  0.00    +0.000 C 
ATOM     22  C   UNL     1      -3.076  14.068  21.810  0.00  0.00    +0.000 C 
ATOM     23  C   UNL     1      -3.868  13.161  20.882  0.00  0.00    +0.000 C 
ATOM     24  C   UNL     1      -3.100  12.538  19.755  0.00  0.00    +0.000 A 
ATOM     25  C   UNL     1      -3.771  11.637  18.908  0.00  0.00    +0.000 A 
ATOM     26  C   UNL     1      -3.148  11.129  17.770  0.00  0.00    +0.000 A 
ATOM     27  C   UNL     1      -1.864  11.546  17.445  0.00  0.00    +0.000 A 
ATOM     28  C   UNL     1      -1.184  12.422  18.291  0.00  0.00    +0.000 A 
ATOM     29  C   UNL     1      -1.773  12.883  19.474  0.00  0.00    +0.000 A 
ENDBRANCH  17  20
ENDBRANCH   5  17
TORSDOF 3
ENDMDL
MODEL 5
REMARK VINA RESULT:      -8.0      6.885     10.025
REMARK  Name = 
REMARK  3 active torsions:
REMARK  status: ('A' for Active; 'I' for Inactive)
REMARK    1  A    between atoms: C_2  and  C_10
REMARK    2  A    between atoms: C_14  and  S_15
REMARK    3  A    between atoms: S_15  and  N_18
REMARK                            x       y       z     vdW  Elec       q    Type
REMARK                         _______ _______ _______ _____ _____    ______ ____
ROOT
ATOM      1  C   UNL     1       1.122   8.698  20.433  0.00  0.00    +0.000 A 
ATOM      2  C   UNL     1       1.102   8.806  21.829  0.00  0.00    +0.000 A 
ATOM      3  C   UNL     1       0.289   9.762  22.444  0.00  0.00    +0.000 A 
ATOM      4  C   UNL     1      -0.501  10.615  21.668  0.00  0.00    +0.000 A 
ATOM      5  C   UNL     1      -0.487  10.496  20.274  0.00  0.00    +0.000 A 
ATOM      6  C   UNL     1       0.322   9.539  19.652  0.00  0.00    +0.000 A 
ENDROOT
BRANCH   1   8
ATOM      7  O   UNL     1       2.443   7.911  18.668  0.00  0.00    +0.000 OA
ATOM      8  C   UNL     1       1.999   7.687  19.788  0.00  0.00    +0.000 C 
ATOM      9  N   UNL     1       2.164   6.526  20.514  0.00  0.00    +0.000 N 
ATOM     10  C   UNL     1       2.912   5.436  20.064  0.00  0.00    +0.000 A 
ATOM     11  C   UNL     1       4.157   5.594  19.469  0.00  0.00    +0.000 A 
ATOM     12  C   UNL     1       4.844   4.457  19.052  0.00  0.00    +0.000 A 
ATOM     13  C   UNL     1       4.248   3.211  19.202  0.00  0.00    +0.000 A 
ATOM     14  C   UNL     1       3.009   3.152  19.818  0.00  0.00    +0.000 A 
ATOM     15  N   UNL     1       2.351   4.233  20.294  0.00  0.00    +0.000 NA
ATOM     16  H   UNL     1       1.428   6.262  21.156  0.00  0.00    +0.000 HD
ENDBRANCH   1   8
BRANCH   5  17
ATOM     17  S   UNL     1      -1.303  11.722  19.263  0.00  0.00    +0.000 S 
ATOM     18  O   UNL     1      -1.877  12.699  20.179  0.00  0.00    +0.000 OA
ATOM     19  O   UNL     1      -0.323  12.157  18.289  0.00  0.00    +0.000 OA
BRANCH  17  20
ATOM     20  N   UNL     1      -2.574  10.885  18.490  0.00  0.00    +0.000 N 
ATOM     21  C   UNL     1      -2.228   9.871  17.477  0.00  0.00    +0.000 C 
ATOM     22  C   UNL     1      -2.576  10.275  16.056  0.00  0.00    +0.000 C 
ATOM     23  C   UNL     1      -3.902  10.997  15.886  0.00  0.00    +0.000 C 
ATOM     24  C   UNL     1      -4.443  11.678  17.108  0.00  0.00    +0.000 A 
ATOM     25  C   UNL     1      -5.634  12.419  16.987  0.00  0.00    +0.000 A 
ATOM     26  C   UNL     1      -6.253  12.962  18.110  0.00  0.00    +0.000 A 
ATOM     27  C   UNL     1      -5.710  12.741  19.370  0.00  0.00    +0.000 A 
ATOM     28  C   UNL     1      -4.518  12.027  19.495  0.00  0.00    +0.000 A 
ATOM     29  C   UNL     1      -3.850  11.536  18.367  0.00  0.00    +0.000 A 
ENDBRANCH  17  20
ENDBRANCH   5  17
TORSDOF 3
ENDMDL
MODEL 6
REMARK VINA RESULT:      -8.0      6.436      9.548
REMARK  Name = 
REMARK  3 active torsions:
REMARK  status: ('A' for Active; 'I' for Inactive)
REMARK    1  A    between atoms: C_2  and  C_10
REMARK    2  A    between atoms: C_14  and  S_15
REMARK    3  A    between atoms: S_15  and  N_18
REMARK                            x       y       z     vdW  Elec       q    Type
REMARK                         _______ _______ _______ _____ _____    ______ ____
ROOT
ATOM      1  C   UNL     1       0.973   8.616  20.894  0.00  0.00    +0.000 A 
ATOM      2  C   UNL     1       0.171   8.459  22.032  0.00  0.00    +0.000 A 
ATOM      3  C   UNL     1      -0.426   9.575  22.625  0.00  0.00    +0.000 A 
ATOM      4  C   UNL     1      -0.219  10.849  22.090  0.00  0.00    +0.000 A 
ATOM      5  C   UNL     1       0.574  11.000  20.947  0.00  0.00    +0.000 A 
ATOM      6  C   UNL     1       1.171   9.887  20.345  0.00  0.00    +0.000 A 
ENDROOT
BRANCH   1   8
ATOM      7  O   UNL     1       1.631   6.371  20.900  0.00  0.00    +0.000 OA
ATOM      8  C   UNL     1       1.612   7.426  20.278  0.00  0.00    +0.000 C 
ATOM      9  N   UNL     1       2.210   7.664  19.058  0.00  0.00    +0.000 N 
ATOM     10  C   UNL     1       2.903   6.690  18.337  0.00  0.00    +0.000 A 
ATOM     11  C   UNL     1       2.410   5.401  18.179  0.00  0.00    +0.000 A 
ATOM     12  C   UNL     1       3.159   4.488  17.441  0.00  0.00    +0.000 A 
ATOM     13  C   UNL     1       4.387   4.879  16.924  0.00  0.00    +0.000 A 
ATOM     14  C   UNL     1       4.790   6.189  17.121  0.00  0.00    +0.000 A 
ATOM     15  N   UNL     1       4.053   7.115  17.775  0.00  0.00    +0.000 NA
ATOM     16  H   UNL     1       2.533   8.603  18.866  0.00  0.00    +0.000 HD
ENDBRANCH   1   8
BRANCH   5  17
ATOM     17  S   UNL     1       1.039  12.633  20.391  0.00  0.00    +0.000 S 
ATOM     18  O   UNL     1       1.719  13.274  21.507  0.00  0.00    +0.000 OA
ATOM     19  O   UNL     1       1.751  12.446  19.143  0.00  0.00    +0.000 OA
BRANCH  17  20
ATOM     20  N   UNL     1      -0.438  13.444  20.112  0.00  0.00    +0.000 N 
ATOM     21  C   UNL     1      -0.873  14.458  21.089  0.00  0.00    +0.000 C 
ATOM     22  C   UNL     1      -2.074  14.040  21.918  0.00  0.00    +0.000 C 
ATOM     23  C   UNL     1      -3.162  13.294  21.164  0.00  0.00    +0.000 C 
ATOM     24  C   UNL     1      -2.738  12.610  19.899  0.00  0.00    +0.000 A 
ATOM     25  C   UNL     1      -3.692  11.848  19.200  0.00  0.00    +0.000 A 
ATOM     26  C   UNL     1      -3.394  11.299  17.955  0.00  0.00    +0.000 A 
ATOM     27  C   UNL     1      -2.154  11.537  17.377  0.00  0.00    +0.000 A 
ATOM     28  C   UNL     1      -1.194  12.273  18.074  0.00  0.00    +0.000 A 
ATOM     29  C   UNL     1      -1.458  12.769  19.356  0.00  0.00    +0.000 A 
ENDBRANCH  17  20
ENDBRANCH   5  17
TORSDOF 3
ENDMDL
MODEL 7
REMARK VINA RESULT:      -7.9      4.407      6.490
REMARK  Name = 
REMARK  3 active torsions:
REMARK  status: ('A' for Active; 'I' for Inactive)
REMARK    1  A    between atoms: C_2  and  C_10
REMARK    2  A    between atoms: C_14  and  S_15
REMARK    3  A    between atoms: S_15  and  N_18
REMARK                            x       y       z     vdW  Elec       q    Type
REMARK                         _______ _______ _______ _____ _____    ______ ____
ROOT
ATOM      1  C   UNL     1       2.153   6.802  19.526  0.00  0.00    +0.000 A 
ATOM      2  C   UNL     1       1.703   6.312  20.758  0.00  0.00    +0.000 A 
ATOM      3  C   UNL     1       1.928   4.976  21.103  0.00  0.00    +0.000 A 
ATOM      4  C   UNL     1       2.597   4.127  20.217  0.00  0.00    +0.000 A 
ATOM      5  C   UNL     1       3.054   4.623  18.992  0.00  0.00    +0.000 A 
ATOM      6  C   UNL     1       2.836   5.960  18.643  0.00  0.00    +0.000 A 
ENDROOT
BRANCH   1   8
ATOM      7  O   UNL     1       2.388   8.671  18.137  0.00  0.00    +0.000 OA
ATOM      8  C   UNL     1       1.897   8.220  19.165  0.00  0.00    +0.000 C 
ATOM      9  N   UNL     1       1.171   8.927  20.100  0.00  0.00    +0.000 N 
ATOM     10  C   UNL     1       0.864  10.283  19.971  0.00  0.00    +0.000 A 
ATOM     11  C   UNL     1       0.414  10.826  18.774  0.00  0.00    +0.000 A 
ATOM     12  C   UNL     1       0.123  12.187  18.727  0.00  0.00    +0.000 A 
ATOM     13  C   UNL     1       0.331  12.964  19.860  0.00  0.00    +0.000 A 
ATOM     14  C   UNL     1       0.770  12.332  21.012  0.00  0.00    +0.000 A 
ATOM     15  N   UNL     1       0.995  11.002  21.104  0.00  0.00    +0.000 NA
ATOM     16  H   UNL     1       1.218   8.623  21.063  0.00  0.00    +0.000 HD
ENDBRANCH   1   8
BRANCH   5  17
ATOM     17  S   UNL     1       3.697   3.504  17.757  0.00  0.00    +0.000 S 
ATOM     18  O   UNL     1       3.515   2.159  18.282  0.00  0.00    +0.000 OA
ATOM     19  O   UNL     1       3.055   3.869  16.510  0.00  0.00    +0.000 OA
BRANCH  17  20
ATOM     20  N   UNL     1       5.369   3.841  17.681  0.00  0.00    +0.000 N 
ATOM     21  C   UNL     1       6.035   4.352  18.892  0.00  0.00    +0.000 C 
ATOM     22  C   UNL     1       6.457   5.806  18.799  0.00  0.00    +0.000 C 
ATOM     23  C   UNL     1       7.035   6.235  17.460  0.00  0.00    +0.000 C 
ATOM     24  C   UNL     1       6.655   5.394  16.278  0.00  0.00    +0.000 A 
ATOM     25  C   UNL     1       7.108   5.789  15.005  0.00  0.00    +0.000 A 
ATOM     26  C   UNL     1       6.899   4.979  13.891  0.00  0.00    +0.000 A 
ATOM     27  C   UNL     1       6.269   3.750  14.042  0.00  0.00    +0.000 A 
ATOM     28  C   UNL     1       5.798   3.362  15.297  0.00  0.00    +0.000 A 
ATOM     29  C   UNL     1       5.940   4.199  16.410  0.00  0.00    +0.000 A 
ENDBRANCH  17  20
ENDBRANCH   5  17
TORSDOF 3
ENDMDL
MODEL 8
REMARK VINA RESULT:      -7.9      5.014      6.722
REMARK  Name = 
REMARK  3 active torsions:
REMARK  status: ('A' for Active; 'I' for Inactive)
REMARK    1  A    between atoms: C_2  and  C_10
REMARK    2  A    between atoms: C_14  and  S_15
REMARK    3  A    between atoms: S_15  and  N_18
REMARK                            x       y       z     vdW  Elec       q    Type
REMARK                         _______ _______ _______ _____ _____    ______ ____
ROOT
ATOM      1  C   UNL     1       2.553   7.384  19.226  0.00  0.00    +0.000 A 
ATOM      2  C   UNL     1       2.712   8.169  18.078  0.00  0.00    +0.000 A 
ATOM      3  C   UNL     1       3.611   7.776  17.082  0.00  0.00    +0.000 A 
ATOM      4  C   UNL     1       4.356   6.604  17.233  0.00  0.00    +0.000 A 
ATOM      5  C   UNL     1       4.187   5.817  18.377  0.00  0.00    +0.000 A 
ATOM      6  C   UNL     1       3.285   6.201  19.375  0.00  0.00    +0.000 A 
ENDROOT
BRANCH   1   8
ATOM      7  O   UNL     1       1.024   6.966  20.948  0.00  0.00    +0.000 OA
ATOM      8  C   UNL     1       1.604   7.816  20.284  0.00  0.00    +0.000 C 
ATOM      9  N   UNL     1       1.411   9.180  20.356  0.00  0.00    +0.000 N 
ATOM     10  C   UNL     1       0.526   9.786  21.251  0.00  0.00    +0.000 A 
ATOM     11  C   UNL     1       0.451   9.404  22.584  0.00  0.00    +0.000 A 
ATOM     12  C   UNL     1      -0.454  10.060  23.415  0.00  0.00    +0.000 A 
ATOM     13  C   UNL     1      -1.279  11.041  22.878  0.00  0.00    +0.000 A 
ATOM     14  C   UNL     1      -1.122  11.363  21.540  0.00  0.00    +0.000 A 
ATOM     15  N   UNL     1      -0.206  10.790  20.728  0.00  0.00    +0.000 NA
ATOM     16  H   UNL     1       1.556   9.723  19.516  0.00  0.00    +0.000 HD
ENDBRANCH   1   8
BRANCH   5  17
ATOM     17  S   UNL     1       5.293   4.450  18.695  0.00  0.00    +0.000 S 
ATOM     18  O   UNL     1       6.227   4.405  17.579  0.00  0.00    +0.000 OA
ATOM     19  O   UNL     1       5.803   4.650  20.037  0.00  0.00    +0.000 OA
BRANCH  17  20
ATOM     20  N   UNL     1       4.306   3.058  18.640  0.00  0.00    +0.000 N 
ATOM     21  C   UNL     1       4.129   2.379  17.344  0.00  0.00    +0.000 C 
ATOM     22  C   UNL     1       2.737   2.524  16.756  0.00  0.00    +0.000 C 
ATOM     23  C   UNL     1       1.592   2.426  17.751  0.00  0.00    +0.000 C 
ATOM     24  C   UNL     1       1.934   2.722  19.181  0.00  0.00    +0.000 A 
ATOM     25  C   UNL     1       0.895   2.712  20.130  0.00  0.00    +0.000 A 
ATOM     26  C   UNL     1       1.170   2.849  21.489  0.00  0.00    +0.000 A 
ATOM     27  C   UNL     1       2.487   2.960  21.917  0.00  0.00    +0.000 A 
ATOM     28  C   UNL     1       3.520   2.994  20.980  0.00  0.00    +0.000 A 
ATOM     29  C   UNL     1       3.250   2.927  19.608  0.00  0.00    +0.000 A 
ENDBRANCH  17  20
ENDBRANCH   5  17
TORSDOF 3
ENDMDL
MODEL 9
REMARK VINA RESULT:      -7.8      7.016      9.924
REMARK  Name = 
REMARK  3 active torsions:
REMARK  status: ('A' for Active; 'I' for Inactive)
REMARK    1  A    between atoms: C_2  and  C_10
REMARK    2  A    between atoms: C_14  and  S_15
REMARK    3  A    between atoms: S_15  and  N_18
REMARK                            x       y       z     vdW  Elec       q    Type
REMARK                         _______ _______ _______ _____ _____    ______ ____
ROOT
ATOM      1  C   UNL     1       0.860   8.793  20.732  0.00  0.00    +0.000 A 
ATOM      2  C   UNL     1       0.881   9.053  22.108  0.00  0.00    +0.000 A 
ATOM      3  C   UNL     1       0.154  10.129  22.626  0.00  0.00    +0.000 A 
ATOM      4  C   UNL     1      -0.589  10.949  21.774  0.00  0.00    +0.000 A 
ATOM      5  C   UNL     1      -0.616  10.679  20.401  0.00  0.00    +0.000 A 
ATOM      6  C   UNL     1       0.105   9.601  19.876  0.00  0.00    +0.000 A 
ENDROOT
BRANCH   1   8
ATOM      7  O   UNL     1       1.877   6.692  20.911  0.00  0.00    +0.000 OA
ATOM      8  C   UNL     1       1.645   7.654  20.189  0.00  0.00    +0.000 C 
ATOM      9  N   UNL     1       2.115   7.844  18.907  0.00  0.00    +0.000 N 
ATOM     10  C   UNL     1       2.911   6.915  18.233  0.00  0.00    +0.000 A 
ATOM     11  C   UNL     1       2.628   5.555  18.248  0.00  0.00    +0.000 A 
ATOM     12  C   UNL     1       3.467   4.692  17.547  0.00  0.00    +0.000 A 
ATOM     13  C   UNL     1       4.578   5.210  16.894  0.00  0.00    +0.000 A 
ATOM     14  C   UNL     1       4.772   6.581  16.924  0.00  0.00    +0.000 A 
ATOM     15  N   UNL     1       3.937   7.447  17.540  0.00  0.00    +0.000 NA
ATOM     16  H   UNL     1       2.267   8.793  18.594  0.00  0.00    +0.000 HD
ENDBRANCH   1   8
BRANCH   5  17
ATOM     17  S   UNL     1      -1.364  11.846  19.274  0.00  0.00    +0.000 S 
ATOM     18  O   UNL     1      -1.965  12.888  20.095  0.00  0.00    +0.000 OA
ATOM     19  O   UNL     1      -0.331  12.204  18.322  0.00  0.00    +0.000 OA
BRANCH  17  20
ATOM     20  N   UNL     1      -2.609  10.975  18.495  0.00  0.00    +0.000 N 
ATOM     21  C   UNL     1      -2.232   9.969  17.486  0.00  0.00    +0.000 C 
ATOM     22  C   UNL     1      -2.582  10.361  16.063  0.00  0.00    +0.000 C 
ATOM     23  C   UNL     1      -3.926  11.049  15.885  0.00  0.00    +0.000 C 
ATOM     24  C   UNL     1      -4.490  11.719  17.102  0.00  0.00    +0.000 A 
ATOM     25  C   UNL     1      -5.698  12.429  16.974  0.00  0.00    +0.000 A 
ATOM     26  C   UNL     1      -6.337  12.958  18.093  0.00  0.00    +0.000 A 
ATOM     27  C   UNL     1      -5.796  12.753  19.355  0.00  0.00    +0.000 A 
ATOM     28  C   UNL     1      -4.586  12.069  19.489  0.00  0.00    +0.000 A 
ATOM     29  C   UNL     1      -3.900  11.594  18.365  0.00  0.00    +0.000 A 
ENDBRANCH  17  20
ENDBRANCH   5  17
TORSDOF 3
ENDMDL
