MODEL 1
REMARK VINA RESULT:      -9.3      0.000      0.000
REMARK  Name = 
REMARK  7 active torsions:
REMARK  status: ('A' for Active; 'I' for Inactive)
REMARK    1  A    between atoms: C_1  and  C_2
REMARK    2  A    between atoms: C_4  and  C_5
REMARK    3  A    between atoms: N_6  and  C_7
REMARK    4  A    between atoms: C_7  and  C_8
REMARK    5  A    between atoms: C_12  and  C_13
REMARK    6  A    between atoms: C_16  and  C_17
REMARK    7  A    between atoms: C_21  and  O_22
REMARK                            x       y       z     vdW  Elec       q    Type
REMARK                         _______ _______ _______ _____ _____    ______ ____
ROOT
ATOM      1  C   UNL     1       7.433   6.618  17.568  0.00  0.00    +0.000 A 
ATOM      2  N   UNL     1       8.071   6.334  18.717  0.00  0.00    +0.000 NA
ATOM      3  O   UNL     1       8.600   7.549  19.115  0.00  0.00    +0.000 OA
ATOM      4  C   UNL     1       8.243   8.474  18.174  0.00  0.00    +0.000 A 
ATOM      5  N   UNL     1       7.532   7.950  17.197  0.00  0.00    +0.000 NA
ENDROOT
BRANCH   4   6
ATOM      6  C   UNL     1       8.696   9.843  18.419  0.00  0.00    +0.000 A 
ATOM      7  C   UNL     1       8.262  10.903  17.601  0.00  0.00    +0.000 A 
ATOM      8  C   UNL     1       8.682  12.208  17.853  0.00  0.00    +0.000 A 
ATOM      9  F   UNL     1       8.249  13.204  17.066  0.00  0.00    +0.000 F 
ATOM     10  C   UNL     1       9.536  12.496  18.907  0.00  0.00    +0.000 A 
ATOM     11  C   UNL     1       9.982  11.453  19.712  0.00  0.00    +0.000 A 
ATOM     12  F   UNL     1      10.814  11.701  20.734  0.00  0.00    +0.000 F 
ATOM     13  C   UNL     1       9.571  10.138  19.475  0.00  0.00    +0.000 A 
BRANCH  10  14
ATOM     14  O   UNL     1       9.929  13.780  19.149  0.00  0.00    +0.000 OA
ATOM     15  H   UNL     1      10.024  14.229  18.284  0.00  0.00    +0.000 HD
ENDBRANCH  10  14
ENDBRANCH   4   6
BRANCH   1  20
ATOM     16  C   UNL     1       4.594   4.311  16.555  0.00  0.00    +0.000 A 
ATOM     17  C   UNL     1       5.084   3.828  15.335  0.00  0.00    +0.000 A 
ATOM     18  C   UNL     1       6.339   4.226  14.867  0.00  0.00    +0.000 A 
ATOM     19  C   UNL     1       7.120   5.119  15.605  0.00  0.00    +0.000 A 
ATOM     20  C   UNL     1       6.658   5.623  16.826  0.00  0.00    +0.000 A 
ATOM     21  C   UNL     1       5.400   5.193  17.298  0.00  0.00    +0.000 A 
BRANCH  16  22
ATOM     22  C   UNL     1       3.198   3.953  17.013  0.00  0.00    +0.000 C 
BRANCH  22  28
ATOM     23  C   UNL     1       2.395   2.858  21.665  0.00  0.00    +0.000 C 
ATOM     24  C   UNL     1       2.540   3.700  20.455  0.00  0.00    +0.000 A 
ATOM     25  C   UNL     1       2.262   5.076  20.326  0.00  0.00    +0.000 A 
ATOM     26  C   UNL     1       2.514   5.383  19.006  0.00  0.00    +0.000 A 
ATOM     27  C   UNL     1       2.353   6.663  18.280  0.00  0.00    +0.000 C 
ATOM     28  N   UNL     1       2.953   4.211  18.430  0.00  0.00    +0.000 N 
ATOM     29  N   UNL     1       2.954   3.171  19.298  0.00  0.00    +0.000 NA
ENDBRANCH  22  28
ENDBRANCH  16  22
ENDBRANCH   1  20
TORSDOF 5
ENDMDL
MODEL 2
REMARK VINA RESULT:      -9.2      0.547      1.637
REMARK  Name = 
REMARK  7 active torsions:
REMARK  status: ('A' for Active; 'I' for Inactive)
REMARK    1  A    between atoms: C_1  and  C_2
REMARK    2  A    between atoms: C_4  and  C_5
REMARK    3  A    between atoms: N_6  and  C_7
REMARK    4  A    between atoms: C_7  and  C_8
REMARK    5  A    between atoms: C_12  and  C_13
REMARK    6  A    between atoms: C_16  and  C_17
REMARK    7  A    between atoms: C_21  and  O_22
REMARK                            x       y       z     vdW  Elec       q    Type
REMARK                         _______ _______ _______ _____ _____    ______ ____
ROOT
ATOM      1  C   UNL     1       7.390   6.831  17.761  0.00  0.00    +0.000 A 
ATOM      2  N   UNL     1       8.205   6.579  18.800  0.00  0.00    +0.000 NA
ATOM      3  O   UNL     1       8.770   7.810  19.088  0.00  0.00    +0.000 OA
ATOM      4  C   UNL     1       8.254   8.709  18.198  0.00  0.00    +0.000 A 
ATOM      5  N   UNL     1       7.407   8.156  17.354  0.00  0.00    +0.000 NA
ENDROOT
BRANCH   4   6
ATOM      6  C   UNL     1       8.717  10.089  18.343  0.00  0.00    +0.000 A 
ATOM      7  C   UNL     1       9.766  10.409  19.225  0.00  0.00    +0.000 A 
ATOM      8  C   UNL     1      10.216  11.724  19.343  0.00  0.00    +0.000 A 
ATOM      9  F   UNL     1      11.223  12.004  20.183  0.00  0.00    +0.000 F 
ATOM     10  C   UNL     1       9.643  12.746  18.601  0.00  0.00    +0.000 A 
ATOM     11  C   UNL     1       8.596  12.442  17.738  0.00  0.00    +0.000 A 
ATOM     12  F   UNL     1       8.019  13.412  17.014  0.00  0.00    +0.000 F 
ATOM     13  C   UNL     1       8.132  11.130  17.606  0.00  0.00    +0.000 A 
BRANCH  10  14
ATOM     14  O   UNL     1      10.101  14.026  18.717  0.00  0.00    +0.000 OA
ATOM     15  H   UNL     1      10.754  14.173  18.003  0.00  0.00    +0.000 HD
ENDBRANCH  10  14
ENDBRANCH   4   6
BRANCH   1  20
ATOM     16  C   UNL     1       4.318   4.733  17.002  0.00  0.00    +0.000 A 
ATOM     17  C   UNL     1       4.797   3.961  15.937  0.00  0.00    +0.000 A 
ATOM     18  C   UNL     1       6.115   4.101  15.495  0.00  0.00    +0.000 A 
ATOM     19  C   UNL     1       6.973   5.020  16.104  0.00  0.00    +0.000 A 
ATOM     20  C   UNL     1       6.525   5.810  17.168  0.00  0.00    +0.000 A 
ATOM     21  C   UNL     1       5.199   5.641  17.620  0.00  0.00    +0.000 A 
BRANCH  16  22
ATOM     22  C   UNL     1       2.867   4.648  17.416  0.00  0.00    +0.000 C 
BRANCH  22  28
ATOM     23  C   UNL     1       1.970   2.591  21.712  0.00  0.00    +0.000 C 
ATOM     24  C   UNL     1       2.206   3.671  20.726  0.00  0.00    +0.000 A 
ATOM     25  C   UNL     1       2.092   5.062  20.929  0.00  0.00    +0.000 A 
ATOM     26  C   UNL     1       2.370   5.639  19.709  0.00  0.00    +0.000 A 
ATOM     27  C   UNL     1       2.356   7.064  19.306  0.00  0.00    +0.000 C 
ATOM     28  N   UNL     1       2.663   4.593  18.862  0.00  0.00    +0.000 N 
ATOM     29  N   UNL     1       2.547   3.385  19.464  0.00  0.00    +0.000 NA
ENDBRANCH  22  28
ENDBRANCH  16  22
ENDBRANCH   1  20
TORSDOF 5
ENDMDL
MODEL 3
REMARK VINA RESULT:      -9.1      7.458      9.292
REMARK  Name = 
REMARK  7 active torsions:
REMARK  status: ('A' for Active; 'I' for Inactive)
REMARK    1  A    between atoms: C_1  and  C_2
REMARK    2  A    between atoms: C_4  and  C_5
REMARK    3  A    between atoms: N_6  and  C_7
REMARK    4  A    between atoms: C_7  and  C_8
REMARK    5  A    between atoms: C_12  and  C_13
REMARK    6  A    between atoms: C_16  and  C_17
REMARK    7  A    between atoms: C_21  and  O_22
REMARK                            x       y       z     vdW  Elec       q    Type
REMARK                         _______ _______ _______ _____ _____    ______ ____
ROOT
ATOM      1  C   UNL     1       0.491   9.929  21.385  0.00  0.00    +0.000 A 
ATOM      2  N   UNL     1       0.675   9.500  22.646  0.00  0.00    +0.000 NA
ATOM      3  O   UNL     1      -0.122  10.340  23.405  0.00  0.00    +0.000 OA
ATOM      4  C   UNL     1      -0.725  11.212  22.543  0.00  0.00    +0.000 A 
ATOM      5  N   UNL     1      -0.374  11.008  21.290  0.00  0.00    +0.000 NA
ENDROOT
BRANCH   4   6
ATOM      6  C   UNL     1      -1.633  12.186  23.149  0.00  0.00    +0.000 A 
ATOM      7  C   UNL     1      -1.253  13.533  23.293  0.00  0.00    +0.000 A 
ATOM      8  C   UNL     1      -2.131  14.460  23.853  0.00  0.00    +0.000 A 
ATOM      9  F   UNL     1      -1.752  15.741  23.972  0.00  0.00    +0.000 F 
ATOM     10  C   UNL     1      -3.393  14.081  24.285  0.00  0.00    +0.000 A 
ATOM     11  C   UNL     1      -3.773  12.749  24.160  0.00  0.00    +0.000 A 
ATOM     12  F   UNL     1      -4.984  12.353  24.576  0.00  0.00    +0.000 F 
ATOM     13  C   UNL     1      -2.906  11.805  23.600  0.00  0.00    +0.000 A 
BRANCH  10  14
ATOM     14  O   UNL     1      -4.248  15.001  24.820  0.00  0.00    +0.000 OA
ATOM     15  H   UNL     1      -5.115  14.892  24.379  0.00  0.00    +0.000 HD
ENDBRANCH  10  14
ENDBRANCH   4   6
BRANCH   1  20
ATOM     16  C   UNL     1       2.394   7.401  19.288  0.00  0.00    +0.000 A 
ATOM     17  C   UNL     1       2.147   7.902  18.004  0.00  0.00    +0.000 A 
ATOM     18  C   UNL     1       1.397   9.067  17.828  0.00  0.00    +0.000 A 
ATOM     19  C   UNL     1       0.874   9.746  18.932  0.00  0.00    +0.000 A 
ATOM     20  C   UNL     1       1.099   9.270  20.228  0.00  0.00    +0.000 A 
ATOM     21  C   UNL     1       1.880   8.106  20.392  0.00  0.00    +0.000 A 
BRANCH  16  22
ATOM     22  C   UNL     1       3.125   6.090  19.470  0.00  0.00    +0.000 C 
BRANCH  22  28
ATOM     23  C   UNL     1       1.248   2.546  22.190  0.00  0.00    +0.000 C 
ATOM     24  C   UNL     1       1.491   3.375  20.987  0.00  0.00    +0.000 A 
ATOM     25  C   UNL     1       1.038   3.138  19.673  0.00  0.00    +0.000 A 
ATOM     26  C   UNL     1       1.558   4.162  18.911  0.00  0.00    +0.000 A 
ATOM     27  C   UNL     1       1.457   4.410  17.455  0.00  0.00    +0.000 C 
ATOM     28  N   UNL     1       2.254   4.962  19.791  0.00  0.00    +0.000 N 
ATOM     29  N   UNL     1       2.238   4.482  21.058  0.00  0.00    +0.000 NA
ENDBRANCH  22  28
ENDBRANCH  16  22
ENDBRANCH   1  20
TORSDOF 5
ENDMDL
MODEL 4
REMARK VINA RESULT:      -9.1      0.616      2.155
REMARK  Name = 
REMARK  7 active torsions:
REMARK  status: ('A' for Active; 'I' for Inactive)
REMARK    1  A    between atoms: C_1  and  C_2
REMARK    2  A    between atoms: C_4  and  C_5
REMARK    3  A    between atoms: N_6  and  C_7
REMARK    4  A    between atoms: C_7  and  C_8
REMARK    5  A    between atoms: C_12  and  C_13
REMARK    6  A    between atoms: C_16  and  C_17
REMARK    7  A    between atoms: C_21  and  O_22
REMARK                            x       y       z     vdW  Elec       q    Type
REMARK                         _______ _______ _______ _____ _____    ______ ____
ROOT
ATOM      1  C   UNL     1       7.427   6.643  17.542  0.00  0.00    +0.000 A 
ATOM      2  N   UNL     1       8.068   6.341  18.684  0.00  0.00    +0.000 NA
ATOM      3  O   UNL     1       8.606   7.548  19.096  0.00  0.00    +0.000 OA
ATOM      4  C   UNL     1       8.249   8.486  18.168  0.00  0.00    +0.000 A 
ATOM      5  N   UNL     1       7.532   7.979  17.187  0.00  0.00    +0.000 NA
ENDROOT
BRANCH   4   6
ATOM      6  C   UNL     1       8.710   9.850  18.428  0.00  0.00    +0.000 A 
ATOM      7  C   UNL     1       9.568  10.128  19.509  0.00  0.00    +0.000 A 
ATOM      8  C   UNL     1      10.020  11.427  19.738  0.00  0.00    +0.000 A 
ATOM      9  F   UNL     1      10.843  11.666  20.769  0.00  0.00    +0.000 F 
ATOM     10  C   UNL     1       9.637  12.474  18.914  0.00  0.00    +0.000 A 
ATOM     11  C   UNL     1       8.778  12.213  17.852  0.00  0.00    +0.000 A 
ATOM     12  F   UNL     1       8.386  13.208  17.044  0.00  0.00    +0.000 F 
ATOM     13  C   UNL     1       8.315  10.917  17.606  0.00  0.00    +0.000 A 
BRANCH  10  14
ATOM     14  O   UNL     1      10.097  13.739  19.143  0.00  0.00    +0.000 OA
ATOM     15  H   UNL     1       9.967  14.254  18.321  0.00  0.00    +0.000 HD
ENDBRANCH  10  14
ENDBRANCH   4   6
BRANCH   1  20
ATOM     16  C   UNL     1       4.660   4.216  16.612  0.00  0.00    +0.000 A 
ATOM     17  C   UNL     1       5.039   3.891  15.304  0.00  0.00    +0.000 A 
ATOM     18  C   UNL     1       6.199   4.432  14.745  0.00  0.00    +0.000 A 
ATOM     19  C   UNL     1       6.996   5.314  15.482  0.00  0.00    +0.000 A 
ATOM     20  C   UNL     1       6.644   5.662  16.790  0.00  0.00    +0.000 A 
ATOM     21  C   UNL     1       5.483   5.088  17.350  0.00  0.00    +0.000 A 
BRANCH  16  22
ATOM     22  C   UNL     1       3.356   3.704  17.180  0.00  0.00    +0.000 C 
BRANCH  22  28
ATOM     23  C   UNL     1       2.014   7.429  19.974  0.00  0.00    +0.000 C 
ATOM     24  C   UNL     1       2.407   6.045  19.622  0.00  0.00    +0.000 A 
ATOM     25  C   UNL     1       2.681   4.978  20.502  0.00  0.00    +0.000 A 
ATOM     26  C   UNL     1       3.040   3.918  19.698  0.00  0.00    +0.000 A 
ATOM     27  C   UNL     1       3.480   2.552  20.065  0.00  0.00    +0.000 C 
ATOM     28  N   UNL     1       2.934   4.380  18.405  0.00  0.00    +0.000 N 
ATOM     29  N   UNL     1       2.568   5.683  18.344  0.00  0.00    +0.000 NA
ENDBRANCH  22  28
ENDBRANCH  16  22
ENDBRANCH   1  20
TORSDOF 5
ENDMDL
MODEL 5
REMARK VINA RESULT:      -9.1      0.634      1.487
REMARK  Name = 
REMARK  7 active torsions:
REMARK  status: ('A' for Active; 'I' for Inactive)
REMARK    1  A    between atoms: C_1  and  C_2
REMARK    2  A    between atoms: C_4  and  C_5
REMARK    3  A    between atoms: N_6  and  C_7
REMARK    4  A    between atoms: C_7  and  C_8
REMARK    5  A    between atoms: C_12  and  C_13
REMARK    6  A    between atoms: C_16  and  C_17
REMARK    7  A    between atoms: C_21  and  O_22
REMARK                            x       y       z     vdW  Elec       q    Type
REMARK                         _______ _______ _______ _____ _____    ______ ____
ROOT
ATOM      1  C   UNL     1       7.422   6.670  17.540  0.00  0.00    +0.000 A 
ATOM      2  N   UNL     1       8.050   6.371  18.690  0.00  0.00    +0.000 NA
ATOM      3  O   UNL     1       8.584   7.580  19.104  0.00  0.00    +0.000 OA
ATOM      4  C   UNL     1       8.237   8.515  18.170  0.00  0.00    +0.000 A 
ATOM      5  N   UNL     1       7.530   8.005  17.183  0.00  0.00    +0.000 NA
ENDROOT
BRANCH   4   6
ATOM      6  C   UNL     1       8.695   9.880  18.431  0.00  0.00    +0.000 A 
ATOM      7  C   UNL     1       8.286  10.947  17.610  0.00  0.00    +0.000 A 
ATOM      8  C   UNL     1       8.710  12.248  17.878  0.00  0.00    +0.000 A 
ATOM      9  F   UNL     1       8.301  13.251  17.087  0.00  0.00    +0.000 F 
ATOM     10  C   UNL     1       9.545  12.524  18.950  0.00  0.00    +0.000 A 
ATOM     11  C   UNL     1       9.966  11.473  19.759  0.00  0.00    +0.000 A 
ATOM     12  F   UNL     1      10.778  11.710  20.799  0.00  0.00    +0.000 F 
ATOM     13  C   UNL     1       9.550  10.163  19.507  0.00  0.00    +0.000 A 
BRANCH  10  14
ATOM     14  O   UNL     1       9.943  13.804  19.208  0.00  0.00    +0.000 OA
ATOM     15  H   UNL     1      10.473  14.108  18.443  0.00  0.00    +0.000 HD
ENDBRANCH  10  14
ENDBRANCH   4   6
BRANCH   1  20
ATOM     16  C   UNL     1       4.648   4.266  16.571  0.00  0.00    +0.000 A 
ATOM     17  C   UNL     1       5.061   3.912  15.280  0.00  0.00    +0.000 A 
ATOM     18  C   UNL     1       6.245   4.427  14.748  0.00  0.00    +0.000 A 
ATOM     19  C   UNL     1       7.033   5.310  15.492  0.00  0.00    +0.000 A 
ATOM     20  C   UNL     1       6.647   5.686  16.783  0.00  0.00    +0.000 A 
ATOM     21  C   UNL     1       5.461   5.140  17.317  0.00  0.00    +0.000 A 
BRANCH  16  22
ATOM     22  C   UNL     1       3.320   3.784  17.108  0.00  0.00    +0.000 C 
BRANCH  22  28
ATOM     23  C   UNL     1       1.970   7.425  20.008  0.00  0.00    +0.000 C 
ATOM     24  C   UNL     1       2.382   6.056  19.618  0.00  0.00    +0.000 A 
ATOM     25  C   UNL     1       2.699   4.978  20.470  0.00  0.00    +0.000 A 
ATOM     26  C   UNL     1       3.060   3.941  19.636  0.00  0.00    +0.000 A 
ATOM     27  C   UNL     1       3.535   2.578  19.965  0.00  0.00    +0.000 C 
ATOM     28  N   UNL     1       2.914   4.427  18.355  0.00  0.00    +0.000 N 
ATOM     29  N   UNL     1       2.520   5.723  18.330  0.00  0.00    +0.000 NA
ENDBRANCH  22  28
ENDBRANCH  16  22
ENDBRANCH   1  20
TORSDOF 5
ENDMDL
MODEL 6
REMARK VINA RESULT:      -8.9      7.540      9.394
REMARK  Name = 
REMARK  7 active torsions:
REMARK  status: ('A' for Active; 'I' for Inactive)
REMARK    1  A    between atoms: C_1  and  C_2
REMARK    2  A    between atoms: C_4  and  C_5
REMARK    3  A    between atoms: N_6  and  C_7
REMARK    4  A    between atoms: C_7  and  C_8
REMARK    5  A    between atoms: C_12  and  C_13
REMARK    6  A    between atoms: C_16  and  C_17
REMARK    7  A    between atoms: C_21  and  O_22
REMARK                            x       y       z     vdW  Elec       q    Type
REMARK                         _______ _______ _______ _____ _____    ______ ____
ROOT
ATOM      1  C   UNL     1       0.403  10.058  21.394  0.00  0.00    +0.000 A 
ATOM      2  N   UNL     1       0.563   9.622  22.655  0.00  0.00    +0.000 NA
ATOM      3  O   UNL     1      -0.227  10.476  23.406  0.00  0.00    +0.000 OA
ATOM      4  C   UNL     1      -0.801  11.363  22.540  0.00  0.00    +0.000 A 
ATOM      5  N   UNL     1      -0.438  11.155  21.291  0.00  0.00    +0.000 NA
ENDROOT
BRANCH   4   6
ATOM      6  C   UNL     1      -1.696  12.353  23.138  0.00  0.00    +0.000 A 
ATOM      7  C   UNL     1      -2.980  11.989  23.584  0.00  0.00    +0.000 A 
ATOM      8  C   UNL     1      -3.820  12.933  24.172  0.00  0.00    +0.000 A 
ATOM      9  F   UNL     1      -5.036  12.561  24.598  0.00  0.00    +0.000 F 
ATOM     10  C   UNL     1      -3.417  14.251  24.330  0.00  0.00    +0.000 A 
ATOM     11  C   UNL     1      -2.155  14.624  23.879  0.00  0.00    +0.000 A 
ATOM     12  F   UNL     1      -1.742  15.893  24.013  0.00  0.00    +0.000 F 
ATOM     13  C   UNL     1      -1.299  13.691  23.288  0.00  0.00    +0.000 A 
BRANCH  10  14
ATOM     14  O   UNL     1      -4.244  15.163  24.919  0.00  0.00    +0.000 OA
ATOM     15  H   UNL     1      -4.216  15.979  24.379  0.00  0.00    +0.000 HD
ENDBRANCH  10  14
ENDBRANCH   4   6
BRANCH   1  20
ATOM     16  C   UNL     1       2.370   7.554  19.327  0.00  0.00    +0.000 A 
ATOM     17  C   UNL     1       2.066   8.000  18.034  0.00  0.00    +0.000 A 
ATOM     18  C   UNL     1       1.257   9.122  17.842  0.00  0.00    +0.000 A 
ATOM     19  C   UNL     1       0.731   9.812  18.938  0.00  0.00    +0.000 A 
ATOM     20  C   UNL     1       1.012   9.390  20.242  0.00  0.00    +0.000 A 
ATOM     21  C   UNL     1       1.851   8.271  20.421  0.00  0.00    +0.000 A 
BRANCH  16  22
ATOM     22  C   UNL     1       3.167   6.286  19.530  0.00  0.00    +0.000 C 
BRANCH  22  28
ATOM     23  C   UNL     1       0.578   2.274  18.700  0.00  0.00    +0.000 C 
ATOM     24  C   UNL     1       1.569   3.348  18.455  0.00  0.00    +0.000 A 
ATOM     25  C   UNL     1       2.504   3.431  17.403  0.00  0.00    +0.000 A 
ATOM     26  C   UNL     1       3.220   4.586  17.635  0.00  0.00    +0.000 A 
ATOM     27  C   UNL     1       4.363   5.162  16.890  0.00  0.00    +0.000 C 
ATOM     28  N   UNL     1       2.671   5.142  18.769  0.00  0.00    +0.000 N 
ATOM     29  N   UNL     1       1.674   4.386  19.291  0.00  0.00    +0.000 NA
ENDBRANCH  22  28
ENDBRANCH  16  22
ENDBRANCH   1  20
TORSDOF 5
ENDMDL
MODEL 7
REMARK VINA RESULT:      -8.9      6.385      9.512
REMARK  Name = 
REMARK  7 active torsions:
REMARK  status: ('A' for Active; 'I' for Inactive)
REMARK    1  A    between atoms: C_1  and  C_2
REMARK    2  A    between atoms: C_4  and  C_5
REMARK    3  A    between atoms: N_6  and  C_7
REMARK    4  A    between atoms: C_7  and  C_8
REMARK    5  A    between atoms: C_12  and  C_13
REMARK    6  A    between atoms: C_16  and  C_17
REMARK    7  A    between atoms: C_21  and  O_22
REMARK                            x       y       z     vdW  Elec       q    Type
REMARK                         _______ _______ _______ _____ _____    ______ ____
ROOT
ATOM      1  C   UNL     1       1.366   8.731  19.828  0.00  0.00    +0.000 A 
ATOM      2  N   UNL     1       1.813   8.794  18.562  0.00  0.00    +0.000 NA
ATOM      3  O   UNL     1       2.506   7.608  18.392  0.00  0.00    +0.000 OA
ATOM      4  C   UNL     1       2.425   6.920  19.570  0.00  0.00    +0.000 A 
ATOM      5  N   UNL     1       1.743   7.572  20.489  0.00  0.00    +0.000 NA
ENDROOT
BRANCH   4   6
ATOM      6  C   UNL     1       3.088   5.616  19.597  0.00  0.00    +0.000 A 
ATOM      7  C   UNL     1       4.351   5.438  19.005  0.00  0.00    +0.000 A 
ATOM      8  C   UNL     1       4.986   4.197  19.052  0.00  0.00    +0.000 A 
ATOM      9  F   UNL     1       6.195   4.052  18.489  0.00  0.00    +0.000 F 
ATOM     10  C   UNL     1       4.391   3.111  19.676  0.00  0.00    +0.000 A 
ATOM     11  C   UNL     1       3.135   3.274  20.252  0.00  0.00    +0.000 A 
ATOM     12  F   UNL     1       2.534   2.239  20.856  0.00  0.00    +0.000 F 
ATOM     13  C   UNL     1       2.484   4.511  20.215  0.00  0.00    +0.000 A 
BRANCH  10  14
ATOM     14  O   UNL     1       5.029   1.905  19.726  0.00  0.00    +0.000 OA
ATOM     15  H   UNL     1       5.622   1.916  20.504  0.00  0.00    +0.000 HD
ENDBRANCH  10  14
ENDBRANCH   4   6
BRANCH   1  20
ATOM     16  C   UNL     1      -1.058  11.637  20.134  0.00  0.00    +0.000 A 
ATOM     17  C   UNL     1      -1.259  11.652  21.520  0.00  0.00    +0.000 A 
ATOM     18  C   UNL     1      -0.588  10.747  22.345  0.00  0.00    +0.000 A 
ATOM     19  C   UNL     1       0.290   9.806  21.798  0.00  0.00    +0.000 A 
ATOM     20  C   UNL     1       0.510   9.762  20.418  0.00  0.00    +0.000 A 
ATOM     21  C   UNL     1      -0.156  10.698  19.599  0.00  0.00    +0.000 A 
BRANCH  16  22
ATOM     22  C   UNL     1      -1.857  12.553  19.235  0.00  0.00    +0.000 C 
BRANCH  22  28
ATOM     23  C   UNL     1      -3.193  10.489  15.059  0.00  0.00    +0.000 C 
ATOM     24  C   UNL     1      -3.322  11.008  16.440  0.00  0.00    +0.000 A 
ATOM     25  C   UNL     1      -4.500  11.137  17.205  0.00  0.00    +0.000 A 
ATOM     26  C   UNL     1      -4.107  11.704  18.398  0.00  0.00    +0.000 A 
ATOM     27  C   UNL     1      -4.916  12.115  19.567  0.00  0.00    +0.000 C 
ATOM     28  N   UNL     1      -2.740  11.853  18.306  0.00  0.00    +0.000 N 
ATOM     29  N   UNL     1      -2.251  11.450  17.108  0.00  0.00    +0.000 NA
ENDBRANCH  22  28
ENDBRANCH  16  22
ENDBRANCH   1  20
TORSDOF 5
ENDMDL
MODEL 8
REMARK VINA RESULT:      -8.8      7.403      9.419
REMARK  Name = 
REMARK  7 active torsions:
REMARK  status: ('A' for Active; 'I' for Inactive)
REMARK    1  A    between atoms: C_1  and  C_2
REMARK    2  A    between atoms: C_4  and  C_5
REMARK    3  A    between atoms: N_6  and  C_7
REMARK    4  A    between atoms: C_7  and  C_8
REMARK    5  A    between atoms: C_12  and  C_13
REMARK    6  A    between atoms: C_16  and  C_17
REMARK    7  A    between atoms: C_21  and  O_22
REMARK                            x       y       z     vdW  Elec       q    Type
REMARK                         _______ _______ _______ _____ _____    ______ ____
ROOT
ATOM      1  C   UNL     1       0.553   9.897  21.440  0.00  0.00    +0.000 A 
ATOM      2  N   UNL     1       0.737   9.525  22.718  0.00  0.00    +0.000 NA
ATOM      3  O   UNL     1      -0.066  10.392  23.438  0.00  0.00    +0.000 OA
ATOM      4  C   UNL     1      -0.672  11.223  22.538  0.00  0.00    +0.000 A 
ATOM      5  N   UNL     1      -0.318  10.967  21.296  0.00  0.00    +0.000 NA
ENDROOT
BRANCH   4   6
ATOM      6  C   UNL     1      -1.586  12.218  23.101  0.00  0.00    +0.000 A 
ATOM      7  C   UNL     1      -2.881  11.855  23.513  0.00  0.00    +0.000 A 
ATOM      8  C   UNL     1      -3.740  12.804  24.067  0.00  0.00    +0.000 A 
ATOM      9  F   UNL     1      -4.967  12.434  24.461  0.00  0.00    +0.000 F 
ATOM     10  C   UNL     1      -3.344  14.124  24.223  0.00  0.00    +0.000 A 
ATOM     11  C   UNL     1      -2.070  14.495  23.806  0.00  0.00    +0.000 A 
ATOM     12  F   UNL     1      -1.663  15.766  23.938  0.00  0.00    +0.000 F 
ATOM     13  C   UNL     1      -1.195  13.557  23.248  0.00  0.00    +0.000 A 
BRANCH  10  14
ATOM     14  O   UNL     1      -4.189  15.040  24.779  0.00  0.00    +0.000 OA
ATOM     15  H   UNL     1      -3.952  15.919  24.417  0.00  0.00    +0.000 HD
ENDBRANCH  10  14
ENDBRANCH   4   6
BRANCH   1  20
ATOM     16  C   UNL     1       2.272   7.186  19.413  0.00  0.00    +0.000 A 
ATOM     17  C   UNL     1       2.212   7.752  18.133  0.00  0.00    +0.000 A 
ATOM     18  C   UNL     1       1.646   9.014  17.941  0.00  0.00    +0.000 A 
ATOM     19  C   UNL     1       1.124   9.729  19.023  0.00  0.00    +0.000 A 
ATOM     20  C   UNL     1       1.166   9.192  20.313  0.00  0.00    +0.000 A 
ATOM     21  C   UNL     1       1.762   7.926  20.496  0.00  0.00    +0.000 A 
BRANCH  16  22
ATOM     22  C   UNL     1       2.798   5.782  19.605  0.00  0.00    +0.000 C 
BRANCH  22  28
ATOM     23  C   UNL     1       6.791   6.004  16.867  0.00  0.00    +0.000 C 
ATOM     24  C   UNL     1       5.479   5.514  17.349  0.00  0.00    +0.000 A 
ATOM     25  C   UNL     1       4.653   4.538  16.755  0.00  0.00    +0.000 A 
ATOM     26  C   UNL     1       3.531   4.466  17.552  0.00  0.00    +0.000 A 
ATOM     27  C   UNL     1       2.305   3.650  17.396  0.00  0.00    +0.000 C 
ATOM     28  N   UNL     1       3.748   5.357  18.579  0.00  0.00    +0.000 N 
ATOM     29  N   UNL     1       4.924   6.019  18.457  0.00  0.00    +0.000 NA
ENDBRANCH  22  28
ENDBRANCH  16  22
ENDBRANCH   1  20
TORSDOF 5
ENDMDL
MODEL 9
REMARK VINA RESULT:      -8.8      7.119      9.672
REMARK  Name = 
REMARK  7 active torsions:
REMARK  status: ('A' for Active; 'I' for Inactive)
REMARK    1  A    between atoms: C_1  and  C_2
REMARK    2  A    between atoms: C_4  and  C_5
REMARK    3  A    between atoms: N_6  and  C_7
REMARK    4  A    between atoms: C_7  and  C_8
REMARK    5  A    between atoms: C_12  and  C_13
REMARK    6  A    between atoms: C_16  and  C_17
REMARK    7  A    between atoms: C_21  and  O_22
REMARK                            x       y       z     vdW  Elec       q    Type
REMARK                         _______ _______ _______ _____ _____    ______ ____
ROOT
ATOM      1  C   UNL     1       1.283   8.922  19.704  0.00  0.00    +0.000 A 
ATOM      2  N   UNL     1       1.193   9.397  18.450  0.00  0.00    +0.000 NA
ATOM      3  O   UNL     1       1.933   8.500  17.699  0.00  0.00    +0.000 OA
ATOM      4  C   UNL     1       2.415   7.553  18.559  0.00  0.00    +0.000 A 
ATOM      5  N   UNL     1       2.051   7.773  19.806  0.00  0.00    +0.000 NA
ENDROOT
BRANCH   4   6
ATOM      6  C   UNL     1       3.220   6.491  17.956  0.00  0.00    +0.000 A 
ATOM      7  C   UNL     1       4.429   6.788  17.299  0.00  0.00    +0.000 A 
ATOM      8  C   UNL     1       5.202   5.768  16.744  0.00  0.00    +0.000 A 
ATOM      9  F   UNL     1       6.354   6.073  16.131  0.00  0.00    +0.000 F 
ATOM     10  C   UNL     1       4.800   4.443  16.821  0.00  0.00    +0.000 A 
ATOM     11  C   UNL     1       3.599   4.141  17.455  0.00  0.00    +0.000 A 
ATOM     12  F   UNL     1       3.184   2.869  17.537  0.00  0.00    +0.000 F 
ATOM     13  C   UNL     1       2.812   5.150  18.018  0.00  0.00    +0.000 A 
BRANCH  10  14
ATOM     14  O   UNL     1       5.572   3.453  16.284  0.00  0.00    +0.000 OA
ATOM     15  H   UNL     1       5.769   3.701  15.357  0.00  0.00    +0.000 HD
ENDBRANCH  10  14
ENDBRANCH   4   6
BRANCH   1  20
ATOM     16  C   UNL     1      -0.948  11.254  21.703  0.00  0.00    +0.000 A 
ATOM     17  C   UNL     1      -0.905  10.631  22.957  0.00  0.00    +0.000 A 
ATOM     18  C   UNL     1      -0.131   9.484  23.153  0.00  0.00    +0.000 A 
ATOM     19  C   UNL     1       0.604   8.936  22.099  0.00  0.00    +0.000 A 
ATOM     20  C   UNL     1       0.579   9.532  20.833  0.00  0.00    +0.000 A 
ATOM     21  C   UNL     1      -0.186  10.703  20.656  0.00  0.00    +0.000 A 
BRANCH  16  22
ATOM     22  C   UNL     1      -1.859  12.437  21.469  0.00  0.00    +0.000 C 
BRANCH  22  28
ATOM     23  C   UNL     1      -5.902  12.708  24.127  0.00  0.00    +0.000 C 
ATOM     24  C   UNL     1      -4.492  12.946  23.738  0.00  0.00    +0.000 A 
ATOM     25  C   UNL     1      -3.565  13.813  24.351  0.00  0.00    +0.000 A 
ATOM     26  C   UNL     1      -2.413  13.713  23.602  0.00  0.00    +0.000 A 
ATOM     27  C   UNL     1      -1.123  14.427  23.741  0.00  0.00    +0.000 C 
ATOM     28  N   UNL     1      -2.688  12.787  22.620  0.00  0.00    +0.000 N 
ATOM     29  N   UNL     1      -3.960  12.326  22.679  0.00  0.00    +0.000 NA
ENDBRANCH  22  28
ENDBRANCH  16  22
ENDBRANCH   1  20
TORSDOF 5
ENDMDL
