MODEL 1
REMARK VINA RESULT:      -6.9      0.000      0.000
REMARK  Name = 
REMARK  4 active torsions:
REMARK  status: ('A' for Active; 'I' for Inactive)
REMARK    1  A    between atoms: C_2  and  C_3
REMARK    2  A    between atoms: C_3  and  O_4
REMARK    3  A    between atoms: O_4  and  C_5
REMARK    4  A    between atoms: C_9  and  C_10
REMARK                            x       y       z     vdW  Elec       q    Type
REMARK                         _______ _______ _______ _____ _____    ______ ____
ROOT
ATOM      1  C   UNL     1      -2.118  13.449  20.685  0.00  0.00    +0.000 C 
ATOM      2  C   UNL     1      -3.579  13.440  21.042  0.00  0.00    +0.000 A 
ATOM      3  C   UNL     1      -3.810  12.483  21.958  0.00  0.00    +0.000 A 
ATOM      4  O   UNL     1      -4.943  12.243  22.663  0.00  0.00    +0.000 OA
ATOM      5  C   UNL     1      -5.757  13.324  22.868  0.00  0.00    +0.000 A 
ATOM      6  C   UNL     1      -6.777  13.137  23.804  0.00  0.00    +0.000 A 
ATOM      7  C   UNL     1      -7.573  14.210  24.175  0.00  0.00    +0.000 A 
ATOM      8  C   UNL     1      -7.339  15.468  23.615  0.00  0.00    +0.000 A 
ATOM      9  C   UNL     1      -6.331  15.648  22.650  0.00  0.00    +0.000 A 
ATOM     10  C   UNL     1      -5.540  14.555  22.246  0.00  0.00    +0.000 A 
ATOM     11  C   UNL     1      -4.444  14.642  21.212  0.00  0.00    +0.000 A 
ATOM     12  O   UNL     1      -4.203  15.681  20.612  0.00  0.00    +0.000 OA
ATOM     13  C   UNL     1      -2.463  12.255  22.589  0.00  0.00    +0.000 C 
ATOM     14  O   UNL     1      -2.261  11.477  23.502  0.00  0.00    +0.000 OA
ATOM     15  N   UNL     1      -1.590  13.192  22.017  0.00  0.00    +0.000 N 
ATOM     16  C   UNL     1      -1.245  14.218  22.902  0.00  0.00    +0.000 A 
ATOM     17  N   UNL     1      -1.724  14.375  24.116  0.00  0.00    +0.000 NA
ATOM     18  C   UNL     1      -1.216  15.525  24.685  0.00  0.00    +0.000 A 
ATOM     19  C   UNL     1      -0.342  16.236  23.893  0.00  0.00    +0.000 A 
ATOM     20  S   UNL     1      -0.184  15.454  22.370  0.00  0.00    +0.000 S 
ENDROOT
BRANCH   1  25
ATOM     21  C   UNL     1       0.075  10.720  18.845  0.00  0.00    +0.000 A 
ATOM     22  C   UNL     1      -0.870  10.204  17.963  0.00  0.00    +0.000 A 
ATOM     23  C   UNL     1      -2.138  10.773  17.894  0.00  0.00    +0.000 A 
ATOM     24  C   UNL     1      -2.493  11.812  18.763  0.00  0.00    +0.000 A 
ATOM     25  C   UNL     1      -1.609  12.281  19.762  0.00  0.00    +0.000 A 
ATOM     26  C   UNL     1      -0.298  11.728  19.765  0.00  0.00    +0.000 A 
BRANCH  21  27
ATOM     27  O   UNL     1       1.319  10.142  18.733  0.00  0.00    +0.000 OA
BRANCH  27  28
ATOM     28  C   UNL     1       1.390   9.007  17.871  0.00  0.00    +0.000 C 
BRANCH  28  30
ATOM     29  C   UNL     1       2.984   6.987  18.057  0.00  0.00    +0.000 C 
ATOM     30  C   UNL     1       2.725   8.300  17.938  0.00  0.00    +0.000 C 
ENDBRANCH  28  30
ENDBRANCH  27  28
ENDBRANCH  21  27
ENDBRANCH   1  25
TORSDOF 4
ENDMDL
MODEL 2
REMARK VINA RESULT:      -6.7      2.968      5.250
REMARK  Name = 
REMARK  4 active torsions:
REMARK  status: ('A' for Active; 'I' for Inactive)
REMARK    1  A    between atoms: C_2  and  C_3
REMARK    2  A    between atoms: C_3  and  O_4
REMARK    3  A    between atoms: O_4  and  C_5
REMARK    4  A    between atoms: C_9  and  C_10
REMARK                            x       y       z     vdW  Elec       q    Type
REMARK                         _______ _______ _______ _____ _____    ______ ____
ROOT
ATOM      1  C   UNL     1       0.508  11.480  20.717  0.00  0.00    +0.000 C 
ATOM      2  C   UNL     1       0.791  12.828  20.113  0.00  0.00    +0.000 A 
ATOM      3  C   UNL     1      -0.009  13.018  19.050  0.00  0.00    +0.000 A 
ATOM      4  O   UNL     1      -0.193  14.148  18.322  0.00  0.00    +0.000 OA
ATOM      5  C   UNL     1       0.033  15.325  18.982  0.00  0.00    +0.000 A 
ATOM      6  C   UNL     1      -0.405  16.475  18.322  0.00  0.00    +0.000 A 
ATOM      7  C   UNL     1      -0.338  17.703  18.964  0.00  0.00    +0.000 A 
ATOM      8  C   UNL     1       0.159  17.772  20.268  0.00  0.00    +0.000 A 
ATOM      9  C   UNL     1       0.628  16.617  20.920  0.00  0.00    +0.000 A 
ATOM     10  C   UNL     1       0.590  15.373  20.261  0.00  0.00    +0.000 A 
ATOM     11  C   UNL     1       1.079  14.081  20.869  0.00  0.00    +0.000 A 
ATOM     12  O   UNL     1       1.594  14.042  21.979  0.00  0.00    +0.000 OA
ATOM     13  C   UNL     1      -1.157  12.074  19.288  0.00  0.00    +0.000 C 
ATOM     14  O   UNL     1      -2.122  11.977  18.553  0.00  0.00    +0.000 OA
ATOM     15  N   UNL     1      -0.937  11.487  20.542  0.00  0.00    +0.000 N 
ATOM     16  C   UNL     1      -1.813  11.963  21.522  0.00  0.00    +0.000 A 
ATOM     17  N   UNL     1      -2.704  12.915  21.355  0.00  0.00    +0.000 NA
ATOM     18  C   UNL     1      -3.353  13.176  22.545  0.00  0.00    +0.000 A 
ATOM     19  C   UNL     1      -2.949  12.409  23.614  0.00  0.00    +0.000 A 
ATOM     20  S   UNL     1      -1.687  11.352  23.118  0.00  0.00    +0.000 S 
ENDROOT
BRANCH   1  25
ATOM     21  C   UNL     1       1.815   7.886  19.708  0.00  0.00    +0.000 A 
ATOM     22  C   UNL     1       2.113   8.105  18.366  0.00  0.00    +0.000 A 
ATOM     23  C   UNL     1       1.989   9.381  17.827  0.00  0.00    +0.000 A 
ATOM     24  C   UNL     1       1.491  10.432  18.608  0.00  0.00    +0.000 A 
ATOM     25  C   UNL     1       1.054  10.227  19.937  0.00  0.00    +0.000 A 
ATOM     26  C   UNL     1       1.256   8.929  20.482  0.00  0.00    +0.000 A 
BRANCH  21  27
ATOM     27  O   UNL     1       2.088   6.608  20.140  0.00  0.00    +0.000 OA
BRANCH  27  28
ATOM     28  C   UNL     1       2.532   5.703  19.130  0.00  0.00    +0.000 C 
BRANCH  28  30
ATOM     29  C   UNL     1       0.969   3.880  20.074  0.00  0.00    +0.000 C 
ATOM     30  C   UNL     1       1.756   4.405  19.120  0.00  0.00    +0.000 C 
ENDBRANCH  28  30
ENDBRANCH  27  28
ENDBRANCH  21  27
ENDBRANCH   1  25
TORSDOF 4
ENDMDL
MODEL 3
REMARK VINA RESULT:      -6.6      1.090      1.453
REMARK  Name = 
REMARK  4 active torsions:
REMARK  status: ('A' for Active; 'I' for Inactive)
REMARK    1  A    between atoms: C_2  and  C_3
REMARK    2  A    between atoms: C_3  and  O_4
REMARK    3  A    between atoms: O_4  and  C_5
REMARK    4  A    between atoms: C_9  and  C_10
REMARK                            x       y       z     vdW  Elec       q    Type
REMARK                         _______ _______ _______ _____ _____    ______ ____
ROOT
ATOM      1  C   UNL     1      -2.509  13.371  20.598  0.00  0.00    +0.000 C 
ATOM      2  C   UNL     1      -3.966  13.390  20.973  0.00  0.00    +0.000 A 
ATOM      3  C   UNL     1      -4.193  12.477  21.933  0.00  0.00    +0.000 A 
ATOM      4  O   UNL     1      -5.319  12.278  22.661  0.00  0.00    +0.000 OA
ATOM      5  C   UNL     1      -6.122  13.374  22.828  0.00  0.00    +0.000 A 
ATOM      6  C   UNL     1      -7.131  13.237  23.783  0.00  0.00    +0.000 A 
ATOM      7  C   UNL     1      -7.914  14.332  24.117  0.00  0.00    +0.000 A 
ATOM      8  C   UNL     1      -7.677  15.562  23.499  0.00  0.00    +0.000 A 
ATOM      9  C   UNL     1      -6.680  15.691  22.515  0.00  0.00    +0.000 A 
ATOM     10  C   UNL     1      -5.903  14.574  22.151  0.00  0.00    +0.000 A 
ATOM     11  C   UNL     1      -4.819  14.606  21.100  0.00  0.00    +0.000 A 
ATOM     12  O   UNL     1      -4.577  15.616  20.452  0.00  0.00    +0.000 OA
ATOM     13  C   UNL     1      -2.840  12.265  22.557  0.00  0.00    +0.000 C 
ATOM     14  O   UNL     1      -2.633  11.526  23.501  0.00  0.00    +0.000 OA
ATOM     15  N   UNL     1      -1.967  13.169  21.934  0.00  0.00    +0.000 N 
ATOM     16  C   UNL     1      -1.603  14.230  22.769  0.00  0.00    +0.000 A 
ATOM     17  N   UNL     1      -2.065  14.444  23.980  0.00  0.00    +0.000 NA
ATOM     18  C   UNL     1      -1.541  15.614  24.491  0.00  0.00    +0.000 A 
ATOM     19  C   UNL     1      -0.672  16.281  23.658  0.00  0.00    +0.000 A 
ATOM     20  S   UNL     1      -0.538  15.432  22.169  0.00  0.00    +0.000 S 
ENDROOT
BRANCH   1  25
ATOM     21  C   UNL     1      -0.437  10.396  19.019  0.00  0.00    +0.000 A 
ATOM     22  C   UNL     1      -1.290  10.031  17.981  0.00  0.00    +0.000 A 
ATOM     23  C   UNL     1      -2.442  10.771  17.737  0.00  0.00    +0.000 A 
ATOM     24  C   UNL     1      -2.789  11.835  18.580  0.00  0.00    +0.000 A 
ATOM     25  C   UNL     1      -2.021  12.159  19.721  0.00  0.00    +0.000 A 
ATOM     26  C   UNL     1      -0.814  11.430  19.907  0.00  0.00    +0.000 A 
BRANCH  21  27
ATOM     27  O   UNL     1       0.719   9.652  19.080  0.00  0.00    +0.000 OA
BRANCH  27  28
ATOM     28  C   UNL     1       1.155   9.306  20.394  0.00  0.00    +0.000 C 
BRANCH  28  30
ATOM     29  C   UNL     1      -0.422   8.900  22.395  0.00  0.00    +0.000 C 
ATOM     30  C   UNL     1       0.096   8.584  21.196  0.00  0.00    +0.000 C 
ENDBRANCH  28  30
ENDBRANCH  27  28
ENDBRANCH  21  27
ENDBRANCH   1  25
TORSDOF 4
ENDMDL
MODEL 4
REMARK VINA RESULT:      -6.5      3.055      7.589
REMARK  Name = 
REMARK  4 active torsions:
REMARK  status: ('A' for Active; 'I' for Inactive)
REMARK    1  A    between atoms: C_2  and  C_3
REMARK    2  A    between atoms: C_3  and  O_4
REMARK    3  A    between atoms: O_4  and  C_5
REMARK    4  A    between atoms: C_9  and  C_10
REMARK                            x       y       z     vdW  Elec       q    Type
REMARK                         _______ _______ _______ _____ _____    ______ ____
ROOT
ATOM      1  C   UNL     1      -1.956  13.461  20.652  0.00  0.00    +0.000 C 
ATOM      2  C   UNL     1      -0.660  14.213  20.780  0.00  0.00    +0.000 A 
ATOM      3  C   UNL     1       0.081  13.665  21.760  0.00  0.00    +0.000 A 
ATOM      4  O   UNL     1       1.368  13.929  22.094  0.00  0.00    +0.000 OA
ATOM      5  C   UNL     1       2.163  14.397  21.082  0.00  0.00    +0.000 A 
ATOM      6  C   UNL     1       3.532  14.417  21.357  0.00  0.00    +0.000 A 
ATOM      7  C   UNL     1       4.428  14.752  20.353  0.00  0.00    +0.000 A 
ATOM      8  C   UNL     1       3.950  15.056  19.076  0.00  0.00    +0.000 A 
ATOM      9  C   UNL     1       2.569  15.064  18.809  0.00  0.00    +0.000 A 
ATOM     10  C   UNL     1       1.653  14.755  19.833  0.00  0.00    +0.000 A 
ATOM     11  C   UNL     1       0.155  14.748  19.651  0.00  0.00    +0.000 A 
ATOM     12  O   UNL     1      -0.369  15.064  18.591  0.00  0.00    +0.000 OA
ATOM     13  C   UNL     1      -0.464  12.268  21.886  0.00  0.00    +0.000 C 
ATOM     14  O   UNL     1      -0.025  11.432  22.653  0.00  0.00    +0.000 OA
ATOM     15  N   UNL     1      -1.428  12.124  20.878  0.00  0.00    +0.000 N 
ATOM     16  C   UNL     1      -0.999  11.297  19.835  0.00  0.00    +0.000 A 
ATOM     17  N   UNL     1       0.196  10.760  19.726  0.00  0.00    +0.000 NA
ATOM     18  C   UNL     1       0.297  10.055  18.544  0.00  0.00    +0.000 A 
ATOM     19  C   UNL     1      -0.835  10.057  17.760  0.00  0.00    +0.000 A 
ATOM     20  S   UNL     1      -2.053  11.008  18.515  0.00  0.00    +0.000 S 
ENDROOT
BRANCH   1  25
ATOM     21  C   UNL     1      -4.886  13.091  23.283  0.00  0.00    +0.000 A 
ATOM     22  C   UNL     1      -4.964  14.403  23.744  0.00  0.00    +0.000 A 
ATOM     23  C   UNL     1      -4.172  15.390  23.167  0.00  0.00    +0.000 A 
ATOM     24  C   UNL     1      -3.239  15.056  22.177  0.00  0.00    +0.000 A 
ATOM     25  C   UNL     1      -3.035  13.718  21.769  0.00  0.00    +0.000 A 
ATOM     26  C   UNL     1      -3.905  12.741  22.327  0.00  0.00    +0.000 A 
BRANCH  21  27
ATOM     27  O   UNL     1      -5.801  12.240  23.860  0.00  0.00    +0.000 OA
BRANCH  27  28
ATOM     28  C   UNL     1      -7.166  12.502  23.540  0.00  0.00    +0.000 C 
BRANCH  28  30
ATOM     29  C   UNL     1      -7.916  13.176  21.165  0.00  0.00    +0.000 C 
ATOM     30  C   UNL     1      -7.479  12.290  22.075  0.00  0.00    +0.000 C 
ENDBRANCH  28  30
ENDBRANCH  27  28
ENDBRANCH  21  27
ENDBRANCH   1  25
TORSDOF 4
ENDMDL
MODEL 5
REMARK VINA RESULT:      -6.5      3.274      5.077
REMARK  Name = 
REMARK  4 active torsions:
REMARK  status: ('A' for Active; 'I' for Inactive)
REMARK    1  A    between atoms: C_2  and  C_3
REMARK    2  A    between atoms: C_3  and  O_4
REMARK    3  A    between atoms: O_4  and  C_5
REMARK    4  A    between atoms: C_9  and  C_10
REMARK                            x       y       z     vdW  Elec       q    Type
REMARK                         _______ _______ _______ _____ _____    ______ ____
ROOT
ATOM      1  C   UNL     1      -0.921  13.159  19.319  0.00  0.00    +0.000 C 
ATOM      2  C   UNL     1      -1.509  13.825  20.532  0.00  0.00    +0.000 A 
ATOM      3  C   UNL     1      -1.393  13.006  21.593  0.00  0.00    +0.000 A 
ATOM      4  O   UNL     1      -1.644  13.273  22.899  0.00  0.00    +0.000 OA
ATOM      5  C   UNL     1      -1.514  14.583  23.274  0.00  0.00    +0.000 A 
ATOM      6  C   UNL     1      -1.514  14.814  24.651  0.00  0.00    +0.000 A 
ATOM      7  C   UNL     1      -1.260  16.089  25.134  0.00  0.00    +0.000 A 
ATOM      8  C   UNL     1      -0.997  17.126  24.236  0.00  0.00    +0.000 A 
ATOM      9  C   UNL     1      -1.027  16.898  22.847  0.00  0.00    +0.000 A 
ATOM     10  C   UNL     1      -1.315  15.612  22.352  0.00  0.00    +0.000 A 
ATOM     11  C   UNL     1      -1.383  15.269  20.883  0.00  0.00    +0.000 A 
ATOM     12  O   UNL     1      -1.235  16.117  20.014  0.00  0.00    +0.000 OA
ATOM     13  C   UNL     1      -0.272  12.078  21.211  0.00  0.00    +0.000 C 
ATOM     14  O   UNL     1       0.164  11.202  21.935  0.00  0.00    +0.000 OA
ATOM     15  N   UNL     1       0.214  12.526  19.975  0.00  0.00    +0.000 N 
ATOM     16  C   UNL     1       1.465  13.143  20.078  0.00  0.00    +0.000 A 
ATOM     17  N   UNL     1       2.114  13.375  21.198  0.00  0.00    +0.000 NA
ATOM     18  C   UNL     1       3.286  14.056  20.938  0.00  0.00    +0.000 A 
ATOM     19  C   UNL     1       3.522  14.333  19.610  0.00  0.00    +0.000 A 
ATOM     20  S   UNL     1       2.211  13.753  18.661  0.00  0.00    +0.000 S 
ENDROOT
BRANCH   1  25
ATOM     21  C   UNL     1      -3.846  10.765  18.154  0.00  0.00    +0.000 A 
ATOM     22  C   UNL     1      -3.112   9.801  17.469  0.00  0.00    +0.000 A 
ATOM     23  C   UNL     1      -1.722   9.864  17.459  0.00  0.00    +0.000 A 
ATOM     24  C   UNL     1      -1.060  10.937  18.070  0.00  0.00    +0.000 A 
ATOM     25  C   UNL     1      -1.769  12.005  18.667  0.00  0.00    +0.000 A 
ATOM     26  C   UNL     1      -3.185  11.880  18.721  0.00  0.00    +0.000 A 
BRANCH  21  27
ATOM     27  O   UNL     1      -5.200  10.523  18.179  0.00  0.00    +0.000 OA
BRANCH  27  28
ATOM     28  C   UNL     1      -6.027  11.637  17.847  0.00  0.00    +0.000 C 
BRANCH  28  30
ATOM     29  C   UNL     1      -7.404  11.233  19.991  0.00  0.00    +0.000 C 
ATOM     30  C   UNL     1      -7.040  11.961  18.923  0.00  0.00    +0.000 C 
ENDBRANCH  28  30
ENDBRANCH  27  28
ENDBRANCH  21  27
ENDBRANCH   1  25
TORSDOF 4
ENDMDL
MODEL 6
REMARK VINA RESULT:      -6.5      1.911      2.528
REMARK  Name = 
REMARK  4 active torsions:
REMARK  status: ('A' for Active; 'I' for Inactive)
REMARK    1  A    between atoms: C_2  and  C_3
REMARK    2  A    between atoms: C_3  and  O_4
REMARK    3  A    between atoms: O_4  and  C_5
REMARK    4  A    between atoms: C_9  and  C_10
REMARK                            x       y       z     vdW  Elec       q    Type
REMARK                         _______ _______ _______ _____ _____    ______ ____
ROOT
ATOM      1  C   UNL     1      -1.632  13.052  22.273  0.00  0.00    +0.000 C 
ATOM      2  C   UNL     1      -2.890  13.147  21.454  0.00  0.00    +0.000 A 
ATOM      3  C   UNL     1      -3.871  12.452  22.056  0.00  0.00    +0.000 A 
ATOM      4  O   UNL     1      -5.190  12.408  21.745  0.00  0.00    +0.000 OA
ATOM      5  C   UNL     1      -5.690  13.515  21.114  0.00  0.00    +0.000 A 
ATOM      6  C   UNL     1      -7.082  13.578  21.031  0.00  0.00    +0.000 A 
ATOM      7  C   UNL     1      -7.689  14.719  20.525  0.00  0.00    +0.000 A 
ATOM      8  C   UNL     1      -6.898  15.794  20.114  0.00  0.00    +0.000 A 
ATOM      9  C   UNL     1      -5.495  15.717  20.170  0.00  0.00    +0.000 A 
ATOM     10  C   UNL     1      -4.874  14.549  20.654  0.00  0.00    +0.000 A 
ATOM     11  C   UNL     1      -3.378  14.363  20.742  0.00  0.00    +0.000 A 
ATOM     12  O   UNL     1      -2.596  15.217  20.346  0.00  0.00    +0.000 OA
ATOM     13  C   UNL     1      -3.428  12.374  23.493  0.00  0.00    +0.000 C 
ATOM     14  O   UNL     1      -4.075  11.847  24.377  0.00  0.00    +0.000 OA
ATOM     15  N   UNL     1      -2.250  13.130  23.589  0.00  0.00    +0.000 N 
ATOM     16  C   UNL     1      -2.440  14.340  24.262  0.00  0.00    +0.000 A 
ATOM     17  N   UNL     1      -3.590  14.801  24.701  0.00  0.00    +0.000 NA
ATOM     18  C   UNL     1      -3.422  16.051  25.261  0.00  0.00    +0.000 A 
ATOM     19  C   UNL     1      -2.132  16.532  25.248  0.00  0.00    +0.000 A 
ATOM     20  S   UNL     1      -1.103  15.393  24.473  0.00  0.00    +0.000 S 
ENDROOT
BRANCH   1  25
ATOM     21  C   UNL     1       0.479   9.909  21.132  0.00  0.00    +0.000 A 
ATOM     22  C   UNL     1       0.436   9.150  22.299  0.00  0.00    +0.000 A 
ATOM     23  C   UNL     1      -0.321   9.587  23.381  0.00  0.00    +0.000 A 
ATOM     24  C   UNL     1      -0.977  10.824  23.332  0.00  0.00    +0.000 A 
ATOM     25  C   UNL     1      -0.855  11.685  22.217  0.00  0.00    +0.000 A 
ATOM     26  C   UNL     1      -0.131  11.184  21.099  0.00  0.00    +0.000 A 
BRANCH  21  27
ATOM     27  O   UNL     1       1.169   9.311  20.102  0.00  0.00    +0.000 OA
BRANCH  27  28
ATOM     28  C   UNL     1       0.849   9.784  18.795  0.00  0.00    +0.000 C 
BRANCH  28  30
ATOM     29  C   UNL     1       2.656   8.245  17.784  0.00  0.00    +0.000 C 
ATOM     30  C   UNL     1       1.806   9.285  17.736  0.00  0.00    +0.000 C 
ENDBRANCH  28  30
ENDBRANCH  27  28
ENDBRANCH  21  27
ENDBRANCH   1  25
TORSDOF 4
ENDMDL
MODEL 7
REMARK VINA RESULT:      -6.4      3.141      7.173
REMARK  Name = 
REMARK  4 active torsions:
REMARK  status: ('A' for Active; 'I' for Inactive)
REMARK    1  A    between atoms: C_2  and  C_3
REMARK    2  A    between atoms: C_3  and  O_4
REMARK    3  A    between atoms: O_4  and  C_5
REMARK    4  A    between atoms: C_9  and  C_10
REMARK                            x       y       z     vdW  Elec       q    Type
REMARK                         _______ _______ _______ _____ _____    ______ ____
ROOT
ATOM      1  C   UNL     1      -2.000  13.314  20.384  0.00  0.00    +0.000 C 
ATOM      2  C   UNL     1      -0.843  14.225  20.690  0.00  0.00    +0.000 A 
ATOM      3  C   UNL     1      -0.255  13.833  21.834  0.00  0.00    +0.000 A 
ATOM      4  O   UNL     1       0.905  14.272  22.382  0.00  0.00    +0.000 OA
ATOM      5  C   UNL     1       1.828  14.769  21.501  0.00  0.00    +0.000 A 
ATOM      6  C   UNL     1       3.106  14.973  22.026  0.00  0.00    +0.000 A 
ATOM      7  C   UNL     1       4.142  15.352  21.185  0.00  0.00    +0.000 A 
ATOM      8  C   UNL     1       3.895  15.515  19.820  0.00  0.00    +0.000 A 
ATOM      9  C   UNL     1       2.600  15.338  19.297  0.00  0.00    +0.000 A 
ATOM     10  C   UNL     1       1.539  14.984  20.153  0.00  0.00    +0.000 A 
ATOM     11  C   UNL     1       0.116  14.783  19.693  0.00  0.00    +0.000 A 
ATOM     12  O   UNL     1      -0.220  14.967  18.531  0.00  0.00    +0.000 OA
ATOM     13  C   UNL     1      -0.661  12.390  21.973  0.00  0.00    +0.000 C 
ATOM     14  O   UNL     1      -0.294  11.664  22.877  0.00  0.00    +0.000 OA
ATOM     15  N   UNL     1      -1.387  12.067  20.817  0.00  0.00    +0.000 N 
ATOM     16  C   UNL     1      -0.674  11.236  19.948  0.00  0.00    +0.000 A 
ATOM     17  N   UNL     1       0.570  10.842  20.112  0.00  0.00    +0.000 NA
ATOM     18  C   UNL     1       0.976  10.083  19.034  0.00  0.00    +0.000 A 
ATOM     19  C   UNL     1       0.028   9.898  18.054  0.00  0.00    +0.000 A 
ATOM     20  S   UNL     1      -1.410  10.739  18.482  0.00  0.00    +0.000 S 
ENDROOT
BRANCH   1  25
ATOM     21  C   UNL     1      -5.542  12.898  22.094  0.00  0.00    +0.000 A 
ATOM     22  C   UNL     1      -5.591  14.072  22.840  0.00  0.00    +0.000 A 
ATOM     23  C   UNL     1      -4.568  15.008  22.727  0.00  0.00    +0.000 A 
ATOM     24  C   UNL     1      -3.451  14.740  21.926  0.00  0.00    +0.000 A 
ATOM     25  C   UNL     1      -3.299  13.506  21.252  0.00  0.00    +0.000 A 
ATOM     26  C   UNL     1      -4.390  12.597  21.331  0.00  0.00    +0.000 A 
BRANCH  21  27
ATOM     27  O   UNL     1      -6.667  12.114  22.212  0.00  0.00    +0.000 OA
BRANCH  27  28
ATOM     28  C   UNL     1      -7.440  11.970  21.021  0.00  0.00    +0.000 C 
BRANCH  28  30
ATOM     29  C   UNL     1      -6.807  10.320  19.141  0.00  0.00    +0.000 C 
ATOM     30  C   UNL     1      -7.269  10.617  20.367  0.00  0.00    +0.000 C 
ENDBRANCH  28  30
ENDBRANCH  27  28
ENDBRANCH  21  27
ENDBRANCH   1  25
TORSDOF 4
ENDMDL
MODEL 8
REMARK VINA RESULT:      -6.4      1.931      2.757
REMARK  Name = 
REMARK  4 active torsions:
REMARK  status: ('A' for Active; 'I' for Inactive)
REMARK    1  A    between atoms: C_2  and  C_3
REMARK    2  A    between atoms: C_3  and  O_4
REMARK    3  A    between atoms: O_4  and  C_5
REMARK    4  A    between atoms: C_9  and  C_10
REMARK                            x       y       z     vdW  Elec       q    Type
REMARK                         _______ _______ _______ _____ _____    ______ ____
ROOT
ATOM      1  C   UNL     1      -1.812  13.247  22.193  0.00  0.00    +0.000 C 
ATOM      2  C   UNL     1      -3.069  13.455  21.393  0.00  0.00    +0.000 A 
ATOM      3  C   UNL     1      -4.075  12.759  21.952  0.00  0.00    +0.000 A 
ATOM      4  O   UNL     1      -5.396  12.792  21.650  0.00  0.00    +0.000 OA
ATOM      5  C   UNL     1      -5.853  13.962  21.105  0.00  0.00    +0.000 A 
ATOM      6  C   UNL     1      -7.242  14.090  21.040  0.00  0.00    +0.000 A 
ATOM      7  C   UNL     1      -7.803  15.288  20.624  0.00  0.00    +0.000 A 
ATOM      8  C   UNL     1      -6.970  16.357  20.285  0.00  0.00    +0.000 A 
ATOM      9  C   UNL     1      -5.571  16.218  20.323  0.00  0.00    +0.000 A 
ATOM     10  C   UNL     1      -4.997  14.993  20.715  0.00  0.00    +0.000 A 
ATOM     11  C   UNL     1      -3.510  14.739  20.777  0.00  0.00    +0.000 A 
ATOM     12  O   UNL     1      -2.695  15.586  20.437  0.00  0.00    +0.000 OA
ATOM     13  C   UNL     1      -3.627  12.558  23.375  0.00  0.00    +0.000 C 
ATOM     14  O   UNL     1      -4.292  11.994  24.224  0.00  0.00    +0.000 OA
ATOM     15  N   UNL     1      -2.419  13.254  23.516  0.00  0.00    +0.000 N 
ATOM     16  C   UNL     1      -2.553  14.419  24.277  0.00  0.00    +0.000 A 
ATOM     17  N   UNL     1      -3.680  14.893  24.759  0.00  0.00    +0.000 NA
ATOM     18  C   UNL     1      -3.457  16.091  25.407  0.00  0.00    +0.000 A 
ATOM     19  C   UNL     1      -2.148  16.518  25.418  0.00  0.00    +0.000 A 
ATOM     20  S   UNL     1      -1.172  15.397  24.552  0.00  0.00    +0.000 S 
ENDROOT
BRANCH   1  25
ATOM     21  C   UNL     1       0.014  10.041  20.770  0.00  0.00    +0.000 A 
ATOM     22  C   UNL     1       0.117   9.284  21.934  0.00  0.00    +0.000 A 
ATOM     23  C   UNL     1      -0.460   9.743  23.113  0.00  0.00    +0.000 A 
ATOM     24  C   UNL     1      -1.077  11.000  23.154  0.00  0.00    +0.000 A 
ATOM     25  C   UNL     1      -1.093  11.857  22.030  0.00  0.00    +0.000 A 
ATOM     26  C   UNL     1      -0.556  11.334  20.821  0.00  0.00    +0.000 A 
BRANCH  21  27
ATOM     27  O   UNL     1       0.528   9.421  19.654  0.00  0.00    +0.000 OA
BRANCH  27  28
ATOM     28  C   UNL     1       0.374  10.140  18.430  0.00  0.00    +0.000 C 
BRANCH  28  30
ATOM     29  C   UNL     1      -2.090  10.224  17.670  0.00  0.00    +0.000 C 
ATOM     30  C   UNL     1      -0.847   9.714  17.646  0.00  0.00    +0.000 C 
ENDBRANCH  28  30
ENDBRANCH  27  28
ENDBRANCH  21  27
ENDBRANCH   1  25
TORSDOF 4
ENDMDL
MODEL 9
REMARK VINA RESULT:      -6.3      8.247     11.654
REMARK  Name = 
REMARK  4 active torsions:
REMARK  status: ('A' for Active; 'I' for Inactive)
REMARK    1  A    between atoms: C_2  and  C_3
REMARK    2  A    between atoms: C_3  and  O_4
REMARK    3  A    between atoms: O_4  and  C_5
REMARK    4  A    between atoms: C_9  and  C_10
REMARK                            x       y       z     vdW  Elec       q    Type
REMARK                         _______ _______ _______ _____ _____    ______ ____
ROOT
ATOM      1  C   UNL     1       3.879   5.267  16.713  0.00  0.00    +0.000 C 
ATOM      2  C   UNL     1       3.535   4.119  17.621  0.00  0.00    +0.000 A 
ATOM      3  C   UNL     1       4.422   4.064  18.630  0.00  0.00    +0.000 A 
ATOM      4  O   UNL     1       4.388   3.292  19.745  0.00  0.00    +0.000 OA
ATOM      5  C   UNL     1       3.143   2.907  20.165  0.00  0.00    +0.000 A 
ATOM      6  C   UNL     1       3.090   2.343  21.441  0.00  0.00    +0.000 A 
ATOM      7  C   UNL     1       1.861   2.040  22.008  0.00  0.00    +0.000 A 
ATOM      8  C   UNL     1       0.690   2.312  21.297  0.00  0.00    +0.000 A 
ATOM      9  C   UNL     1       0.746   2.853  20.000  0.00  0.00    +0.000 A 
ATOM     10  C   UNL     1       1.993   3.134  19.408  0.00  0.00    +0.000 A 
ATOM     11  C   UNL     1       2.159   3.703  18.020  0.00  0.00    +0.000 A 
ATOM     12  O   UNL     1       1.201   3.914  17.289  0.00  0.00    +0.000 OA
ATOM     13  C   UNL     1       4.987   5.457  18.690  0.00  0.00    +0.000 C 
ATOM     14  O   UNL     1       5.808   5.825  19.509  0.00  0.00    +0.000 OA
ATOM     15  N   UNL     1       4.283   6.214  17.742  0.00  0.00    +0.000 N 
ATOM     16  C   UNL     1       3.391   7.117  18.328  0.00  0.00    +0.000 A 
ATOM     17  N   UNL     1       3.143   7.224  19.614  0.00  0.00    +0.000 NA
ATOM     18  C   UNL     1       2.165   8.171  19.836  0.00  0.00    +0.000 A 
ATOM     19  C   UNL     1       1.677   8.787  18.705  0.00  0.00    +0.000 A 
ATOM     20  S   UNL     1       2.445   8.127  17.316  0.00  0.00    +0.000 S 
ENDROOT
BRANCH   1  25
ATOM     21  C   UNL     1       6.305   4.197  13.779  0.00  0.00    +0.000 A 
ATOM     22  C   UNL     1       7.492   4.773  14.223  0.00  0.00    +0.000 A 
ATOM     23  C   UNL     1       7.536   5.403  15.463  0.00  0.00    +0.000 A 
ATOM     24  C   UNL     1       6.372   5.527  16.233  0.00  0.00    +0.000 A 
ATOM     25  C   UNL     1       5.119   5.070  15.765  0.00  0.00    +0.000 A 
ATOM     26  C   UNL     1       5.117   4.372  14.525  0.00  0.00    +0.000 A 
BRANCH  21  27
ATOM     27  O   UNL     1       6.427   3.510  12.593  0.00  0.00    +0.000 OA
BRANCH  27  28
ATOM     28  C   UNL     1       5.267   2.790  12.181  0.00  0.00    +0.000 C 
BRANCH  28  30
ATOM     29  C   UNL     1       3.299   3.171  10.556  0.00  0.00    +0.000 C 
ATOM     30  C   UNL     1       4.407   3.563  11.206  0.00  0.00    +0.000 C 
ENDBRANCH  28  30
ENDBRANCH  27  28
ENDBRANCH  21  27
ENDBRANCH   1  25
TORSDOF 4
ENDMDL
