MODEL 1
REMARK VINA RESULT:      -8.8      0.000      0.000
REMARK  Name = 
REMARK  5 active torsions:
REMARK  status: ('A' for Active; 'I' for Inactive)
REMARK    1  A    between atoms: C_2  and  C_3
REMARK    2  A    between atoms: C_3  and  S_4
REMARK    3  A    between atoms: S_4  and  C_5
REMARK    4  A    between atoms: N_15  and  C_16
REMARK    5  A    between atoms: N_22  and  C_23
REMARK                            x       y       z     vdW  Elec       q    Type
REMARK                         _______ _______ _______ _____ _____    ______ ____
ROOT
ATOM      1  C   UNL     1       3.522   6.072  17.970  0.00  0.00    +0.000 A 
ATOM      2  N   UNL     1       4.194   6.602  17.001  0.00  0.00    +0.000 NA
ATOM      3  C   UNL     1       4.974   5.761  16.213  0.00  0.00    +0.000 A 
ATOM      4  N   UNL     1       5.626   6.388  15.212  0.00  0.00    +0.000 NA
ATOM      5  C   UNL     1       6.443   5.632  14.442  0.00  0.00    +0.000 A 
ATOM      6  C   UNL     1       6.636   4.271  14.621  0.00  0.00    +0.000 A 
ATOM      7  C   UNL     1       5.951   3.645  15.656  0.00  0.00    +0.000 A 
ATOM      8  C   UNL     1       5.111   4.410  16.465  0.00  0.00    +0.000 A 
ATOM      9  C   UNL     1       4.347   3.833  17.573  0.00  0.00    +0.000 A 
ATOM     10  O   UNL     1       4.478   2.630  17.791  0.00  0.00    +0.000 OA
ATOM     11  N   UNL     1       3.509   4.710  18.266  0.00  0.00    +0.000 N 
ENDROOT
BRANCH  11  12
ATOM     12  C   UNL     1       2.627   4.136  19.231  0.00  0.00    +0.000 A 
ATOM     13  C   UNL     1       3.018   4.043  20.574  0.00  0.00    +0.000 A 
ATOM     14  C   UNL     1       2.175   3.449  21.513  0.00  0.00    +0.000 A 
ATOM     15  C   UNL     1       0.951   2.916  21.112  0.00  0.00    +0.000 A 
ATOM     16  C   UNL     1       0.561   2.987  19.775  0.00  0.00    +0.000 A 
ATOM     17  C   UNL     1       1.392   3.602  18.836  0.00  0.00    +0.000 A 
ENDBRANCH  11  12
BRANCH   1  18
ATOM     18  S   UNL     1       2.710   7.182  19.069  0.00  0.00    +0.000 S 
BRANCH  18  19
ATOM     19  C   UNL     1       2.102   8.422  17.897  0.00  0.00    +0.000 C 
BRANCH  19  21
ATOM     20  O   UNL     1       0.171   9.838  17.996  0.00  0.00    +0.000 OA
ATOM     21  C   UNL     1       1.154   9.391  18.585  0.00  0.00    +0.000 C 
ATOM     22  N   UNL     1       1.504   9.695  19.890  0.00  0.00    +0.000 N 
ATOM     23  H   UNL     1       2.469   9.528  20.173  0.00  0.00    +0.000 HD
BRANCH  22  24
ATOM     24  C   UNL     1       0.703  10.396  20.822  0.00  0.00    +0.000 A 
ATOM     25  C   UNL     1       0.544  11.786  20.807  0.00  0.00    +0.000 A 
ATOM     26  C   UNL     1      -0.284  12.412  21.741  0.00  0.00    +0.000 A 
ATOM     27  C   UNL     1      -0.959  11.649  22.685  0.00  0.00    +0.000 A 
ATOM     28  F   UNL     1      -1.760  12.260  23.570  0.00  0.00    +0.000 F 
ATOM     29  C   UNL     1      -0.825  10.271  22.717  0.00  0.00    +0.000 A 
ATOM     30  C   UNL     1       0.000   9.656  21.783  0.00  0.00    +0.000 A 
ATOM     31  F   UNL     1       0.122   8.319  21.810  0.00  0.00    +0.000 F 
ENDBRANCH  22  24
ENDBRANCH  19  21
ENDBRANCH  18  19
ENDBRANCH   1  18
TORSDOF 5
ENDMDL
MODEL 2
REMARK VINA RESULT:      -8.7      0.829      1.209
REMARK  Name = 
REMARK  5 active torsions:
REMARK  status: ('A' for Active; 'I' for Inactive)
REMARK    1  A    between atoms: C_2  and  C_3
REMARK    2  A    between atoms: C_3  and  S_4
REMARK    3  A    between atoms: S_4  and  C_5
REMARK    4  A    between atoms: N_15  and  C_16
REMARK    5  A    between atoms: N_22  and  C_23
REMARK                            x       y       z     vdW  Elec       q    Type
REMARK                         _______ _______ _______ _____ _____    ______ ____
ROOT
ATOM      1  C   UNL     1       3.539   6.004  17.995  0.00  0.00    +0.000 A 
ATOM      2  N   UNL     1       4.206   6.529  17.021  0.00  0.00    +0.000 NA
ATOM      3  C   UNL     1       4.966   5.681  16.220  0.00  0.00    +0.000 A 
ATOM      4  N   UNL     1       5.614   6.304  15.214  0.00  0.00    +0.000 NA
ATOM      5  C   UNL     1       6.412   5.541  14.432  0.00  0.00    +0.000 A 
ATOM      6  C   UNL     1       6.591   4.178  14.604  0.00  0.00    +0.000 A 
ATOM      7  C   UNL     1       5.912   3.556  15.645  0.00  0.00    +0.000 A 
ATOM      8  C   UNL     1       5.090   4.328  16.466  0.00  0.00    +0.000 A 
ATOM      9  C   UNL     1       4.332   3.757  17.582  0.00  0.00    +0.000 A 
ATOM     10  O   UNL     1       4.452   2.552  17.795  0.00  0.00    +0.000 OA
ATOM     11  N   UNL     1       3.513   4.641  18.288  0.00  0.00    +0.000 N 
ENDROOT
BRANCH  11  12
ATOM     12  C   UNL     1       2.636   4.075  19.261  0.00  0.00    +0.000 A 
ATOM     13  C   UNL     1       3.056   3.937  20.591  0.00  0.00    +0.000 A 
ATOM     14  C   UNL     1       2.216   3.349  21.537  0.00  0.00    +0.000 A 
ATOM     15  C   UNL     1       0.965   2.867  21.155  0.00  0.00    +0.000 A 
ATOM     16  C   UNL     1       0.546   2.984  19.831  0.00  0.00    +0.000 A 
ATOM     17  C   UNL     1       1.374   3.592  18.885  0.00  0.00    +0.000 A 
ENDBRANCH  11  12
BRANCH   1  18
ATOM     18  S   UNL     1       2.753   7.120  19.107  0.00  0.00    +0.000 S 
BRANCH  18  19
ATOM     19  C   UNL     1       2.106   8.347  17.942  0.00  0.00    +0.000 C 
BRANCH  19  21
ATOM     20  O   UNL     1       0.202   9.798  18.035  0.00  0.00    +0.000 OA
ATOM     21  C   UNL     1       1.147   9.297  18.641  0.00  0.00    +0.000 C 
ATOM     22  N   UNL     1       1.442   9.519  19.976  0.00  0.00    +0.000 N 
ATOM     23  H   UNL     1       2.389   9.315  20.292  0.00  0.00    +0.000 HD
BRANCH  22  24
ATOM     24  C   UNL     1       0.613  10.184  20.909  0.00  0.00    +0.000 A 
ATOM     25  C   UNL     1      -0.067   9.525  21.939  0.00  0.00    +0.000 A 
ATOM     26  C   UNL     1      -0.849  10.246  22.844  0.00  0.00    +0.000 A 
ATOM     27  C   UNL     1      -0.946  11.627  22.725  0.00  0.00    +0.000 A 
ATOM     28  F   UNL     1      -1.690  12.311  23.605  0.00  0.00    +0.000 F 
ATOM     29  C   UNL     1      -0.277  12.305  21.718  0.00  0.00    +0.000 A 
ATOM     30  C   UNL     1       0.501  11.579  20.823  0.00  0.00    +0.000 A 
ATOM     31  F   UNL     1       1.156  12.238  19.855  0.00  0.00    +0.000 F 
ENDBRANCH  22  24
ENDBRANCH  19  21
ENDBRANCH  18  19
ENDBRANCH   1  18
TORSDOF 5
ENDMDL
MODEL 3
REMARK VINA RESULT:      -8.4      1.241      1.363
REMARK  Name = 
REMARK  5 active torsions:
REMARK  status: ('A' for Active; 'I' for Inactive)
REMARK    1  A    between atoms: C_2  and  C_3
REMARK    2  A    between atoms: C_3  and  S_4
REMARK    3  A    between atoms: S_4  and  C_5
REMARK    4  A    between atoms: N_15  and  C_16
REMARK    5  A    between atoms: N_22  and  C_23
REMARK                            x       y       z     vdW  Elec       q    Type
REMARK                         _______ _______ _______ _____ _____    ______ ____
ROOT
ATOM      1  C   UNL     1       3.509   6.059  17.852  0.00  0.00    +0.000 A 
ATOM      2  N   UNL     1       4.196   6.561  16.879  0.00  0.00    +0.000 NA
ATOM      3  C   UNL     1       5.000   5.700  16.138  0.00  0.00    +0.000 A 
ATOM      4  N   UNL     1       5.667   6.298  15.129  0.00  0.00    +0.000 NA
ATOM      5  C   UNL     1       6.507   5.524  14.403  0.00  0.00    +0.000 A 
ATOM      6  C   UNL     1       6.711   4.173  14.636  0.00  0.00    +0.000 A 
ATOM      7  C   UNL     1       6.011   3.576  15.679  0.00  0.00    +0.000 A 
ATOM      8  C   UNL     1       5.146   4.361  16.441  0.00  0.00    +0.000 A 
ATOM      9  C   UNL     1       4.365   3.817  17.554  0.00  0.00    +0.000 A 
ATOM     10  O   UNL     1       4.504   2.624  17.819  0.00  0.00    +0.000 OA
ATOM     11  N   UNL     1       3.503   4.708  18.198  0.00  0.00    +0.000 N 
ENDROOT
BRANCH  11  12
ATOM     12  C   UNL     1       2.607   4.160  19.164  0.00  0.00    +0.000 A 
ATOM     13  C   UNL     1       2.976   4.109  20.516  0.00  0.00    +0.000 A 
ATOM     14  C   UNL     1       2.120   3.540  21.458  0.00  0.00    +0.000 A 
ATOM     15  C   UNL     1       0.904   2.990  21.053  0.00  0.00    +0.000 A 
ATOM     16  C   UNL     1       0.537   3.020  19.708  0.00  0.00    +0.000 A 
ATOM     17  C   UNL     1       1.381   3.609  18.765  0.00  0.00    +0.000 A 
ENDBRANCH  11  12
BRANCH   1  18
ATOM     18  S   UNL     1       2.663   7.199  18.892  0.00  0.00    +0.000 S 
BRANCH  18  19
ATOM     19  C   UNL     1       2.324   8.534  17.715  0.00  0.00    +0.000 C 
BRANCH  19  21
ATOM     20  O   UNL     1       2.130  10.887  18.120  0.00  0.00    +0.000 OA
ATOM     21  C   UNL     1       1.769   9.753  18.432  0.00  0.00    +0.000 C 
ATOM     22  N   UNL     1       0.853   9.458  19.427  0.00  0.00    +0.000 N 
ATOM     23  H   UNL     1       0.855   8.512  19.808  0.00  0.00    +0.000 HD
BRANCH  22  24
ATOM     24  C   UNL     1       0.035  10.391  20.106  0.00  0.00    +0.000 A 
ATOM     25  C   UNL     1       0.293  10.837  21.407  0.00  0.00    +0.000 A 
ATOM     26  C   UNL     1      -0.541  11.781  22.009  0.00  0.00    +0.000 A 
ATOM     27  C   UNL     1      -1.629  12.287  21.308  0.00  0.00    +0.000 A 
ATOM     28  F   UNL     1      -2.417  13.201  21.891  0.00  0.00    +0.000 F 
ATOM     29  C   UNL     1      -1.903  11.868  20.017  0.00  0.00    +0.000 A 
ATOM     30  C   UNL     1      -1.067  10.928  19.424  0.00  0.00    +0.000 A 
ATOM     31  F   UNL     1      -1.329  10.531  18.169  0.00  0.00    +0.000 F 
ENDBRANCH  22  24
ENDBRANCH  19  21
ENDBRANCH  18  19
ENDBRANCH   1  18
TORSDOF 5
ENDMDL
MODEL 4
REMARK VINA RESULT:      -8.3      1.818      2.062
REMARK  Name = 
REMARK  5 active torsions:
REMARK  status: ('A' for Active; 'I' for Inactive)
REMARK    1  A    between atoms: C_2  and  C_3
REMARK    2  A    between atoms: C_3  and  S_4
REMARK    3  A    between atoms: S_4  and  C_5
REMARK    4  A    between atoms: N_15  and  C_16
REMARK    5  A    between atoms: N_22  and  C_23
REMARK                            x       y       z     vdW  Elec       q    Type
REMARK                         _______ _______ _______ _____ _____    ______ ____
ROOT
ATOM      1  C   UNL     1       3.642   5.863  18.014  0.00  0.00    +0.000 A 
ATOM      2  N   UNL     1       4.298   6.421  17.050  0.00  0.00    +0.000 NA
ATOM      3  C   UNL     1       5.009   5.597  16.184  0.00  0.00    +0.000 A 
ATOM      4  N   UNL     1       5.649   6.256  15.194  0.00  0.00    +0.000 NA
ATOM      5  C   UNL     1       6.402   5.514  14.349  0.00  0.00    +0.000 A 
ATOM      6  C   UNL     1       6.543   4.139  14.441  0.00  0.00    +0.000 A 
ATOM      7  C   UNL     1       5.873   3.480  15.466  0.00  0.00    +0.000 A 
ATOM      8  C   UNL     1       5.098   4.229  16.351  0.00  0.00    +0.000 A 
ATOM      9  C   UNL     1       4.353   3.620  17.455  0.00  0.00    +0.000 A 
ATOM     10  O   UNL     1       4.442   2.401  17.599  0.00  0.00    +0.000 OA
ATOM     11  N   UNL     1       3.582   4.487  18.232  0.00  0.00    +0.000 N 
ENDROOT
BRANCH  11  12
ATOM     12  C   UNL     1       2.714   3.894  19.198  0.00  0.00    +0.000 A 
ATOM     13  C   UNL     1       1.380   3.616  18.868  0.00  0.00    +0.000 A 
ATOM     14  C   UNL     1       0.519   3.071  19.820  0.00  0.00    +0.000 A 
ATOM     15  C   UNL     1       0.974   2.829  21.115  0.00  0.00    +0.000 A 
ATOM     16  C   UNL     1       2.295   3.119  21.457  0.00  0.00    +0.000 A 
ATOM     17  C   UNL     1       3.167   3.643  20.501  0.00  0.00    +0.000 A 
ENDBRANCH  11  12
BRANCH   1  18
ATOM     18  S   UNL     1       2.922   6.938  19.207  0.00  0.00    +0.000 S 
BRANCH  18  19
ATOM     19  C   UNL     1       2.226   8.214  18.126  0.00  0.00    +0.000 C 
BRANCH  19  21
ATOM     20  O   UNL     1       1.213   9.040  20.134  0.00  0.00    +0.000 OA
ATOM     21  C   UNL     1       1.391   9.199  18.927  0.00  0.00    +0.000 C 
ATOM     22  N   UNL     1       0.882  10.249  18.181  0.00  0.00    +0.000 N 
ATOM     23  H   UNL     1       0.824  10.128  17.171  0.00  0.00    +0.000 HD
BRANCH  22  24
ATOM     24  C   UNL     1       0.253  11.406  18.698  0.00  0.00    +0.000 A 
ATOM     25  C   UNL     1       0.921  12.618  18.903  0.00  0.00    +0.000 A 
ATOM     26  C   UNL     1       0.233  13.730  19.392  0.00  0.00    +0.000 A 
ATOM     27  C   UNL     1      -1.125  13.634  19.669  0.00  0.00    +0.000 A 
ATOM     28  F   UNL     1      -1.778  14.711  20.128  0.00  0.00    +0.000 F 
ATOM     29  C   UNL     1      -1.812  12.448  19.469  0.00  0.00    +0.000 A 
ATOM     30  C   UNL     1      -1.119  11.346  18.980  0.00  0.00    +0.000 A 
ATOM     31  F   UNL     1      -1.789  10.201  18.778  0.00  0.00    +0.000 F 
ENDBRANCH  22  24
ENDBRANCH  19  21
ENDBRANCH  18  19
ENDBRANCH   1  18
TORSDOF 5
ENDMDL
MODEL 5
REMARK VINA RESULT:      -8.3      5.817      7.029
REMARK  Name = 
REMARK  5 active torsions:
REMARK  status: ('A' for Active; 'I' for Inactive)
REMARK    1  A    between atoms: C_2  and  C_3
REMARK    2  A    between atoms: C_3  and  S_4
REMARK    3  A    between atoms: S_4  and  C_5
REMARK    4  A    between atoms: N_15  and  C_16
REMARK    5  A    between atoms: N_22  and  C_23
REMARK                            x       y       z     vdW  Elec       q    Type
REMARK                         _______ _______ _______ _____ _____    ______ ____
ROOT
ATOM      1  C   UNL     1       6.764   5.923  16.628  0.00  0.00    +0.000 A 
ATOM      2  N   UNL     1       7.512   5.902  15.573  0.00  0.00    +0.000 NA
ATOM      3  C   UNL     1       7.084   5.147  14.486  0.00  0.00    +0.000 A 
ATOM      4  N   UNL     1       7.910   5.195  13.420  0.00  0.00    +0.000 NA
ATOM      5  C   UNL     1       7.574   4.438  12.349  0.00  0.00    +0.000 A 
ATOM      6  C   UNL     1       6.446   3.636  12.289  0.00  0.00    +0.000 A 
ATOM      7  C   UNL     1       5.607   3.604  13.398  0.00  0.00    +0.000 A 
ATOM      8  C   UNL     1       5.941   4.372  14.513  0.00  0.00    +0.000 A 
ATOM      9  C   UNL     1       5.114   4.405  15.722  0.00  0.00    +0.000 A 
ATOM     10  O   UNL     1       4.100   3.709  15.738  0.00  0.00    +0.000 OA
ATOM     11  N   UNL     1       5.546   5.256  16.742  0.00  0.00    +0.000 N 
ENDROOT
BRANCH  11  12
ATOM     12  C   UNL     1       4.666   5.436  17.851  0.00  0.00    +0.000 A 
ATOM     13  C   UNL     1       4.661   4.509  18.903  0.00  0.00    +0.000 A 
ATOM     14  C   UNL     1       3.775   4.661  19.970  0.00  0.00    +0.000 A 
ATOM     15  C   UNL     1       2.870   5.720  19.980  0.00  0.00    +0.000 A 
ATOM     16  C   UNL     1       2.855   6.637  18.929  0.00  0.00    +0.000 A 
ATOM     17  C   UNL     1       3.755   6.502  17.870  0.00  0.00    +0.000 A 
ENDBRANCH  11  12
BRANCH   1  18
ATOM     18  S   UNL     1       7.428   6.719  18.051  0.00  0.00    +0.000 S 
BRANCH  18  19
ATOM     19  C   UNL     1       7.498   8.433  17.470  0.00  0.00    +0.000 C 
BRANCH  19  21
ATOM     20  O   UNL     1       9.062   8.734  19.260  0.00  0.00    +0.000 OA
ATOM     21  C   UNL     1       8.449   9.251  18.328  0.00  0.00    +0.000 C 
ATOM     22  N   UNL     1       8.545  10.582  17.956  0.00  0.00    +0.000 N 
ATOM     23  H   UNL     1       7.791  10.972  17.393  0.00  0.00    +0.000 HD
BRANCH  22  24
ATOM     24  C   UNL     1       9.495  11.512  18.440  0.00  0.00    +0.000 A 
ATOM     25  C   UNL     1      10.575  11.155  19.255  0.00  0.00    +0.000 A 
ATOM     26  C   UNL     1      11.492  12.120  19.676  0.00  0.00    +0.000 A 
ATOM     27  C   UNL     1      11.335  13.441  19.276  0.00  0.00    +0.000 A 
ATOM     28  F   UNL     1      12.228  14.358  19.677  0.00  0.00    +0.000 F 
ATOM     29  C   UNL     1      10.279  13.820  18.464  0.00  0.00    +0.000 A 
ATOM     30  C   UNL     1       9.372  12.852  18.048  0.00  0.00    +0.000 A 
ATOM     31  F   UNL     1       8.355  13.220  17.253  0.00  0.00    +0.000 F 
ENDBRANCH  22  24
ENDBRANCH  19  21
ENDBRANCH  18  19
ENDBRANCH   1  18
TORSDOF 5
ENDMDL
MODEL 6
REMARK VINA RESULT:      -8.3      1.985      2.172
REMARK  Name = 
REMARK  5 active torsions:
REMARK  status: ('A' for Active; 'I' for Inactive)
REMARK    1  A    between atoms: C_2  and  C_3
REMARK    2  A    between atoms: C_3  and  S_4
REMARK    3  A    between atoms: S_4  and  C_5
REMARK    4  A    between atoms: N_15  and  C_16
REMARK    5  A    between atoms: N_22  and  C_23
REMARK                            x       y       z     vdW  Elec       q    Type
REMARK                         _______ _______ _______ _____ _____    ______ ____
ROOT
ATOM      1  C   UNL     1       3.629   5.922  18.028  0.00  0.00    +0.000 A 
ATOM      2  N   UNL     1       4.290   6.452  17.052  0.00  0.00    +0.000 NA
ATOM      3  C   UNL     1       4.983   5.601  16.197  0.00  0.00    +0.000 A 
ATOM      4  N   UNL     1       5.629   6.232  15.194  0.00  0.00    +0.000 NA
ATOM      5  C   UNL     1       6.365   5.462  14.358  0.00  0.00    +0.000 A 
ATOM      6  C   UNL     1       6.484   4.086  14.474  0.00  0.00    +0.000 A 
ATOM      7  C   UNL     1       5.808   3.457  15.513  0.00  0.00    +0.000 A 
ATOM      8  C   UNL     1       5.050   4.235  16.389  0.00  0.00    +0.000 A 
ATOM      9  C   UNL     1       4.300   3.658  17.507  0.00  0.00    +0.000 A 
ATOM     10  O   UNL     1       4.368   2.441  17.671  0.00  0.00    +0.000 OA
ATOM     11  N   UNL     1       3.546   4.552  18.271  0.00  0.00    +0.000 N 
ENDROOT
BRANCH  11  12
ATOM     12  C   UNL     1       2.673   3.990  19.251  0.00  0.00    +0.000 A 
ATOM     13  C   UNL     1       3.143   3.731  20.546  0.00  0.00    +0.000 A 
ATOM     14  C   UNL     1       2.305   3.147  21.495  0.00  0.00    +0.000 A 
ATOM     15  C   UNL     1       1.002   2.790  21.150  0.00  0.00    +0.000 A 
ATOM     16  C   UNL     1       0.532   3.027  19.859  0.00  0.00    +0.000 A 
ATOM     17  C   UNL     1       1.361   3.633  18.912  0.00  0.00    +0.000 A 
ENDBRANCH  11  12
BRANCH   1  18
ATOM     18  S   UNL     1       2.932   7.030  19.205  0.00  0.00    +0.000 S 
BRANCH  18  19
ATOM     19  C   UNL     1       2.171   8.250  18.102  0.00  0.00    +0.000 C 
BRANCH  19  21
ATOM     20  O   UNL     1       1.230   9.144  20.116  0.00  0.00    +0.000 OA
ATOM     21  C   UNL     1       1.338   9.244  18.895  0.00  0.00    +0.000 C 
ATOM     22  N   UNL     1       0.746  10.229  18.123  0.00  0.00    +0.000 N 
ATOM     23  H   UNL     1       0.641  10.051  17.125  0.00  0.00    +0.000 HD
BRANCH  22  24
ATOM     24  C   UNL     1       0.095  11.387  18.612  0.00  0.00    +0.000 A 
ATOM     25  C   UNL     1      -1.244  11.403  19.016  0.00  0.00    +0.000 A 
ATOM     26  C   UNL     1      -1.817  12.575  19.514  0.00  0.00    +0.000 A 
ATOM     27  C   UNL     1      -1.050  13.729  19.617  0.00  0.00    +0.000 A 
ATOM     28  F   UNL     1      -1.607  14.845  20.107  0.00  0.00    +0.000 F 
ATOM     29  C   UNL     1       0.280  13.737  19.230  0.00  0.00    +0.000 A 
ATOM     30  C   UNL     1       0.843  12.566  18.737  0.00  0.00    +0.000 A 
ATOM     31  F   UNL     1       2.135  12.574  18.372  0.00  0.00    +0.000 F 
ENDBRANCH  22  24
ENDBRANCH  19  21
ENDBRANCH  18  19
ENDBRANCH   1  18
TORSDOF 5
ENDMDL
MODEL 7
REMARK VINA RESULT:      -8.3      2.185      2.389
REMARK  Name = 
REMARK  5 active torsions:
REMARK  status: ('A' for Active; 'I' for Inactive)
REMARK    1  A    between atoms: C_2  and  C_3
REMARK    2  A    between atoms: C_3  and  S_4
REMARK    3  A    between atoms: S_4  and  C_5
REMARK    4  A    between atoms: N_15  and  C_16
REMARK    5  A    between atoms: N_22  and  C_23
REMARK                            x       y       z     vdW  Elec       q    Type
REMARK                         _______ _______ _______ _____ _____    ______ ____
ROOT
ATOM      1  C   UNL     1       3.493   6.082  17.994  0.00  0.00    +0.000 A 
ATOM      2  N   UNL     1       4.161   6.608  17.020  0.00  0.00    +0.000 NA
ATOM      3  C   UNL     1       4.954   5.768  16.245  0.00  0.00    +0.000 A 
ATOM      4  N   UNL     1       5.601   6.391  15.238  0.00  0.00    +0.000 NA
ATOM      5  C   UNL     1       6.430   5.637  14.480  0.00  0.00    +0.000 A 
ATOM      6  C   UNL     1       6.642   4.281  14.677  0.00  0.00    +0.000 A 
ATOM      7  C   UNL     1       5.963   3.659  15.718  0.00  0.00    +0.000 A 
ATOM      8  C   UNL     1       5.110   4.422  16.515  0.00  0.00    +0.000 A 
ATOM      9  C   UNL     1       4.351   3.850  17.629  0.00  0.00    +0.000 A 
ATOM     10  O   UNL     1       4.499   2.652  17.863  0.00  0.00    +0.000 OA
ATOM     11  N   UNL     1       3.499   4.724  18.308  0.00  0.00    +0.000 N 
ENDROOT
BRANCH  11  12
ATOM     12  C   UNL     1       2.622   4.150  19.278  0.00  0.00    +0.000 A 
ATOM     13  C   UNL     1       3.022   4.056  20.618  0.00  0.00    +0.000 A 
ATOM     14  C   UNL     1       2.184   3.462  21.563  0.00  0.00    +0.000 A 
ATOM     15  C   UNL     1       0.956   2.931  21.169  0.00  0.00    +0.000 A 
ATOM     16  C   UNL     1       0.559   3.004  19.835  0.00  0.00    +0.000 A 
ATOM     17  C   UNL     1       1.384   3.618  18.891  0.00  0.00    +0.000 A 
ENDBRANCH  11  12
BRANCH   1  18
ATOM     18  S   UNL     1       2.663   7.195  19.075  0.00  0.00    +0.000 S 
BRANCH  18  19
ATOM     19  C   UNL     1       2.107   8.451  17.895  0.00  0.00    +0.000 C 
BRANCH  19  21
ATOM     20  O   UNL     1       1.019   9.540  19.731  0.00  0.00    +0.000 OA
ATOM     21  C   UNL     1       1.540   9.658  18.623  0.00  0.00    +0.000 C 
ATOM     22  N   UNL     1       1.674  10.851  17.933  0.00  0.00    +0.000 N 
ATOM     23  H   UNL     1       1.830  10.802  16.927  0.00  0.00    +0.000 HD
BRANCH  22  24
ATOM     24  C   UNL     1       1.427  12.144  18.454  0.00  0.00    +0.000 A 
ATOM     25  C   UNL     1       2.442  13.009  18.876  0.00  0.00    +0.000 A 
ATOM     26  C   UNL     1       2.131  14.283  19.355  0.00  0.00    +0.000 A 
ATOM     27  C   UNL     1       0.805  14.696  19.405  0.00  0.00    +0.000 A 
ATOM     28  F   UNL     1       0.517  15.925  19.857  0.00  0.00    +0.000 F 
ATOM     29  C   UNL     1      -0.218  13.861  18.987  0.00  0.00    +0.000 A 
ATOM     30  C   UNL     1       0.101  12.595  18.510  0.00  0.00    +0.000 A 
ATOM     31  F   UNL     1      -0.891  11.791  18.097  0.00  0.00    +0.000 F 
ENDBRANCH  22  24
ENDBRANCH  19  21
ENDBRANCH  18  19
ENDBRANCH   1  18
TORSDOF 5
ENDMDL
MODEL 8
REMARK VINA RESULT:      -8.2      1.362      4.452
REMARK  Name = 
REMARK  5 active torsions:
REMARK  status: ('A' for Active; 'I' for Inactive)
REMARK    1  A    between atoms: C_2  and  C_3
REMARK    2  A    between atoms: C_3  and  S_4
REMARK    3  A    between atoms: S_4  and  C_5
REMARK    4  A    between atoms: N_15  and  C_16
REMARK    5  A    between atoms: N_22  and  C_23
REMARK                            x       y       z     vdW  Elec       q    Type
REMARK                         _______ _______ _______ _____ _____    ______ ____
ROOT
ATOM      1  C   UNL     1       3.860   5.852  18.422  0.00  0.00    +0.000 A 
ATOM      2  N   UNL     1       3.144   5.855  19.499  0.00  0.00    +0.000 NA
ATOM      3  C   UNL     1       2.748   4.628  20.021  0.00  0.00    +0.000 A 
ATOM      4  N   UNL     1       2.023   4.718  21.156  0.00  0.00    +0.000 NA
ATOM      5  C   UNL     1       1.563   3.560  21.685  0.00  0.00    +0.000 A 
ATOM      6  C   UNL     1       1.798   2.310  21.135  0.00  0.00    +0.000 A 
ATOM      7  C   UNL     1       2.550   2.240  19.968  0.00  0.00    +0.000 A 
ATOM      8  C   UNL     1       3.026   3.424  19.405  0.00  0.00    +0.000 A 
ATOM      9  C   UNL     1       3.831   3.445  18.182  0.00  0.00    +0.000 A 
ATOM     10  O   UNL     1       4.071   2.369  17.638  0.00  0.00    +0.000 OA
ATOM     11  N   UNL     1       4.280   4.700  17.760  0.00  0.00    +0.000 N 
ENDROOT
BRANCH  11  12
ATOM     12  C   UNL     1       5.207   4.725  16.676  0.00  0.00    +0.000 A 
ATOM     13  C   UNL     1       4.752   4.584  15.357  0.00  0.00    +0.000 A 
ATOM     14  C   UNL     1       5.659   4.570  14.297  0.00  0.00    +0.000 A 
ATOM     15  C   UNL     1       7.027   4.664  14.549  0.00  0.00    +0.000 A 
ATOM     16  C   UNL     1       7.490   4.786  15.858  0.00  0.00    +0.000 A 
ATOM     17  C   UNL     1       6.585   4.824  16.920  0.00  0.00    +0.000 A 
ENDBRANCH  11  12
BRANCH   1  18
ATOM     18  S   UNL     1       4.173   7.415  17.676  0.00  0.00    +0.000 S 
BRANCH  18  19
ATOM     19  C   UNL     1       2.483   7.941  17.288  0.00  0.00    +0.000 C 
BRANCH  19  21
ATOM     20  O   UNL     1       2.184  10.221  17.960  0.00  0.00    +0.000 OA
ATOM     21  C   UNL     1       2.029   9.034  18.241  0.00  0.00    +0.000 C 
ATOM     22  N   UNL     1       1.445   8.564  19.406  0.00  0.00    +0.000 N 
ATOM     23  H   UNL     1       1.639   7.601  19.678  0.00  0.00    +0.000 HD
BRANCH  22  24
ATOM     24  C   UNL     1       0.755   9.345  20.362  0.00  0.00    +0.000 A 
ATOM     25  C   UNL     1      -0.056  10.434  20.025  0.00  0.00    +0.000 A 
ATOM     26  C   UNL     1      -0.730  11.147  21.018  0.00  0.00    +0.000 A 
ATOM     27  C   UNL     1      -0.601  10.767  22.348  0.00  0.00    +0.000 A 
ATOM     28  F   UNL     1      -1.262  11.452  23.292  0.00  0.00    +0.000 F 
ATOM     29  C   UNL     1       0.190   9.689  22.708  0.00  0.00    +0.000 A 
ATOM     30  C   UNL     1       0.857   8.984  21.713  0.00  0.00    +0.000 A 
ATOM     31  F   UNL     1       1.616   7.934  22.064  0.00  0.00    +0.000 F 
ENDBRANCH  22  24
ENDBRANCH  19  21
ENDBRANCH  18  19
ENDBRANCH   1  18
TORSDOF 5
ENDMDL
MODEL 9
REMARK VINA RESULT:      -8.2      3.553      8.662
REMARK  Name = 
REMARK  5 active torsions:
REMARK  status: ('A' for Active; 'I' for Inactive)
REMARK    1  A    between atoms: C_2  and  C_3
REMARK    2  A    between atoms: C_3  and  S_4
REMARK    3  A    between atoms: S_4  and  C_5
REMARK    4  A    between atoms: N_15  and  C_16
REMARK    5  A    between atoms: N_22  and  C_23
REMARK                            x       y       z     vdW  Elec       q    Type
REMARK                         _______ _______ _______ _____ _____    ______ ____
ROOT
ATOM      1  C   UNL     1       0.246  11.254  20.471  0.00  0.00    +0.000 A 
ATOM      2  N   UNL     1       1.239  11.741  21.140  0.00  0.00    +0.000 NA
ATOM      3  C   UNL     1       1.783  12.948  20.712  0.00  0.00    +0.000 A 
ATOM      4  N   UNL     1       2.801  13.397  21.476  0.00  0.00    +0.000 NA
ATOM      5  C   UNL     1       3.408  14.541  21.081  0.00  0.00    +0.000 A 
ATOM      6  C   UNL     1       3.041  15.264  19.956  0.00  0.00    +0.000 A 
ATOM      7  C   UNL     1       1.987  14.785  19.186  0.00  0.00    +0.000 A 
ATOM      8  C   UNL     1       1.356  13.604  19.574  0.00  0.00    +0.000 A 
ATOM      9  C   UNL     1       0.234  13.029  18.828  0.00  0.00    +0.000 A 
ATOM     10  O   UNL     1      -0.137  13.617  17.814  0.00  0.00    +0.000 OA
ATOM     11  N   UNL     1      -0.331  11.868  19.361  0.00  0.00    +0.000 N 
ENDROOT
BRANCH  11  12
ATOM     12  C   UNL     1      -1.531  11.392  18.750  0.00  0.00    +0.000 A 
ATOM     13  C   UNL     1      -2.770  11.936  19.116  0.00  0.00    +0.000 A 
ATOM     14  C   UNL     1      -3.948  11.448  18.549  0.00  0.00    +0.000 A 
ATOM     15  C   UNL     1      -3.898  10.395  17.638  0.00  0.00    +0.000 A 
ATOM     16  C   UNL     1      -2.672   9.835  17.282  0.00  0.00    +0.000 A 
ATOM     17  C   UNL     1      -1.489  10.336  17.829  0.00  0.00    +0.000 A 
ENDBRANCH  11  12
BRANCH   1  18
ATOM     18  S   UNL     1      -0.286   9.636  20.912  0.00  0.00    +0.000 S 
BRANCH  18  19
ATOM     19  C   UNL     1       1.298   8.874  21.350  0.00  0.00    +0.000 C 
BRANCH  19  21
ATOM     20  O   UNL     1       1.894   8.210  19.127  0.00  0.00    +0.000 OA
ATOM     21  C   UNL     1       1.718   7.865  20.294  0.00  0.00    +0.000 C 
ATOM     22  N   UNL     1       1.876   6.575  20.773  0.00  0.00    +0.000 N 
ATOM     23  H   UNL     1       1.420   6.337  21.653  0.00  0.00    +0.000 HD
BRANCH  22  24
ATOM     24  C   UNL     1       2.452   5.493  20.067  0.00  0.00    +0.000 A 
ATOM     25  C   UNL     1       3.767   5.498  19.592  0.00  0.00    +0.000 A 
ATOM     26  C   UNL     1       4.282   4.384  18.925  0.00  0.00    +0.000 A 
ATOM     27  C   UNL     1       3.485   3.261  18.741  0.00  0.00    +0.000 A 
ATOM     28  F   UNL     1       3.992   2.193  18.109  0.00  0.00    +0.000 F 
ATOM     29  C   UNL     1       2.181   3.228  19.208  0.00  0.00    +0.000 A 
ATOM     30  C   UNL     1       1.678   4.340  19.871  0.00  0.00    +0.000 A 
ATOM     31  F   UNL     1       0.417   4.302  20.331  0.00  0.00    +0.000 F 
ENDBRANCH  22  24
ENDBRANCH  19  21
ENDBRANCH  18  19
ENDBRANCH   1  18
TORSDOF 5
ENDMDL
