MODEL 1
REMARK VINA RESULT:      -8.7      0.000      0.000
REMARK  Name = 
REMARK  5 active torsions:
REMARK  status: ('A' for Active; 'I' for Inactive)
REMARK    1  A    between atoms: C_1  and  C_2
REMARK    2  A    between atoms: C_5  and  C_6
REMARK    3  A    between atoms: C_10  and  N_11
REMARK    4  A    between atoms: C_12  and  C_14
REMARK    5  A    between atoms: N_22  and  C_23
REMARK                            x       y       z     vdW  Elec       q    Type
REMARK                         _______ _______ _______ _____ _____    ______ ____
ROOT
ATOM      1  N   UNL     1       4.442   7.002  18.040  0.00  0.00    +0.000 N 
ATOM      2  C   UNL     1       3.123   6.653  18.289  0.00  0.00    +0.000 C 
ATOM      3  O   UNL     1       2.640   5.528  18.230  0.00  0.00    +0.000 OA
ATOM      4  H   UNL     1       4.737   7.929  18.315  0.00  0.00    +0.000 HD
ENDROOT
BRANCH   2   5
ATOM      5  C   UNL     1       2.246   7.763  18.752  0.00  0.00    +0.000 A 
ATOM      6  C   UNL     1       1.803   8.694  17.799  0.00  0.00    +0.000 A 
ATOM      7  C   UNL     1       0.957   9.753  18.148  0.00  0.00    +0.000 A 
ATOM      8  C   UNL     1       0.567   9.825  19.488  0.00  0.00    +0.000 A 
ATOM      9  C   UNL     1       1.000   8.920  20.454  0.00  0.00    +0.000 A 
ATOM     10  C   UNL     1       1.873   7.884  20.099  0.00  0.00    +0.000 A 
ATOM     11  N   UNL     1       0.455   9.208  21.681  0.00  0.00    +0.000 NA
ATOM     12  C   UNL     1      -0.302  10.263  21.479  0.00  0.00    +0.000 A 
ATOM     13  N   UNL     1      -0.242  10.687  20.183  0.00  0.00    +0.000 N 
ATOM     14  C   UNL     1      -0.906  11.847  19.644  0.00  0.00    +0.000 C 
ENDBRANCH   2   5
BRANCH   1  19
ATOM     15  C   UNL     1       6.597   4.972  15.803  0.00  0.00    +0.000 A 
ATOM     16  C   UNL     1       7.551   4.495  16.715  0.00  0.00    +0.000 A 
ATOM     17  C   UNL     1       7.457   4.802  18.070  0.00  0.00    +0.000 A 
ATOM     18  C   UNL     1       6.420   5.610  18.528  0.00  0.00    +0.000 A 
ATOM     19  C   UNL     1       5.471   6.122  17.640  0.00  0.00    +0.000 A 
ATOM     20  C   UNL     1       5.545   5.771  16.284  0.00  0.00    +0.000 A 
BRANCH  15  25
ATOM     21  C   UNL     1       5.640   2.635  11.687  0.00  0.00    +0.000 C 
ATOM     22  C   UNL     1       6.323   3.617  12.543  0.00  0.00    +0.000 A 
ATOM     23  C   UNL     1       7.255   4.601  12.324  0.00  0.00    +0.000 A 
ATOM     24  N   UNL     1       7.534   5.250  13.496  0.00  0.00    +0.000 NA
ATOM     25  C   UNL     1       6.766   4.651  14.388  0.00  0.00    +0.000 A 
ATOM     26  O   UNL     1       6.002   3.632  13.873  0.00  0.00    +0.000 OA
ENDBRANCH  15  25
ENDBRANCH   1  19
TORSDOF 3
ENDMDL
MODEL 2
REMARK VINA RESULT:      -8.5      2.240      3.583
REMARK  Name = 
REMARK  5 active torsions:
REMARK  status: ('A' for Active; 'I' for Inactive)
REMARK    1  A    between atoms: C_1  and  C_2
REMARK    2  A    between atoms: C_5  and  C_6
REMARK    3  A    between atoms: C_10  and  N_11
REMARK    4  A    between atoms: C_12  and  C_14
REMARK    5  A    between atoms: N_22  and  C_23
REMARK                            x       y       z     vdW  Elec       q    Type
REMARK                         _______ _______ _______ _____ _____    ______ ____
ROOT
ATOM      1  N   UNL     1       1.878   6.744  20.559  0.00  0.00    +0.000 N 
ATOM      2  C   UNL     1       1.824   7.860  19.736  0.00  0.00    +0.000 C 
ATOM      3  O   UNL     1       2.319   7.971  18.621  0.00  0.00    +0.000 OA
ATOM      4  H   UNL     1       1.264   6.729  21.362  0.00  0.00    +0.000 HD
ENDROOT
BRANCH   2   5
ATOM      5  C   UNL     1       1.005   8.992  20.250  0.00  0.00    +0.000 A 
ATOM      6  C   UNL     1       0.488   9.907  19.318  0.00  0.00    +0.000 A 
ATOM      7  C   UNL     1      -0.312  10.984  19.716  0.00  0.00    +0.000 A 
ATOM      8  C   UNL     1      -0.577  11.092  21.084  0.00  0.00    +0.000 A 
ATOM      9  C   UNL     1      -0.068  10.205  22.029  0.00  0.00    +0.000 A 
ATOM     10  C   UNL     1       0.757   9.150  21.622  0.00  0.00    +0.000 A 
ATOM     11  N   UNL     1      -0.496  10.529  23.293  0.00  0.00    +0.000 NA
ATOM     12  C   UNL     1      -1.257  11.589  23.134  0.00  0.00    +0.000 A 
ATOM     13  N   UNL     1      -1.310  11.981  21.828  0.00  0.00    +0.000 N 
ATOM     14  C   UNL     1      -2.008  13.137  21.323  0.00  0.00    +0.000 C 
ENDBRANCH   2   5
BRANCH   1  19
ATOM     15  C   UNL     1       4.427   4.434  19.168  0.00  0.00    +0.000 A 
ATOM     16  C   UNL     1       4.027   3.220  19.747  0.00  0.00    +0.000 A 
ATOM     17  C   UNL     1       2.894   3.153  20.553  0.00  0.00    +0.000 A 
ATOM     18  C   UNL     1       2.158   4.306  20.812  0.00  0.00    +0.000 A 
ATOM     19  C   UNL     1       2.546   5.535  20.272  0.00  0.00    +0.000 A 
ATOM     20  C   UNL     1       3.661   5.586  19.422  0.00  0.00    +0.000 A 
BRANCH  15  25
ATOM     21  C   UNL     1       6.977   4.605  15.071  0.00  0.00    +0.000 C 
ATOM     22  C   UNL     1       6.784   4.549  16.528  0.00  0.00    +0.000 A 
ATOM     23  C   UNL     1       7.626   4.582  17.613  0.00  0.00    +0.000 A 
ATOM     24  N   UNL     1       6.899   4.519  18.770  0.00  0.00    +0.000 NA
ATOM     25  C   UNL     1       5.644   4.454  18.362  0.00  0.00    +0.000 A 
ATOM     26  O   UNL     1       5.501   4.458  16.996  0.00  0.00    +0.000 OA
ENDBRANCH  15  25
ENDBRANCH   1  19
TORSDOF 3
ENDMDL
MODEL 3
REMARK VINA RESULT:      -8.3      2.301      3.895
REMARK  Name = 
REMARK  5 active torsions:
REMARK  status: ('A' for Active; 'I' for Inactive)
REMARK    1  A    between atoms: C_1  and  C_2
REMARK    2  A    between atoms: C_5  and  C_6
REMARK    3  A    between atoms: C_10  and  N_11
REMARK    4  A    between atoms: C_12  and  C_14
REMARK    5  A    between atoms: N_22  and  C_23
REMARK                            x       y       z     vdW  Elec       q    Type
REMARK                         _______ _______ _______ _____ _____    ______ ____
ROOT
ATOM      1  N   UNL     1       1.865   6.594  20.755  0.00  0.00    +0.000 N 
ATOM      2  C   UNL     1       1.805   7.753  19.995  0.00  0.00    +0.000 C 
ATOM      3  O   UNL     1       2.289   7.925  18.882  0.00  0.00    +0.000 OA
ATOM      4  H   UNL     1       1.260   6.535  21.562  0.00  0.00    +0.000 HD
ENDROOT
BRANCH   2   5
ATOM      5  C   UNL     1       0.995   8.857  20.579  0.00  0.00    +0.000 A 
ATOM      6  C   UNL     1       0.405   8.647  21.836  0.00  0.00    +0.000 A 
ATOM      7  C   UNL     1      -0.352   9.643  22.464  0.00  0.00    +0.000 A 
ATOM      8  C   UNL     1      -0.476  10.856  21.782  0.00  0.00    +0.000 A 
ATOM      9  C   UNL     1       0.090  11.086  20.531  0.00  0.00    +0.000 A 
ATOM     10  C   UNL     1       0.818  10.071  19.898  0.00  0.00    +0.000 A 
ATOM     11  N   UNL     1      -0.169  12.363  20.097  0.00  0.00    +0.000 NA
ATOM     12  C   UNL     1      -0.875  12.914  21.060  0.00  0.00    +0.000 A 
ATOM     13  N   UNL     1      -1.110  12.036  22.078  0.00  0.00    +0.000 N 
ATOM     14  C   UNL     1      -1.897  12.303  23.256  0.00  0.00    +0.000 C 
ENDBRANCH   2   5
BRANCH   1  19
ATOM     15  C   UNL     1       4.398   4.359  19.219  0.00  0.00    +0.000 A 
ATOM     16  C   UNL     1       3.995   3.114  19.727  0.00  0.00    +0.000 A 
ATOM     17  C   UNL     1       2.865   3.005  20.533  0.00  0.00    +0.000 A 
ATOM     18  C   UNL     1       2.135   4.144  20.862  0.00  0.00    +0.000 A 
ATOM     19  C   UNL     1       2.527   5.400  20.394  0.00  0.00    +0.000 A 
ATOM     20  C   UNL     1       3.639   5.497  19.544  0.00  0.00    +0.000 A 
BRANCH  15  25
ATOM     21  C   UNL     1       6.933   4.573  15.115  0.00  0.00    +0.000 C 
ATOM     22  C   UNL     1       6.744   4.535  16.573  0.00  0.00    +0.000 A 
ATOM     23  C   UNL     1       7.585   4.628  17.655  0.00  0.00    +0.000 A 
ATOM     24  N   UNL     1       6.863   4.552  18.815  0.00  0.00    +0.000 NA
ATOM     25  C   UNL     1       5.612   4.420  18.410  0.00  0.00    +0.000 A 
ATOM     26  O   UNL     1       5.467   4.393  17.045  0.00  0.00    +0.000 OA
ENDBRANCH  15  25
ENDBRANCH   1  19
TORSDOF 3
ENDMDL
MODEL 4
REMARK VINA RESULT:      -8.3      0.676      1.457
REMARK  Name = 
REMARK  5 active torsions:
REMARK  status: ('A' for Active; 'I' for Inactive)
REMARK    1  A    between atoms: C_1  and  C_2
REMARK    2  A    between atoms: C_5  and  C_6
REMARK    3  A    between atoms: C_10  and  N_11
REMARK    4  A    between atoms: C_12  and  C_14
REMARK    5  A    between atoms: N_22  and  C_23
REMARK                            x       y       z     vdW  Elec       q    Type
REMARK                         _______ _______ _______ _____ _____    ______ ____
ROOT
ATOM      1  N   UNL     1       4.396   6.841  18.159  0.00  0.00    +0.000 N 
ATOM      2  C   UNL     1       3.241   6.433  18.809  0.00  0.00    +0.000 C 
ATOM      3  O   UNL     1       2.951   5.289  19.138  0.00  0.00    +0.000 OA
ATOM      4  H   UNL     1       4.586   7.834  18.126  0.00  0.00    +0.000 HD
ENDROOT
BRANCH   2   5
ATOM      5  C   UNL     1       2.314   7.528  19.209  0.00  0.00    +0.000 A 
ATOM      6  C   UNL     1       1.762   7.485  20.500  0.00  0.00    +0.000 A 
ATOM      7  C   UNL     1       0.902   8.487  20.962  0.00  0.00    +0.000 A 
ATOM      8  C   UNL     1       0.634   9.536  20.078  0.00  0.00    +0.000 A 
ATOM      9  C   UNL     1       1.160   9.597  18.790  0.00  0.00    +0.000 A 
ATOM     10  C   UNL     1       1.994   8.572  18.328  0.00  0.00    +0.000 A 
ATOM     11  N   UNL     1       0.754  10.738  18.143  0.00  0.00    +0.000 NA
ATOM     12  C   UNL     1      -0.003  11.372  19.011  0.00  0.00    +0.000 A 
ATOM     13  N   UNL     1      -0.128  10.672  20.177  0.00  0.00    +0.000 N 
ATOM     14  C   UNL     1      -0.931  11.059  21.309  0.00  0.00    +0.000 C 
ENDBRANCH   2   5
BRANCH   1  19
ATOM     15  C   UNL     1       6.570   4.915  15.849  0.00  0.00    +0.000 A 
ATOM     16  C   UNL     1       7.555   4.454  16.736  0.00  0.00    +0.000 A 
ATOM     17  C   UNL     1       7.477   4.735  18.098  0.00  0.00    +0.000 A 
ATOM     18  C   UNL     1       6.424   5.504  18.588  0.00  0.00    +0.000 A 
ATOM     19  C   UNL     1       5.444   6.000  17.726  0.00  0.00    +0.000 A 
ATOM     20  C   UNL     1       5.503   5.673  16.363  0.00  0.00    +0.000 A 
BRANCH  15  25
ATOM     21  C   UNL     1       5.577   2.647  11.703  0.00  0.00    +0.000 C 
ATOM     22  C   UNL     1       6.263   3.619  12.568  0.00  0.00    +0.000 A 
ATOM     23  C   UNL     1       7.184   4.616  12.355  0.00  0.00    +0.000 A 
ATOM     24  N   UNL     1       7.473   5.245  13.535  0.00  0.00    +0.000 NA
ATOM     25  C   UNL     1       6.722   4.622  14.427  0.00  0.00    +0.000 A 
ATOM     26  O   UNL     1       5.961   3.606  13.903  0.00  0.00    +0.000 OA
ENDBRANCH  15  25
ENDBRANCH   1  19
TORSDOF 3
ENDMDL
MODEL 5
REMARK VINA RESULT:      -8.2      4.929      7.095
REMARK  Name = 
REMARK  5 active torsions:
REMARK  status: ('A' for Active; 'I' for Inactive)
REMARK    1  A    between atoms: C_1  and  C_2
REMARK    2  A    between atoms: C_5  and  C_6
REMARK    3  A    between atoms: C_10  and  N_11
REMARK    4  A    between atoms: C_12  and  C_14
REMARK    5  A    between atoms: N_22  and  C_23
REMARK                            x       y       z     vdW  Elec       q    Type
REMARK                         _______ _______ _______ _____ _____    ______ ____
ROOT
ATOM      1  N   UNL     1       7.078   7.757  17.199  0.00  0.00    +0.000 N 
ATOM      2  C   UNL     1       8.022   7.980  18.191  0.00  0.00    +0.000 C 
ATOM      3  O   UNL     1       8.559   7.133  18.895  0.00  0.00    +0.000 OA
ATOM      4  H   UNL     1       6.870   8.524  16.574  0.00  0.00    +0.000 HD
ENDROOT
BRANCH   2   5
ATOM      5  C   UNL     1       8.472   9.392  18.337  0.00  0.00    +0.000 A 
ATOM      6  C   UNL     1       7.973  10.340  17.429  0.00  0.00    +0.000 A 
ATOM      7  C   UNL     1       8.328  11.691  17.512  0.00  0.00    +0.000 A 
ATOM      8  C   UNL     1       9.191  12.047  18.551  0.00  0.00    +0.000 A 
ATOM      9  C   UNL     1       9.708  11.125  19.458  0.00  0.00    +0.000 A 
ATOM     10  C   UNL     1       9.372   9.770  19.345  0.00  0.00    +0.000 A 
ATOM     11  N   UNL     1      10.513  11.740  20.385  0.00  0.00    +0.000 NA
ATOM     12  C   UNL     1      10.491  13.015  20.063  0.00  0.00    +0.000 A 
ATOM     13  N   UNL     1       9.735  13.241  18.950  0.00  0.00    +0.000 N 
ATOM     14  C   UNL     1       9.549  14.515  18.302  0.00  0.00    +0.000 C 
ENDBRANCH   2   5
BRANCH   1  19
ATOM     15  C   UNL     1       4.728   4.887  17.127  0.00  0.00    +0.000 A 
ATOM     16  C   UNL     1       5.297   4.105  16.109  0.00  0.00    +0.000 A 
ATOM     17  C   UNL     1       6.476   4.499  15.482  0.00  0.00    +0.000 A 
ATOM     18  C   UNL     1       7.091   5.693  15.849  0.00  0.00    +0.000 A 
ATOM     19  C   UNL     1       6.534   6.505  16.839  0.00  0.00    +0.000 A 
ATOM     20  C   UNL     1       5.372   6.079  17.499  0.00  0.00    +0.000 A 
BRANCH  15  25
ATOM     21  C   UNL     1       1.321   4.683  20.542  0.00  0.00    +0.000 C 
ATOM     22  C   UNL     1       1.937   4.370  19.244  0.00  0.00    +0.000 A 
ATOM     23  C   UNL     1       1.542   3.660  18.138  0.00  0.00    +0.000 A 
ATOM     24  N   UNL     1       2.517   3.708  17.179  0.00  0.00    +0.000 NA
ATOM     25  C   UNL     1       3.470   4.445  17.722  0.00  0.00    +0.000 A 
ATOM     26  O   UNL     1       3.184   4.877  18.994  0.00  0.00    +0.000 OA
ENDBRANCH  15  25
ENDBRANCH   1  19
TORSDOF 3
ENDMDL
MODEL 6
REMARK VINA RESULT:      -8.1      4.752      7.042
REMARK  Name = 
REMARK  5 active torsions:
REMARK  status: ('A' for Active; 'I' for Inactive)
REMARK    1  A    between atoms: C_1  and  C_2
REMARK    2  A    between atoms: C_5  and  C_6
REMARK    3  A    between atoms: C_10  and  N_11
REMARK    4  A    between atoms: C_12  and  C_14
REMARK    5  A    between atoms: N_22  and  C_23
REMARK                            x       y       z     vdW  Elec       q    Type
REMARK                         _______ _______ _______ _____ _____    ______ ____
ROOT
ATOM      1  N   UNL     1       6.876   7.634  17.124  0.00  0.00    +0.000 N 
ATOM      2  C   UNL     1       7.851   7.828  18.092  0.00  0.00    +0.000 C 
ATOM      3  O   UNL     1       8.414   6.959  18.747  0.00  0.00    +0.000 OA
ATOM      4  H   UNL     1       6.645   8.421  16.533  0.00  0.00    +0.000 HD
ENDROOT
BRANCH   2   5
ATOM      5  C   UNL     1       8.299   9.236  18.273  0.00  0.00    +0.000 A 
ATOM      6  C   UNL     1       9.321   9.487  19.202  0.00  0.00    +0.000 A 
ATOM      7  C   UNL     1       9.816  10.779  19.414  0.00  0.00    +0.000 A 
ATOM      8  C   UNL     1       9.250  11.799  18.644  0.00  0.00    +0.000 A 
ATOM      9  C   UNL     1       8.229  11.577  17.724  0.00  0.00    +0.000 A 
ATOM     10  C   UNL     1       7.719  10.285  17.544  0.00  0.00    +0.000 A 
ATOM     11  N   UNL     1       7.869  12.743  17.092  0.00  0.00    +0.000 NA
ATOM     12  C   UNL     1       8.653  13.665  17.606  0.00  0.00    +0.000 A 
ATOM     13  N   UNL     1       9.478  13.149  18.564  0.00  0.00    +0.000 N 
ATOM     14  C   UNL     1      10.417  13.898  19.359  0.00  0.00    +0.000 C 
ENDBRANCH   2   5
BRANCH   1  19
ATOM     15  C   UNL     1       4.542   4.751  17.031  0.00  0.00    +0.000 A 
ATOM     16  C   UNL     1       5.076   4.013  15.964  0.00  0.00    +0.000 A 
ATOM     17  C   UNL     1       6.229   4.438  15.308  0.00  0.00    +0.000 A 
ATOM     18  C   UNL     1       6.850   5.622  15.697  0.00  0.00    +0.000 A 
ATOM     19  C   UNL     1       6.327   6.393  16.738  0.00  0.00    +0.000 A 
ATOM     20  C   UNL     1       5.193   5.934  17.424  0.00  0.00    +0.000 A 
BRANCH  15  25
ATOM     21  C   UNL     1       1.221   4.467  20.525  0.00  0.00    +0.000 C 
ATOM     22  C   UNL     1       1.816   4.167  19.214  0.00  0.00    +0.000 A 
ATOM     23  C   UNL     1       1.414   3.444  18.118  0.00  0.00    +0.000 A 
ATOM     24  N   UNL     1       2.365   3.515  17.137  0.00  0.00    +0.000 NA
ATOM     25  C   UNL     1       3.310   4.278  17.657  0.00  0.00    +0.000 A 
ATOM     26  O   UNL     1       3.042   4.706  18.934  0.00  0.00    +0.000 OA
ENDBRANCH  15  25
ENDBRANCH   1  19
TORSDOF 3
ENDMDL
MODEL 7
REMARK VINA RESULT:      -7.9      2.824      8.799
REMARK  Name = 
REMARK  5 active torsions:
REMARK  status: ('A' for Active; 'I' for Inactive)
REMARK    1  A    between atoms: C_1  and  C_2
REMARK    2  A    between atoms: C_5  and  C_6
REMARK    3  A    between atoms: C_10  and  N_11
REMARK    4  A    between atoms: C_12  and  C_14
REMARK    5  A    between atoms: N_22  and  C_23
REMARK                            x       y       z     vdW  Elec       q    Type
REMARK                         _______ _______ _______ _____ _____    ______ ____
ROOT
ATOM      1  N   UNL     1       2.167   8.624  18.435  0.00  0.00    +0.000 N 
ATOM      2  C   UNL     1       2.573   7.398  18.940  0.00  0.00    +0.000 C 
ATOM      3  O   UNL     1       2.049   6.773  19.855  0.00  0.00    +0.000 OA
ATOM      4  H   UNL     1       2.574   8.924  17.559  0.00  0.00    +0.000 HD
ENDROOT
BRANCH   2   5
ATOM      5  C   UNL     1       3.712   6.759  18.225  0.00  0.00    +0.000 A 
ATOM      6  C   UNL     1       3.877   7.045  16.860  0.00  0.00    +0.000 A 
ATOM      7  C   UNL     1       4.936   6.505  16.122  0.00  0.00    +0.000 A 
ATOM      8  C   UNL     1       5.824   5.680  16.817  0.00  0.00    +0.000 A 
ATOM      9  C   UNL     1       5.677   5.372  18.167  0.00  0.00    +0.000 A 
ATOM     10  C   UNL     1       4.596   5.893  18.887  0.00  0.00    +0.000 A 
ATOM     11  N   UNL     1       6.695   4.559  18.603  0.00  0.00    +0.000 NA
ATOM     12  C   UNL     1       7.457   4.371  17.548  0.00  0.00    +0.000 A 
ATOM     13  N   UNL     1       6.956   5.000  16.445  0.00  0.00    +0.000 N 
ATOM     14  C   UNL     1       7.517   4.948  15.119  0.00  0.00    +0.000 C 
ENDBRANCH   2   5
BRANCH   1  19
ATOM     15  C   UNL     1      -1.074  10.431  18.424  0.00  0.00    +0.000 A 
ATOM     16  C   UNL     1      -1.168  10.812  19.772  0.00  0.00    +0.000 A 
ATOM     17  C   UNL     1      -0.146  10.518  20.670  0.00  0.00    +0.000 A 
ATOM     18  C   UNL     1       0.976   9.816  20.237  0.00  0.00    +0.000 A 
ATOM     19  C   UNL     1       1.086   9.399  18.909  0.00  0.00    +0.000 A 
ATOM     20  C   UNL     1       0.074   9.740  17.999  0.00  0.00    +0.000 A 
BRANCH  15  25
ATOM     21  C   UNL     1      -3.644  10.137  14.347  0.00  0.00    +0.000 C 
ATOM     22  C   UNL     1      -3.351  10.584  15.717  0.00  0.00    +0.000 A 
ATOM     23  C   UNL     1      -4.025  11.335  16.649  0.00  0.00    +0.000 A 
ATOM     24  N   UNL     1      -3.285  11.427  17.797  0.00  0.00    +0.000 NA
ATOM     25  C   UNL     1      -2.193  10.732  17.536  0.00  0.00    +0.000 A 
ATOM     26  O   UNL     1      -2.163  10.194  16.272  0.00  0.00    +0.000 OA
ENDBRANCH  15  25
ENDBRANCH   1  19
TORSDOF 3
ENDMDL
MODEL 8
REMARK VINA RESULT:      -7.8      3.305      9.739
REMARK  Name = 
REMARK  5 active torsions:
REMARK  status: ('A' for Active; 'I' for Inactive)
REMARK    1  A    between atoms: C_1  and  C_2
REMARK    2  A    between atoms: C_5  and  C_6
REMARK    3  A    between atoms: C_10  and  N_11
REMARK    4  A    between atoms: C_12  and  C_14
REMARK    5  A    between atoms: N_22  and  C_23
REMARK                            x       y       z     vdW  Elec       q    Type
REMARK                         _______ _______ _______ _____ _____    ______ ____
ROOT
ATOM      1  N   UNL     1       0.868   9.236  19.357  0.00  0.00    +0.000 N 
ATOM      2  C   UNL     1       1.792   8.965  18.359  0.00  0.00    +0.000 C 
ATOM      3  O   UNL     1       2.102   9.702  17.429  0.00  0.00    +0.000 OA
ATOM      4  H   UNL     1       0.857   8.622  20.160  0.00  0.00    +0.000 HD
ENDROOT
BRANCH   2   5
ATOM      5  C   UNL     1       2.526   7.678  18.502  0.00  0.00    +0.000 A 
ATOM      6  C   UNL     1       2.217   6.862  19.602  0.00  0.00    +0.000 A 
ATOM      7  C   UNL     1       2.844   5.626  19.795  0.00  0.00    +0.000 A 
ATOM      8  C   UNL     1       3.782   5.244  18.832  0.00  0.00    +0.000 A 
ATOM      9  C   UNL     1       4.113   6.039  17.738  0.00  0.00    +0.000 A 
ATOM     10  C   UNL     1       3.503   7.288  17.572  0.00  0.00    +0.000 A 
ATOM     11  N   UNL     1       5.045   5.421  16.940  0.00  0.00    +0.000 NA
ATOM     12  C   UNL     1       5.281   4.266  17.524  0.00  0.00    +0.000 A 
ATOM     13  N   UNL     1       4.567   4.130  18.679  0.00  0.00    +0.000 N 
ATOM     14  C   UNL     1       4.637   3.012  19.585  0.00  0.00    +0.000 C 
ENDBRANCH   2   5
BRANCH   1  19
ATOM     15  C   UNL     1      -2.000  11.548  18.910  0.00  0.00    +0.000 A 
ATOM     16  C   UNL     1      -1.605  12.620  19.725  0.00  0.00    +0.000 A 
ATOM     17  C   UNL     1      -0.377  12.602  20.381  0.00  0.00    +0.000 A 
ATOM     18  C   UNL     1       0.464  11.500  20.249  0.00  0.00    +0.000 A 
ATOM     19  C   UNL     1       0.086  10.406  19.468  0.00  0.00    +0.000 A 
ATOM     20  C   UNL     1      -1.132  10.451  18.772  0.00  0.00    +0.000 A 
BRANCH  15  25
ATOM     21  C   UNL     1      -6.765  12.312  18.748  0.00  0.00    +0.000 C 
ATOM     22  C   UNL     1      -5.445  11.964  18.203  0.00  0.00    +0.000 A 
ATOM     23  C   UNL     1      -4.969  11.666  16.949  0.00  0.00    +0.000 A 
ATOM     24  N   UNL     1      -3.622  11.435  17.004  0.00  0.00    +0.000 NA
ATOM     25  C   UNL     1      -3.315  11.603  18.277  0.00  0.00    +0.000 A 
ATOM     26  O   UNL     1      -4.389  11.920  19.073  0.00  0.00    +0.000 OA
ENDBRANCH  15  25
ENDBRANCH   1  19
TORSDOF 3
ENDMDL
MODEL 9
REMARK VINA RESULT:      -7.8      3.753      9.524
REMARK  Name = 
REMARK  5 active torsions:
REMARK  status: ('A' for Active; 'I' for Inactive)
REMARK    1  A    between atoms: C_1  and  C_2
REMARK    2  A    between atoms: C_5  and  C_6
REMARK    3  A    between atoms: C_10  and  N_11
REMARK    4  A    between atoms: C_12  and  C_14
REMARK    5  A    between atoms: N_22  and  C_23
REMARK                            x       y       z     vdW  Elec       q    Type
REMARK                         _______ _______ _______ _____ _____    ______ ____
ROOT
ATOM      1  N   UNL     1       1.292   9.096  18.644  0.00  0.00    +0.000 N 
ATOM      2  C   UNL     1       1.542   8.387  19.810  0.00  0.00    +0.000 C 
ATOM      3  O   UNL     1       1.209   8.705  20.946  0.00  0.00    +0.000 OA
ATOM      4  H   UNL     1       1.454   8.620  17.767  0.00  0.00    +0.000 HD
ENDROOT
BRANCH   2   5
ATOM      5  C   UNL     1       2.211   7.070  19.625  0.00  0.00    +0.000 A 
ATOM      6  C   UNL     1       1.981   6.073  20.586  0.00  0.00    +0.000 A 
ATOM      7  C   UNL     1       2.553   4.801  20.472  0.00  0.00    +0.000 A 
ATOM      8  C   UNL     1       3.352   4.574  19.348  0.00  0.00    +0.000 A 
ATOM      9  C   UNL     1       3.604   5.549  18.387  0.00  0.00    +0.000 A 
ATOM     10  C   UNL     1       3.052   6.828  18.528  0.00  0.00    +0.000 A 
ATOM     11  N   UNL     1       4.401   5.058  17.381  0.00  0.00    +0.000 NA
ATOM     12  C   UNL     1       4.634   3.807  17.711  0.00  0.00    +0.000 A 
ATOM     13  N   UNL     1       4.049   3.481  18.900  0.00  0.00    +0.000 N 
ATOM     14  C   UNL     1       4.155   2.210  19.571  0.00  0.00    +0.000 C 
ENDBRANCH   2   5
BRANCH   1  19
ATOM     15  C   UNL     1      -1.475  11.531  18.216  0.00  0.00    +0.000 A 
ATOM     16  C   UNL     1      -0.811  12.737  18.491  0.00  0.00    +0.000 A 
ATOM     17  C   UNL     1       0.553  12.752  18.769  0.00  0.00    +0.000 A 
ATOM     18  C   UNL     1       1.268  11.558  18.799  0.00  0.00    +0.000 A 
ATOM     19  C   UNL     1       0.630  10.340  18.557  0.00  0.00    +0.000 A 
ATOM     20  C   UNL     1      -0.735  10.336  18.231  0.00  0.00    +0.000 A 
BRANCH  15  25
ATOM     21  C   UNL     1      -6.100  12.353  19.332  0.00  0.00    +0.000 C 
ATOM     22  C   UNL     1      -4.982  11.957  18.464  0.00  0.00    +0.000 A 
ATOM     23  C   UNL     1      -4.871  11.582  17.148  0.00  0.00    +0.000 A 
ATOM     24  N   UNL     1      -3.561  11.336  16.841  0.00  0.00    +0.000 NA
ATOM     25  C   UNL     1      -2.914  11.570  17.969  0.00  0.00    +0.000 A 
ATOM     26  O   UNL     1      -3.727  11.946  19.010  0.00  0.00    +0.000 OA
ENDBRANCH  15  25
ENDBRANCH   1  19
TORSDOF 3
ENDMDL
