MODEL 1
REMARK VINA RESULT:      -9.0      0.000      0.000
REMARK  Name = 
REMARK  4 active torsions:
REMARK  status: ('A' for Active; 'I' for Inactive)
REMARK    1  A    between atoms: C_2  and  C_18
REMARK    2  A    between atoms: N_3  and  C_4
REMARK    3  A    between atoms: C_4  and  C_5
REMARK    4  A    between atoms: C_8  and  C_9
REMARK                            x       y       z     vdW  Elec       q    Type
REMARK                         _______ _______ _______ _____ _____    ______ ____
ROOT
ATOM      1  O   UNL     1       2.177   6.248  20.773  0.00  0.00    +0.000 OA
ATOM      2  C   UNL     1       2.113   6.624  19.611  0.00  0.00    +0.000 C 
ATOM      3  N   UNL     1       2.290   5.789  18.532  0.00  0.00    +0.000 N 
ATOM      4  H   UNL     1       2.202   6.154  17.591  0.00  0.00    +0.000 HD
ENDROOT
BRANCH   2   5
ATOM      5  C   UNL     1       1.838   8.052  19.304  0.00  0.00    +0.000 A 
ATOM      6  C   UNL     1       2.224   8.553  18.070  0.00  0.00    +0.000 A 
ATOM      7  N   UNL     1       2.010   9.830  17.717  0.00  0.00    +0.000 NA
ATOM      8  N   UNL     1       1.362  10.660  18.584  0.00  0.00    +0.000 NA
ATOM      9  C   UNL     1       0.930  10.223  19.778  0.00  0.00    +0.000 A 
ATOM     10  C   UNL     1       0.241  11.101  20.609  0.00  0.00    +0.000 A 
ATOM     11  C   UNL     1      -0.243  10.708  21.858  0.00  0.00    +0.000 A 
ATOM     12  C   UNL     1      -0.020   9.416  22.301  0.00  0.00    +0.000 A 
ATOM     13  C   UNL     1       0.681   8.524  21.490  0.00  0.00    +0.000 A 
ATOM     14  C   UNL     1       1.152   8.899  20.205  0.00  0.00    +0.000 A 
ENDBRANCH   2   5
BRANCH   3  15
ATOM     15  C   UNL     1       2.618   4.353  18.610  0.00  0.00    +0.000 C 
ATOM     16  C   UNL     1       2.069   3.538  17.425  0.00  0.00    +0.000 C 
ATOM     17  C   UNL     1       2.003   2.095  17.925  0.00  0.00    +0.000 C 
ATOM     18  C   UNL     1       1.995   2.163  19.452  0.00  0.00    +0.000 C 
ATOM     19  C   UNL     1       1.962   3.648  19.811  0.00  0.00    +0.000 C 
BRANCH  15  20
ATOM     20  C   UNL     1       4.143   4.298  18.648  0.00  0.00    +0.000 A 
ATOM     21  N   UNL     1       4.876   4.266  19.770  0.00  0.00    +0.000 NA
ATOM     22  O   UNL     1       6.185   4.409  19.318  0.00  0.00    +0.000 OA
ATOM     23  C   UNL     1       6.123   4.537  17.960  0.00  0.00    +0.000 A 
ATOM     24  N   UNL     1       4.886   4.471  17.497  0.00  0.00    +0.000 NA
BRANCH  23  25
ATOM     25  C   UNL     1       7.408   4.807  17.266  0.00  0.00    +0.000 C 
ATOM     26  F   UNL     1       7.394   4.428  15.959  0.00  0.00    +0.000 F 
ATOM     27  F   UNL     1       7.744   6.124  17.284  0.00  0.00    +0.000 F 
ATOM     28  F   UNL     1       8.439   4.135  17.848  0.00  0.00    +0.000 F 
ENDBRANCH  23  25
ENDBRANCH  15  20
ENDBRANCH   3  15
TORSDOF 4
ENDMDL
MODEL 2
REMARK VINA RESULT:      -8.7      1.884      2.469
REMARK  Name = 
REMARK  4 active torsions:
REMARK  status: ('A' for Active; 'I' for Inactive)
REMARK    1  A    between atoms: C_2  and  C_18
REMARK    2  A    between atoms: N_3  and  C_4
REMARK    3  A    between atoms: C_4  and  C_5
REMARK    4  A    between atoms: C_8  and  C_9
REMARK                            x       y       z     vdW  Elec       q    Type
REMARK                         _______ _______ _______ _____ _____    ______ ____
ROOT
ATOM      1  O   UNL     1       2.081   7.966  18.323  0.00  0.00    +0.000 OA
ATOM      2  C   UNL     1       1.914   7.661  19.495  0.00  0.00    +0.000 C 
ATOM      3  N   UNL     1       2.211   6.418  20.006  0.00  0.00    +0.000 N 
ATOM      4  H   UNL     1       2.073   6.231  20.992  0.00  0.00    +0.000 HD
ENDROOT
BRANCH   2   5
ATOM      5  C   UNL     1       1.358   8.653  20.452  0.00  0.00    +0.000 A 
ATOM      6  C   UNL     1       1.731   8.573  21.784  0.00  0.00    +0.000 A 
ATOM      7  N   UNL     1       1.274   9.432  22.709  0.00  0.00    +0.000 NA
ATOM      8  N   UNL     1       0.440  10.440  22.325  0.00  0.00    +0.000 NA
ATOM      9  C   UNL     1       0.072  10.592  21.042  0.00  0.00    +0.000 A 
ATOM     10  C   UNL     1      -0.752  11.660  20.698  0.00  0.00    +0.000 A 
ATOM     11  C   UNL     1      -1.162  11.880  19.382  0.00  0.00    +0.000 A 
ATOM     12  C   UNL     1      -0.760  11.007  18.386  0.00  0.00    +0.000 A 
ATOM     13  C   UNL     1       0.054   9.923  18.712  0.00  0.00    +0.000 A 
ATOM     14  C   UNL     1       0.505   9.703  20.040  0.00  0.00    +0.000 A 
ENDBRANCH   2   5
BRANCH   3  15
ATOM     15  C   UNL     1       2.725   5.276  19.226  0.00  0.00    +0.000 C 
ATOM     16  C   UNL     1       1.850   4.928  18.008  0.00  0.00    +0.000 C 
ATOM     17  C   UNL     1       2.182   3.472  17.678  0.00  0.00    +0.000 C 
ATOM     18  C   UNL     1       2.789   2.866  18.944  0.00  0.00    +0.000 C 
ATOM     19  C   UNL     1       2.714   3.954  20.014  0.00  0.00    +0.000 C 
BRANCH  15  20
ATOM     20  C   UNL     1       4.125   5.696  18.788  0.00  0.00    +0.000 A 
ATOM     21  N   UNL     1       4.440   6.131  17.560  0.00  0.00    +0.000 NA
ATOM     22  O   UNL     1       5.830   6.212  17.580  0.00  0.00    +0.000 OA
ATOM     23  C   UNL     1       6.232   5.794  18.816  0.00  0.00    +0.000 A 
ATOM     24  N   UNL     1       5.218   5.469  19.600  0.00  0.00    +0.000 NA
BRANCH  23  25
ATOM     25  C   UNL     1       7.699   5.698  19.032  0.00  0.00    +0.000 C 
ATOM     26  F   UNL     1       8.280   4.714  18.295  0.00  0.00    +0.000 F 
ATOM     27  F   UNL     1       8.347   6.852  18.719  0.00  0.00    +0.000 F 
ATOM     28  F   UNL     1       7.993   5.428  20.333  0.00  0.00    +0.000 F 
ENDBRANCH  23  25
ENDBRANCH  15  20
ENDBRANCH   3  15
TORSDOF 4
ENDMDL
MODEL 3
REMARK VINA RESULT:      -8.6      3.804      7.412
REMARK  Name = 
REMARK  4 active torsions:
REMARK  status: ('A' for Active; 'I' for Inactive)
REMARK    1  A    between atoms: C_2  and  C_18
REMARK    2  A    between atoms: N_3  and  C_4
REMARK    3  A    between atoms: C_4  and  C_5
REMARK    4  A    between atoms: C_8  and  C_9
REMARK                            x       y       z     vdW  Elec       q    Type
REMARK                         _______ _______ _______ _____ _____    ______ ____
ROOT
ATOM      1  O   UNL     1       4.365   3.125  16.839  0.00  0.00    +0.000 OA
ATOM      2  C   UNL     1       4.690   4.305  16.809  0.00  0.00    +0.000 C 
ATOM      3  N   UNL     1       4.079   5.279  17.563  0.00  0.00    +0.000 N 
ATOM      4  H   UNL     1       4.407   6.236  17.513  0.00  0.00    +0.000 HD
ENDROOT
BRANCH   2   5
ATOM      5  C   UNL     1       5.793   4.751  15.919  0.00  0.00    +0.000 A 
ATOM      6  C   UNL     1       6.792   5.553  16.450  0.00  0.00    +0.000 A 
ATOM      7  N   UNL     1       7.823   5.996  15.713  0.00  0.00    +0.000 NA
ATOM      8  N   UNL     1       7.914   5.621  14.405  0.00  0.00    +0.000 NA
ATOM      9  C   UNL     1       6.998   4.815  13.843  0.00  0.00    +0.000 A 
ATOM     10  C   UNL     1       7.158   4.433  12.515  0.00  0.00    +0.000 A 
ATOM     11  C   UNL     1       6.248   3.590  11.876  0.00  0.00    +0.000 A 
ATOM     12  C   UNL     1       5.141   3.130  12.566  0.00  0.00    +0.000 A 
ATOM     13  C   UNL     1       4.953   3.513  13.894  0.00  0.00    +0.000 A 
ATOM     14  C   UNL     1       5.886   4.344  14.568  0.00  0.00    +0.000 A 
ENDBRANCH   2   5
BRANCH   3  15
ATOM     15  C   UNL     1       2.937   5.064  18.472  0.00  0.00    +0.000 C 
ATOM     16  C   UNL     1       3.276   4.162  19.672  0.00  0.00    +0.000 C 
ATOM     17  C   UNL     1       1.933   3.613  20.155  0.00  0.00    +0.000 C 
ATOM     18  C   UNL     1       0.959   3.754  18.984  0.00  0.00    +0.000 C 
ATOM     19  C   UNL     1       1.777   4.295  17.813  0.00  0.00    +0.000 C 
BRANCH  15  20
ATOM     20  C   UNL     1       2.535   6.461  18.938  0.00  0.00    +0.000 A 
ATOM     21  N   UNL     1       2.176   6.772  20.191  0.00  0.00    +0.000 NA
ATOM     22  O   UNL     1       1.728   8.087  20.094  0.00  0.00    +0.000 OA
ATOM     23  C   UNL     1       1.836   8.445  18.782  0.00  0.00    +0.000 A 
ATOM     24  N   UNL     1       2.333   7.480  18.027  0.00  0.00    +0.000 NA
BRANCH  23  25
ATOM     25  C   UNL     1       1.312   9.788  18.422  0.00  0.00    +0.000 C 
ATOM     26  F   UNL     1       0.949  10.524  19.507  0.00  0.00    +0.000 F 
ATOM     27  F   UNL     1       2.219  10.533  17.734  0.00  0.00    +0.000 F 
ATOM     28  F   UNL     1       0.206   9.697  17.634  0.00  0.00    +0.000 F 
ENDBRANCH  23  25
ENDBRANCH  15  20
ENDBRANCH   3  15
TORSDOF 4
ENDMDL
MODEL 4
REMARK VINA RESULT:      -8.5      4.162      5.837
REMARK  Name = 
REMARK  4 active torsions:
REMARK  status: ('A' for Active; 'I' for Inactive)
REMARK    1  A    between atoms: C_2  and  C_18
REMARK    2  A    between atoms: N_3  and  C_4
REMARK    3  A    between atoms: C_4  and  C_5
REMARK    4  A    between atoms: C_8  and  C_9
REMARK                            x       y       z     vdW  Elec       q    Type
REMARK                         _______ _______ _______ _____ _____    ______ ____
ROOT
ATOM      1  O   UNL     1       3.417   6.201  17.491  0.00  0.00    +0.000 OA
ATOM      2  C   UNL     1       3.861   5.089  17.739  0.00  0.00    +0.000 C 
ATOM      3  N   UNL     1       5.203   4.785  17.716  0.00  0.00    +0.000 N 
ATOM      4  H   UNL     1       5.513   3.850  17.954  0.00  0.00    +0.000 HD
ENDROOT
BRANCH   2   5
ATOM      5  C   UNL     1       2.937   3.977  18.083  0.00  0.00    +0.000 A 
ATOM      6  C   UNL     1       2.530   3.116  17.076  0.00  0.00    +0.000 A 
ATOM      7  N   UNL     1       1.698   2.088  17.305  0.00  0.00    +0.000 NA
ATOM      8  N   UNL     1       1.261   1.857  18.576  0.00  0.00    +0.000 NA
ATOM      9  C   UNL     1       1.651   2.633  19.601  0.00  0.00    +0.000 A 
ATOM     10  C   UNL     1       1.205   2.331  20.884  0.00  0.00    +0.000 A 
ATOM     11  C   UNL     1       1.581   3.092  21.992  0.00  0.00    +0.000 A 
ATOM     12  C   UNL     1       2.404   4.191  21.820  0.00  0.00    +0.000 A 
ATOM     13  C   UNL     1       2.850   4.519  20.540  0.00  0.00    +0.000 A 
ATOM     14  C   UNL     1       2.502   3.738  19.407  0.00  0.00    +0.000 A 
ENDBRANCH   2   5
BRANCH   3  15
ATOM     15  C   UNL     1       6.284   5.722  17.355  0.00  0.00    +0.000 C 
ATOM     16  C   UNL     1       7.464   5.698  18.342  0.00  0.00    +0.000 C 
ATOM     17  C   UNL     1       8.172   7.040  18.156  0.00  0.00    +0.000 C 
ATOM     18  C   UNL     1       7.156   7.982  17.508  0.00  0.00    +0.000 C 
ATOM     19  C   UNL     1       5.849   7.197  17.415  0.00  0.00    +0.000 C 
BRANCH  15  20
ATOM     20  C   UNL     1       6.731   5.290  15.962  0.00  0.00    +0.000 A 
ATOM     21  N   UNL     1       7.734   5.854  15.275  0.00  0.00    +0.000 NA
ATOM     22  O   UNL     1       7.650   5.267  14.016  0.00  0.00    +0.000 OA
ATOM     23  C   UNL     1       6.585   4.414  14.048  0.00  0.00    +0.000 A 
ATOM     24  N   UNL     1       5.987   4.387  15.228  0.00  0.00    +0.000 NA
BRANCH  23  25
ATOM     25  C   UNL     1       6.238   3.745  12.767  0.00  0.00    +0.000 C 
ATOM     26  F   UNL     1       4.937   3.921  12.413  0.00  0.00    +0.000 F 
ATOM     27  F   UNL     1       6.988   4.195  11.726  0.00  0.00    +0.000 F 
ATOM     28  F   UNL     1       6.437   2.401  12.838  0.00  0.00    +0.000 F 
ENDBRANCH  23  25
ENDBRANCH  15  20
ENDBRANCH   3  15
TORSDOF 4
ENDMDL
MODEL 5
REMARK VINA RESULT:      -8.5      1.351      1.772
REMARK  Name = 
REMARK  4 active torsions:
REMARK  status: ('A' for Active; 'I' for Inactive)
REMARK    1  A    between atoms: C_2  and  C_18
REMARK    2  A    between atoms: N_3  and  C_4
REMARK    3  A    between atoms: C_4  and  C_5
REMARK    4  A    between atoms: C_8  and  C_9
REMARK                            x       y       z     vdW  Elec       q    Type
REMARK                         _______ _______ _______ _____ _____    ______ ____
ROOT
ATOM      1  O   UNL     1       2.134   6.923  17.710  0.00  0.00    +0.000 OA
ATOM      2  C   UNL     1       2.067   7.349  18.855  0.00  0.00    +0.000 C 
ATOM      3  N   UNL     1       2.278   6.570  19.968  0.00  0.00    +0.000 N 
ATOM      4  H   UNL     1       2.232   6.985  20.891  0.00  0.00    +0.000 HD
ENDROOT
BRANCH   2   5
ATOM      5  C   UNL     1       1.736   8.777  19.100  0.00  0.00    +0.000 A 
ATOM      6  C   UNL     1       2.105   9.718  18.151  0.00  0.00    +0.000 A 
ATOM      7  N   UNL     1       1.842  11.026  18.297  0.00  0.00    +0.000 NA
ATOM      8  N   UNL     1       1.159  11.446  19.400  0.00  0.00    +0.000 NA
ATOM      9  C   UNL     1       0.741  10.578  20.337  0.00  0.00    +0.000 A 
ATOM     10  C   UNL     1       0.016  11.056  21.424  0.00  0.00    +0.000 A 
ATOM     11  C   UNL     1      -0.455  10.206  22.426  0.00  0.00    +0.000 A 
ATOM     12  C   UNL     1      -0.183   8.851  22.356  0.00  0.00    +0.000 A 
ATOM     13  C   UNL     1       0.555   8.354  21.283  0.00  0.00    +0.000 A 
ATOM     14  C   UNL     1       1.014   9.200  20.240  0.00  0.00    +0.000 A 
ENDBRANCH   2   5
BRANCH   3  15
ATOM     15  C   UNL     1       2.570   5.124  19.954  0.00  0.00    +0.000 C 
ATOM     16  C   UNL     1       1.477   4.288  19.264  0.00  0.00    +0.000 C 
ATOM     17  C   UNL     1       1.646   2.872  19.814  0.00  0.00    +0.000 C 
ATOM     18  C   UNL     1       2.420   3.003  21.127  0.00  0.00    +0.000 C 
ATOM     19  C   UNL     1       2.606   4.502  21.362  0.00  0.00    +0.000 C 
BRANCH  15  20
ATOM     20  C   UNL     1       3.899   4.997  19.215  0.00  0.00    +0.000 A 
ATOM     21  N   UNL     1       4.154   4.096  18.255  0.00  0.00    +0.000 NA
ATOM     22  O   UNL     1       5.519   4.237  18.018  0.00  0.00    +0.000 OA
ATOM     23  C   UNL     1       5.972   5.197  18.876  0.00  0.00    +0.000 A 
ATOM     24  N   UNL     1       5.011   5.702  19.632  0.00  0.00    +0.000 NA
BRANCH  23  25
ATOM     25  C   UNL     1       7.437   5.445  18.872  0.00  0.00    +0.000 C 
ATOM     26  F   UNL     1       7.975   5.460  20.121  0.00  0.00    +0.000 F 
ATOM     27  F   UNL     1       8.121   4.505  18.166  0.00  0.00    +0.000 F 
ATOM     28  F   UNL     1       7.737   6.647  18.311  0.00  0.00    +0.000 F 
ENDBRANCH  23  25
ENDBRANCH  15  20
ENDBRANCH   3  15
TORSDOF 4
ENDMDL
MODEL 6
REMARK VINA RESULT:      -8.4      1.237      1.485
REMARK  Name = 
REMARK  4 active torsions:
REMARK  status: ('A' for Active; 'I' for Inactive)
REMARK    1  A    between atoms: C_2  and  C_18
REMARK    2  A    between atoms: N_3  and  C_4
REMARK    3  A    between atoms: C_4  and  C_5
REMARK    4  A    between atoms: C_8  and  C_9
REMARK                            x       y       z     vdW  Elec       q    Type
REMARK                         _______ _______ _______ _____ _____    ______ ____
ROOT
ATOM      1  O   UNL     1       1.909   6.768  17.685  0.00  0.00    +0.000 OA
ATOM      2  C   UNL     1       2.034   7.244  18.805  0.00  0.00    +0.000 C 
ATOM      3  N   UNL     1       2.408   6.507  19.905  0.00  0.00    +0.000 N 
ATOM      4  H   UNL     1       2.518   6.962  20.804  0.00  0.00    +0.000 HD
ENDROOT
BRANCH   2   5
ATOM      5  C   UNL     1       1.771   8.688  19.035  0.00  0.00    +0.000 A 
ATOM      6  C   UNL     1       2.169   9.598  18.068  0.00  0.00    +0.000 A 
ATOM      7  N   UNL     1       1.966  10.918  18.199  0.00  0.00    +0.000 NA
ATOM      8  N   UNL     1       1.318  11.384  19.305  0.00  0.00    +0.000 NA
ATOM      9  C   UNL     1       0.876  10.549  20.260  0.00  0.00    +0.000 A 
ATOM     10  C   UNL     1       0.188  11.073  21.349  0.00  0.00    +0.000 A 
ATOM     11  C   UNL     1      -0.307  10.259  22.370  0.00  0.00    +0.000 A 
ATOM     12  C   UNL     1      -0.096   8.892  22.316  0.00  0.00    +0.000 A 
ATOM     13  C   UNL     1       0.603   8.348  21.239  0.00  0.00    +0.000 A 
ATOM     14  C   UNL     1       1.085   9.158  20.179  0.00  0.00    +0.000 A 
ENDBRANCH   2   5
BRANCH   3  15
ATOM     15  C   UNL     1       2.670   5.055  19.911  0.00  0.00    +0.000 C 
ATOM     16  C   UNL     1       1.612   4.243  19.143  0.00  0.00    +0.000 C 
ATOM     17  C   UNL     1       1.710   2.823  19.702  0.00  0.00    +0.000 C 
ATOM     18  C   UNL     1       2.391   2.939  21.067  0.00  0.00    +0.000 C 
ATOM     19  C   UNL     1       2.590   4.433  21.317  0.00  0.00    +0.000 C 
BRANCH  15  20
ATOM     20  C   UNL     1       4.046   4.900  19.269  0.00  0.00    +0.000 A 
ATOM     21  N   UNL     1       5.192   5.337  19.809  0.00  0.00    +0.000 NA
ATOM     22  O   UNL     1       6.132   5.143  18.801  0.00  0.00    +0.000 OA
ATOM     23  C   UNL     1       5.462   4.626  17.730  0.00  0.00    +0.000 A 
ATOM     24  N   UNL     1       4.173   4.451  17.969  0.00  0.00    +0.000 NA
BRANCH  23  25
ATOM     25  C   UNL     1       6.256   4.432  16.489  0.00  0.00    +0.000 C 
ATOM     26  F   UNL     1       6.144   5.474  15.621  0.00  0.00    +0.000 F 
ATOM     27  F   UNL     1       7.583   4.276  16.739  0.00  0.00    +0.000 F 
ATOM     28  F   UNL     1       5.855   3.323  15.810  0.00  0.00    +0.000 F 
ENDBRANCH  23  25
ENDBRANCH  15  20
ENDBRANCH   3  15
TORSDOF 4
ENDMDL
MODEL 7
REMARK VINA RESULT:      -8.4      1.041      1.344
REMARK  Name = 
REMARK  4 active torsions:
REMARK  status: ('A' for Active; 'I' for Inactive)
REMARK    1  A    between atoms: C_2  and  C_18
REMARK    2  A    between atoms: N_3  and  C_4
REMARK    3  A    between atoms: C_4  and  C_5
REMARK    4  A    between atoms: C_8  and  C_9
REMARK                            x       y       z     vdW  Elec       q    Type
REMARK                         _______ _______ _______ _____ _____    ______ ____
ROOT
ATOM      1  O   UNL     1       1.812   6.550  20.923  0.00  0.00    +0.000 OA
ATOM      2  C   UNL     1       1.869   7.084  19.823  0.00  0.00    +0.000 C 
ATOM      3  N   UNL     1       2.239   6.420  18.676  0.00  0.00    +0.000 N 
ATOM      4  H   UNL     1       2.245   6.910  17.790  0.00  0.00    +0.000 HD
ENDROOT
BRANCH   2   5
ATOM      5  C   UNL     1       1.535   8.524  19.676  0.00  0.00    +0.000 A 
ATOM      6  C   UNL     1       1.860   9.164  18.490  0.00  0.00    +0.000 A 
ATOM      7  N   UNL     1       1.591  10.462  18.278  0.00  0.00    +0.000 NA
ATOM      8  N   UNL     1       0.947  11.173  19.247  0.00  0.00    +0.000 NA
ATOM      9  C   UNL     1       0.573  10.600  20.403  0.00  0.00    +0.000 A 
ATOM     10  C   UNL     1      -0.115  11.361  21.342  0.00  0.00    +0.000 A 
ATOM     11  C   UNL     1      -0.541  10.824  22.558  0.00  0.00    +0.000 A 
ATOM     12  C   UNL     1      -0.259   9.502  22.857  0.00  0.00    +0.000 A 
ATOM     13  C   UNL     1       0.442   8.725  21.935  0.00  0.00    +0.000 A 
ATOM     14  C   UNL     1       0.854   9.248  20.681  0.00  0.00    +0.000 A 
ENDBRANCH   2   5
BRANCH   3  15
ATOM     15  C   UNL     1       2.655   5.006  18.605  0.00  0.00    +0.000 C 
ATOM     16  C   UNL     1       1.818   4.176  17.615  0.00  0.00    +0.000 C 
ATOM     17  C   UNL     1       1.987   2.724  18.065  0.00  0.00    +0.000 C 
ATOM     18  C   UNL     1       2.440   2.771  19.525  0.00  0.00    +0.000 C 
ATOM     19  C   UNL     1       2.435   4.245  19.925  0.00  0.00    +0.000 C 
BRANCH  15  20
ATOM     20  C   UNL     1       4.119   5.047  18.178  0.00  0.00    +0.000 A 
ATOM     21  N   UNL     1       4.620   4.409  17.110  0.00  0.00    +0.000 NA
ATOM     22  O   UNL     1       5.995   4.584  17.231  0.00  0.00    +0.000 OA
ATOM     23  C   UNL     1       6.205   5.294  18.378  0.00  0.00    +0.000 A 
ATOM     24  N   UNL     1       5.080   5.609  18.996  0.00  0.00    +0.000 NA
BRANCH  23  25
ATOM     25  C   UNL     1       7.622   5.511  18.767  0.00  0.00    +0.000 C 
ATOM     26  F   UNL     1       8.128   6.681  18.291  0.00  0.00    +0.000 F 
ATOM     27  F   UNL     1       7.794   5.535  20.116  0.00  0.00    +0.000 F 
ATOM     28  F   UNL     1       8.427   4.523  18.290  0.00  0.00    +0.000 F 
ENDBRANCH  23  25
ENDBRANCH  15  20
ENDBRANCH   3  15
TORSDOF 4
ENDMDL
MODEL 8
REMARK VINA RESULT:      -8.4      1.031      1.365
REMARK  Name = 
REMARK  4 active torsions:
REMARK  status: ('A' for Active; 'I' for Inactive)
REMARK    1  A    between atoms: C_2  and  C_18
REMARK    2  A    between atoms: N_3  and  C_4
REMARK    3  A    between atoms: C_4  and  C_5
REMARK    4  A    between atoms: C_8  and  C_9
REMARK                            x       y       z     vdW  Elec       q    Type
REMARK                         _______ _______ _______ _____ _____    ______ ____
ROOT
ATOM      1  O   UNL     1       1.490   6.454  20.961  0.00  0.00    +0.000 OA
ATOM      2  C   UNL     1       1.792   6.952  19.885  0.00  0.00    +0.000 C 
ATOM      3  N   UNL     1       2.351   6.239  18.850  0.00  0.00    +0.000 N 
ATOM      4  H   UNL     1       2.558   6.702  17.973  0.00  0.00    +0.000 HD
ENDROOT
BRANCH   2   5
ATOM      5  C   UNL     1       1.567   8.401  19.645  0.00  0.00    +0.000 A 
ATOM      6  C   UNL     1       1.980   8.947  18.440  0.00  0.00    +0.000 A 
ATOM      7  N   UNL     1       1.811  10.246  18.147  0.00  0.00    +0.000 NA
ATOM      8  N   UNL     1       1.183  11.054  19.047  0.00  0.00    +0.000 NA
ATOM      9  C   UNL     1       0.726  10.576  20.217  0.00  0.00    +0.000 A 
ATOM     10  C   UNL     1       0.059  11.435  21.084  0.00  0.00    +0.000 A 
ATOM     11  C   UNL     1      -0.448  10.999  22.309  0.00  0.00    +0.000 A 
ATOM     12  C   UNL     1      -0.272   9.681  22.691  0.00  0.00    +0.000 A 
ATOM     13  C   UNL     1       0.406   8.806  21.843  0.00  0.00    +0.000 A 
ATOM     14  C   UNL     1       0.901   9.226  20.580  0.00  0.00    +0.000 A 
ENDBRANCH   2   5
BRANCH   3  15
ATOM     15  C   UNL     1       2.701   4.806  18.891  0.00  0.00    +0.000 C 
ATOM     16  C   UNL     1       1.516   3.880  18.566  0.00  0.00    +0.000 C 
ATOM     17  C   UNL     1       1.882   2.528  19.179  0.00  0.00    +0.000 C 
ATOM     18  C   UNL     1       2.943   2.806  20.245  0.00  0.00    +0.000 C 
ATOM     19  C   UNL     1       3.106   4.325  20.296  0.00  0.00    +0.000 C 
BRANCH  15  20
ATOM     20  C   UNL     1       3.817   4.644  17.862  0.00  0.00    +0.000 A 
ATOM     21  N   UNL     1       3.781   3.792  16.828  0.00  0.00    +0.000 NA
ATOM     22  O   UNL     1       5.064   3.862  16.293  0.00  0.00    +0.000 OA
ATOM     23  C   UNL     1       5.770   4.735  17.069  0.00  0.00    +0.000 A 
ATOM     24  N   UNL     1       5.044   5.249  18.048  0.00  0.00    +0.000 NA
BRANCH  23  25
ATOM     25  C   UNL     1       7.211   4.889  16.742  0.00  0.00    +0.000 C 
ATOM     26  F   UNL     1       7.625   6.184  16.774  0.00  0.00    +0.000 F 
ATOM     27  F   UNL     1       8.014   4.203  17.597  0.00  0.00    +0.000 F 
ATOM     28  F   UNL     1       7.490   4.428  15.492  0.00  0.00    +0.000 F 
ENDBRANCH  23  25
ENDBRANCH  15  20
ENDBRANCH   3  15
TORSDOF 4
ENDMDL
MODEL 9
REMARK VINA RESULT:      -8.3      1.007      1.340
REMARK  Name = 
REMARK  4 active torsions:
REMARK  status: ('A' for Active; 'I' for Inactive)
REMARK    1  A    between atoms: C_2  and  C_18
REMARK    2  A    between atoms: N_3  and  C_4
REMARK    3  A    between atoms: C_4  and  C_5
REMARK    4  A    between atoms: C_8  and  C_9
REMARK                            x       y       z     vdW  Elec       q    Type
REMARK                         _______ _______ _______ _____ _____    ______ ____
ROOT
ATOM      1  O   UNL     1       1.669   6.842  21.007  0.00  0.00    +0.000 OA
ATOM      2  C   UNL     1       1.790   7.122  19.822  0.00  0.00    +0.000 C 
ATOM      3  N   UNL     1       2.023   6.185  18.842  0.00  0.00    +0.000 N 
ATOM      4  H   UNL     1       2.091   6.475  17.873  0.00  0.00    +0.000 HD
ENDROOT
BRANCH   2   5
ATOM      5  C   UNL     1       1.694   8.536  19.377  0.00  0.00    +0.000 A 
ATOM      6  C   UNL     1       2.262   8.891  18.163  0.00  0.00    +0.000 A 
ATOM      7  N   UNL     1       2.216  10.147  17.691  0.00  0.00    +0.000 NA
ATOM      8  N   UNL     1       1.562  11.104  18.409  0.00  0.00    +0.000 NA
ATOM      9  C   UNL     1       0.959  10.813  19.574  0.00  0.00    +0.000 A 
ATOM     10  C   UNL     1       0.273  11.818  20.248  0.00  0.00    +0.000 A 
ATOM     11  C   UNL     1      -0.382  11.580  21.457  0.00  0.00    +0.000 A 
ATOM     12  C   UNL     1      -0.339  10.317  22.021  0.00  0.00    +0.000 A 
ATOM     13  C   UNL     1       0.355   9.299  21.368  0.00  0.00    +0.000 A 
ATOM     14  C   UNL     1       1.000   9.517  20.123  0.00  0.00    +0.000 A 
ENDBRANCH   2   5
BRANCH   3  15
ATOM     15  C   UNL     1       2.200   4.738  19.068  0.00  0.00    +0.000 C 
ATOM     16  C   UNL     1       1.481   3.867  18.023  0.00  0.00    +0.000 C 
ATOM     17  C   UNL     1       1.298   2.505  18.693  0.00  0.00    +0.000 C 
ATOM     18  C   UNL     1       1.410   2.742  20.200  0.00  0.00    +0.000 C 
ATOM     19  C   UNL     1       1.564   4.251  20.382  0.00  0.00    +0.000 C 
BRANCH  15  20
ATOM     20  C   UNL     1       3.709   4.513  19.019  0.00  0.00    +0.000 A 
ATOM     21  N   UNL     1       4.339   3.455  19.547  0.00  0.00    +0.000 NA
ATOM     22  O   UNL     1       5.688   3.773  19.424  0.00  0.00    +0.000 OA
ATOM     23  C   UNL     1       5.753   5.010  18.851  0.00  0.00    +0.000 A 
ATOM     24  N   UNL     1       4.559   5.508  18.576  0.00  0.00    +0.000 NA
BRANCH  23  25
ATOM     25  C   UNL     1       7.108   5.602  18.715  0.00  0.00    +0.000 C 
ATOM     26  F   UNL     1       7.687   5.880  19.914  0.00  0.00    +0.000 F 
ATOM     27  F   UNL     1       7.968   4.787  18.048  0.00  0.00    +0.000 F 
ATOM     28  F   UNL     1       7.072   6.775  18.027  0.00  0.00    +0.000 F 
ENDBRANCH  23  25
ENDBRANCH  15  20
ENDBRANCH   3  15
TORSDOF 4
ENDMDL
