MODEL 1
REMARK VINA RESULT:      -8.9      0.000      0.000
REMARK  Name = 
REMARK  5 active torsions:
REMARK  status: ('A' for Active; 'I' for Inactive)
REMARK    1  A    between atoms: C_1  and  C_2
REMARK    2  A    between atoms: C_4  and  N_5
REMARK    3  A    between atoms: C_8  and  N_9
REMARK    4  A    between atoms: C_10  and  C_12
REMARK    5  A    between atoms: C_26  and  C_27
REMARK                            x       y       z     vdW  Elec       q    Type
REMARK                         _______ _______ _______ _____ _____    ______ ____
ROOT
ATOM      1  N   UNL     1       4.045   6.079  18.815  0.00  0.00    +0.000 N 
ATOM      2  C   UNL     1       2.912   6.100  19.581  0.00  0.00    +0.000 C 
ATOM      3  O   UNL     1       2.483   5.157  20.236  0.00  0.00    +0.000 OA
ATOM      4  H   UNL     1       4.364   6.949  18.411  0.00  0.00    +0.000 HD
ENDROOT
BRANCH   2   5
ATOM      5  C   UNL     1       2.225   7.407  19.641  0.00  0.00    +0.000 A 
ATOM      6  C   UNL     1       2.038   8.192  18.496  0.00  0.00    +0.000 A 
ATOM      7  C   UNL     1       1.310   9.382  18.584  0.00  0.00    +0.000 A 
ATOM      8  C   UNL     1       0.772   9.765  19.814  0.00  0.00    +0.000 A 
ATOM      9  C   UNL     1       1.025   9.009  20.963  0.00  0.00    +0.000 A 
ATOM     10  C   UNL     1       1.749   7.828  20.882  0.00  0.00    +0.000 A 
ATOM     11  O   UNL     1       0.618   9.391  22.211  0.00  0.00    +0.000 OA
ATOM     12  C   UNL     1      -0.570  10.166  22.180  0.00  0.00    +0.000 C 
ATOM     13  C   UNL     1      -0.757  11.165  21.038  0.00  0.00    +0.000 C 
ATOM     14  O   UNL     1      -1.546  12.107  21.089  0.00  0.00    +0.000 OA
ATOM     15  N   UNL     1      -0.049  10.889  19.898  0.00  0.00    +0.000 N 
ATOM     16  H   UNL     1      -0.230  11.475  19.094  0.00  0.00    +0.000 HD
ENDBRANCH   2   5
BRANCH   1  20
ATOM     17  N   UNL     1       5.913   4.627  16.092  0.00  0.00    +0.000 N 
ATOM     18  C   UNL     1       6.417   5.738  16.901  0.00  0.00    +0.000 C 
ATOM     19  C   UNL     1       6.365   5.295  18.357  0.00  0.00    +0.000 C 
ATOM     20  C   UNL     1       4.930   4.920  18.759  0.00  0.00    +0.000 C 
ATOM     21  C   UNL     1       4.351   3.875  17.794  0.00  0.00    +0.000 C 
ATOM     22  C   UNL     1       4.507   4.304  16.329  0.00  0.00    +0.000 C 
BRANCH  17  26
ATOM     23  C   UNL     1       5.648   2.580  11.650  0.00  0.00    +0.000 C 
ATOM     24  C   UNL     1       6.258   3.536  12.628  0.00  0.00    +0.000 A 
ATOM     25  C   UNL     1       5.792   3.603  13.921  0.00  0.00    +0.000 A 
ATOM     26  C   UNL     1       6.396   4.493  14.792  0.00  0.00    +0.000 A 
ATOM     27  N   UNL     1       7.392   5.291  14.369  0.00  0.00    +0.000 NA
ATOM     28  C   UNL     1       7.782   5.175  13.084  0.00  0.00    +0.000 A 
ATOM     29  C   UNL     1       8.887   6.067  12.612  0.00  0.00    +0.000 C 
ATOM     30  N   UNL     1       7.258   4.319  12.189  0.00  0.00    +0.000 NA
ENDBRANCH  17  26
ENDBRANCH   1  20
TORSDOF 3
ENDMDL
MODEL 2
REMARK VINA RESULT:      -8.9      1.189      1.679
REMARK  Name = 
REMARK  5 active torsions:
REMARK  status: ('A' for Active; 'I' for Inactive)
REMARK    1  A    between atoms: C_1  and  C_2
REMARK    2  A    between atoms: C_4  and  N_5
REMARK    3  A    between atoms: C_8  and  N_9
REMARK    4  A    between atoms: C_10  and  C_12
REMARK    5  A    between atoms: C_26  and  C_27
REMARK                            x       y       z     vdW  Elec       q    Type
REMARK                         _______ _______ _______ _____ _____    ______ ____
ROOT
ATOM      1  N   UNL     1       4.082   5.752  19.018  0.00  0.00    +0.000 N 
ATOM      2  C   UNL     1       2.960   5.671  19.794  0.00  0.00    +0.000 C 
ATOM      3  O   UNL     1       2.599   4.678  20.416  0.00  0.00    +0.000 OA
ATOM      4  H   UNL     1       4.341   6.656  18.646  0.00  0.00    +0.000 HD
ENDROOT
BRANCH   2   5
ATOM      5  C   UNL     1       2.191   6.927  19.913  0.00  0.00    +0.000 A 
ATOM      6  C   UNL     1       1.392   7.197  21.033  0.00  0.00    +0.000 A 
ATOM      7  C   UNL     1       0.749   8.432  21.141  0.00  0.00    +0.000 A 
ATOM      8  C   UNL     1       0.918   9.383  20.134  0.00  0.00    +0.000 A 
ATOM      9  C   UNL     1       1.661   9.076  18.989  0.00  0.00    +0.000 A 
ATOM     10  C   UNL     1       2.301   7.851  18.874  0.00  0.00    +0.000 A 
ATOM     11  O   UNL     1       1.772   9.925  17.923  0.00  0.00    +0.000 OA
ATOM     12  C   UNL     1       1.683  11.289  18.305  0.00  0.00    +0.000 C 
ATOM     13  C   UNL     1       0.702  11.671  19.414  0.00  0.00    +0.000 C 
ATOM     14  O   UNL     1       0.293  12.817  19.585  0.00  0.00    +0.000 OA
ATOM     15  N   UNL     1       0.375  10.659  20.279  0.00  0.00    +0.000 N 
ATOM     16  H   UNL     1      -0.191  10.907  21.079  0.00  0.00    +0.000 HD
ENDBRANCH   2   5
BRANCH   1  20
ATOM     17  N   UNL     1       5.947   4.481  16.204  0.00  0.00    +0.000 N 
ATOM     18  C   UNL     1       6.405   5.607  17.020  0.00  0.00    +0.000 C 
ATOM     19  C   UNL     1       6.431   5.132  18.467  0.00  0.00    +0.000 C 
ATOM     20  C   UNL     1       5.039   4.656  18.908  0.00  0.00    +0.000 C 
ATOM     21  C   UNL     1       4.496   3.595  17.939  0.00  0.00    +0.000 C 
ATOM     22  C   UNL     1       4.574   4.061  16.479  0.00  0.00    +0.000 C 
BRANCH  17  26
ATOM     23  C   UNL     1       5.532   2.661  11.675  0.00  0.00    +0.000 C 
ATOM     24  C   UNL     1       6.183   3.559  12.682  0.00  0.00    +0.000 A 
ATOM     25  C   UNL     1       5.752   3.568  13.989  0.00  0.00    +0.000 A 
ATOM     26  C   UNL     1       6.393   4.406  14.886  0.00  0.00    +0.000 A 
ATOM     27  N   UNL     1       7.389   5.210  14.475  0.00  0.00    +0.000 NA
ATOM     28  C   UNL     1       7.743   5.152  13.176  0.00  0.00    +0.000 A 
ATOM     29  C   UNL     1       8.849   6.051  12.718  0.00  0.00    +0.000 C 
ATOM     30  N   UNL     1       7.182   4.349  12.255  0.00  0.00    +0.000 NA
ENDBRANCH  17  26
ENDBRANCH   1  20
TORSDOF 3
ENDMDL
MODEL 3
REMARK VINA RESULT:      -8.2      1.314      2.307
REMARK  Name = 
REMARK  5 active torsions:
REMARK  status: ('A' for Active; 'I' for Inactive)
REMARK    1  A    between atoms: C_1  and  C_2
REMARK    2  A    between atoms: C_4  and  N_5
REMARK    3  A    between atoms: C_8  and  N_9
REMARK    4  A    between atoms: C_10  and  C_12
REMARK    5  A    between atoms: C_26  and  C_27
REMARK                            x       y       z     vdW  Elec       q    Type
REMARK                         _______ _______ _______ _____ _____    ______ ____
ROOT
ATOM      1  N   UNL     1       3.876   5.593  18.906  0.00  0.00    +0.000 N 
ATOM      2  C   UNL     1       2.811   5.568  19.763  0.00  0.00    +0.000 C 
ATOM      3  O   UNL     1       2.455   4.598  20.421  0.00  0.00    +0.000 OA
ATOM      4  H   UNL     1       4.146   6.480  18.504  0.00  0.00    +0.000 HD
ENDROOT
BRANCH   2   5
ATOM      5  C   UNL     1       2.108   6.858  19.921  0.00  0.00    +0.000 A 
ATOM      6  C   UNL     1       1.351   7.147  21.064  0.00  0.00    +0.000 A 
ATOM      7  C   UNL     1       0.772   8.411  21.209  0.00  0.00    +0.000 A 
ATOM      8  C   UNL     1       0.963   9.369  20.213  0.00  0.00    +0.000 A 
ATOM      9  C   UNL     1       1.661   9.046  19.045  0.00  0.00    +0.000 A 
ATOM     10  C   UNL     1       2.237   7.793  18.894  0.00  0.00    +0.000 A 
ATOM     11  O   UNL     1       1.788   9.907  17.990  0.00  0.00    +0.000 OA
ATOM     12  C   UNL     1       1.775  11.266  18.395  0.00  0.00    +0.000 C 
ATOM     13  C   UNL     1       0.841  11.677  19.535  0.00  0.00    +0.000 C 
ATOM     14  O   UNL     1       0.493  12.838  19.735  0.00  0.00    +0.000 OA
ATOM     15  N   UNL     1       0.486  10.667  20.392  0.00  0.00    +0.000 N 
ATOM     16  H   UNL     1      -0.047  10.929  21.210  0.00  0.00    +0.000 HD
ENDBRANCH   2   5
BRANCH   1  20
ATOM     17  N   UNL     1       5.698   4.382  16.038  0.00  0.00    +0.000 N 
ATOM     18  C   UNL     1       6.208   5.434  16.919  0.00  0.00    +0.000 C 
ATOM     19  C   UNL     1       6.195   4.879  18.337  0.00  0.00    +0.000 C 
ATOM     20  C   UNL     1       4.774   4.454  18.740  0.00  0.00    +0.000 C 
ATOM     21  C   UNL     1       4.185   3.480  17.710  0.00  0.00    +0.000 C 
ATOM     22  C   UNL     1       4.302   4.022  16.280  0.00  0.00    +0.000 C 
BRANCH  17  26
ATOM     23  C   UNL     1       8.784   5.961  12.577  0.00  0.00    +0.000 C 
ATOM     24  C   UNL     1       7.662   5.087  13.045  0.00  0.00    +0.000 A 
ATOM     25  C   UNL     1       7.201   5.176  14.338  0.00  0.00    +0.000 A 
ATOM     26  C   UNL     1       6.153   4.357  14.720  0.00  0.00    +0.000 A 
ATOM     27  N   UNL     1       5.624   3.477  13.852  0.00  0.00    +0.000 NA
ATOM     28  C   UNL     1       6.140   3.441  12.608  0.00  0.00    +0.000 A 
ATOM     29  C   UNL     1       5.554   2.458  11.643  0.00  0.00    +0.000 C 
ATOM     30  N   UNL     1       7.140   4.220  12.160  0.00  0.00    +0.000 NA
ENDBRANCH  17  26
ENDBRANCH   1  20
TORSDOF 3
ENDMDL
MODEL 4
REMARK VINA RESULT:      -8.2      0.585      1.593
REMARK  Name = 
REMARK  5 active torsions:
REMARK  status: ('A' for Active; 'I' for Inactive)
REMARK    1  A    between atoms: C_1  and  C_2
REMARK    2  A    between atoms: C_4  and  N_5
REMARK    3  A    between atoms: C_8  and  N_9
REMARK    4  A    between atoms: C_10  and  C_12
REMARK    5  A    between atoms: C_26  and  C_27
REMARK                            x       y       z     vdW  Elec       q    Type
REMARK                         _______ _______ _______ _____ _____    ______ ____
ROOT
ATOM      1  N   UNL     1       3.921   5.923  18.902  0.00  0.00    +0.000 N 
ATOM      2  C   UNL     1       2.819   5.949  19.709  0.00  0.00    +0.000 C 
ATOM      3  O   UNL     1       2.382   4.994  20.343  0.00  0.00    +0.000 OA
ATOM      4  H   UNL     1       4.255   6.797  18.521  0.00  0.00    +0.000 HD
ENDROOT
BRANCH   2   5
ATOM      5  C   UNL     1       2.178   7.273  19.848  0.00  0.00    +0.000 A 
ATOM      6  C   UNL     1       2.024   8.133  18.751  0.00  0.00    +0.000 A 
ATOM      7  C   UNL     1       1.338   9.340  18.911  0.00  0.00    +0.000 A 
ATOM      8  C   UNL     1       0.810   9.667  20.161  0.00  0.00    +0.000 A 
ATOM      9  C   UNL     1       1.032   8.834  21.262  0.00  0.00    +0.000 A 
ATOM     10  C   UNL     1       1.713   7.636  21.111  0.00  0.00    +0.000 A 
ATOM     11  O   UNL     1       0.634   9.155  22.531  0.00  0.00    +0.000 OA
ATOM     12  C   UNL     1      -0.526   9.972  22.544  0.00  0.00    +0.000 C 
ATOM     13  C   UNL     1      -0.673  11.045  21.465  0.00  0.00    +0.000 C 
ATOM     14  O   UNL     1      -1.428  12.009  21.572  0.00  0.00    +0.000 OA
ATOM     15  N   UNL     1       0.030  10.813  20.311  0.00  0.00    +0.000 N 
ATOM     16  H   UNL     1      -0.127  11.452  19.544  0.00  0.00    +0.000 HD
ENDBRANCH   2   5
BRANCH   1  20
ATOM     17  N   UNL     1       5.699   4.564  16.072  0.00  0.00    +0.000 N 
ATOM     18  C   UNL     1       6.253   5.610  16.934  0.00  0.00    +0.000 C 
ATOM     19  C   UNL     1       6.206   5.087  18.363  0.00  0.00    +0.000 C 
ATOM     20  C   UNL     1       4.764   4.739  18.767  0.00  0.00    +0.000 C 
ATOM     21  C   UNL     1       4.135   3.771  17.754  0.00  0.00    +0.000 C 
ATOM     22  C   UNL     1       4.286   4.276  16.313  0.00  0.00    +0.000 C 
BRANCH  17  26
ATOM     23  C   UNL     1       8.831   5.972  12.579  0.00  0.00    +0.000 C 
ATOM     24  C   UNL     1       7.689   5.136  13.069  0.00  0.00    +0.000 A 
ATOM     25  C   UNL     1       7.224   5.275  14.356  0.00  0.00    +0.000 A 
ATOM     26  C   UNL     1       6.159   4.489  14.758  0.00  0.00    +0.000 A 
ATOM     27  N   UNL     1       5.617   3.593  13.916  0.00  0.00    +0.000 NA
ATOM     28  C   UNL     1       6.137   3.507  12.676  0.00  0.00    +0.000 A 
ATOM     29  C   UNL     1       5.537   2.505  11.739  0.00  0.00    +0.000 C 
ATOM     30  N   UNL     1       7.155   4.252  12.209  0.00  0.00    +0.000 NA
ENDBRANCH  17  26
ENDBRANCH   1  20
TORSDOF 3
ENDMDL
MODEL 5
REMARK VINA RESULT:      -8.1      4.120     10.901
REMARK  Name = 
REMARK  5 active torsions:
REMARK  status: ('A' for Active; 'I' for Inactive)
REMARK    1  A    between atoms: C_1  and  C_2
REMARK    2  A    between atoms: C_4  and  N_5
REMARK    3  A    between atoms: C_8  and  N_9
REMARK    4  A    between atoms: C_10  and  C_12
REMARK    5  A    between atoms: C_26  and  C_27
REMARK                            x       y       z     vdW  Elec       q    Type
REMARK                         _______ _______ _______ _____ _____    ______ ____
ROOT
ATOM      1  N   UNL     1       1.222   9.963  19.517  0.00  0.00    +0.000 N 
ATOM      2  C   UNL     1       1.827   9.232  18.534  0.00  0.00    +0.000 C 
ATOM      3  O   UNL     1       2.165   9.664  17.437  0.00  0.00    +0.000 OA
ATOM      4  H   UNL     1       1.094   9.532  20.422  0.00  0.00    +0.000 HD
ENDROOT
BRANCH   2   5
ATOM      5  C   UNL     1       2.137   7.834  18.897  0.00  0.00    +0.000 A 
ATOM      6  C   UNL     1       1.775   7.300  20.142  0.00  0.00    +0.000 A 
ATOM      7  C   UNL     1       2.013   5.950  20.411  0.00  0.00    +0.000 A 
ATOM      8  C   UNL     1       2.603   5.151  19.430  0.00  0.00    +0.000 A 
ATOM      9  C   UNL     1       3.024   5.711  18.220  0.00  0.00    +0.000 A 
ATOM     10  C   UNL     1       2.792   7.050  17.947  0.00  0.00    +0.000 A 
ATOM     11  O   UNL     1       3.704   5.003  17.268  0.00  0.00    +0.000 OA
ATOM     12  C   UNL     1       3.369   3.624  17.275  0.00  0.00    +0.000 C 
ATOM     13  C   UNL     1       3.123   2.942  18.622  0.00  0.00    +0.000 C 
ATOM     14  O   UNL     1       3.170   1.724  18.779  0.00  0.00    +0.000 OA
ATOM     15  N   UNL     1       2.747   3.780  19.641  0.00  0.00    +0.000 N 
ATOM     16  H   UNL     1       2.480   3.346  20.514  0.00  0.00    +0.000 HD
ENDBRANCH   2   5
BRANCH   1  20
ATOM     17  N   UNL     1      -1.523  12.029  20.619  0.00  0.00    +0.000 N 
ATOM     18  C   UNL     1      -0.392  11.679  21.481  0.00  0.00    +0.000 C 
ATOM     19  C   UNL     1       0.876  12.100  20.752  0.00  0.00    +0.000 C 
ATOM     20  C   UNL     1       0.978  11.397  19.389  0.00  0.00    +0.000 C 
ATOM     21  C   UNL     1      -0.294  11.630  18.562  0.00  0.00    +0.000 C 
ATOM     22  C   UNL     1      -1.563  11.293  19.356  0.00  0.00    +0.000 C 
BRANCH  17  26
ATOM     23  C   UNL     1      -6.304  13.039  20.289  0.00  0.00    +0.000 C 
ATOM     24  C   UNL     1      -5.060  12.789  21.085  0.00  0.00    +0.000 A 
ATOM     25  C   UNL     1      -3.864  12.545  20.450  0.00  0.00    +0.000 A 
ATOM     26  C   UNL     1      -2.739  12.332  21.228  0.00  0.00    +0.000 A 
ATOM     27  N   UNL     1      -2.828  12.334  22.569  0.00  0.00    +0.000 NA
ATOM     28  C   UNL     1      -4.038  12.566  23.115  0.00  0.00    +0.000 A 
ATOM     29  C   UNL     1      -4.138  12.563  24.608  0.00  0.00    +0.000 C 
ATOM     30  N   UNL     1      -5.167  12.803  22.424  0.00  0.00    +0.000 NA
ENDBRANCH  17  26
ENDBRANCH   1  20
TORSDOF 3
ENDMDL
MODEL 6
REMARK VINA RESULT:      -8.1      4.042     10.970
REMARK  Name = 
REMARK  5 active torsions:
REMARK  status: ('A' for Active; 'I' for Inactive)
REMARK    1  A    between atoms: C_1  and  C_2
REMARK    2  A    between atoms: C_4  and  N_5
REMARK    3  A    between atoms: C_8  and  N_9
REMARK    4  A    between atoms: C_10  and  C_12
REMARK    5  A    between atoms: C_26  and  C_27
REMARK                            x       y       z     vdW  Elec       q    Type
REMARK                         _______ _______ _______ _____ _____    ______ ____
ROOT
ATOM      1  N   UNL     1       1.232   9.947  19.514  0.00  0.00    +0.000 N 
ATOM      2  C   UNL     1       1.844   9.232  18.522  0.00  0.00    +0.000 C 
ATOM      3  O   UNL     1       2.164   9.675  17.424  0.00  0.00    +0.000 OA
ATOM      4  H   UNL     1       1.120   9.509  20.418  0.00  0.00    +0.000 HD
ENDROOT
BRANCH   2   5
ATOM      5  C   UNL     1       2.185   7.839  18.876  0.00  0.00    +0.000 A 
ATOM      6  C   UNL     1       1.818   7.283  20.109  0.00  0.00    +0.000 A 
ATOM      7  C   UNL     1       2.088   5.937  20.369  0.00  0.00    +0.000 A 
ATOM      8  C   UNL     1       2.714   5.164  19.390  0.00  0.00    +0.000 A 
ATOM      9  C   UNL     1       3.138   5.747  18.191  0.00  0.00    +0.000 A 
ATOM     10  C   UNL     1       2.874   7.083  17.928  0.00  0.00    +0.000 A 
ATOM     11  O   UNL     1       3.850   5.067  17.243  0.00  0.00    +0.000 OA
ATOM     12  C   UNL     1       3.552   3.680  17.232  0.00  0.00    +0.000 C 
ATOM     13  C   UNL     1       3.304   2.978  18.568  0.00  0.00    +0.000 C 
ATOM     14  O   UNL     1       3.381   1.760  18.713  0.00  0.00    +0.000 OA
ATOM     15  N   UNL     1       2.891   3.795  19.589  0.00  0.00    +0.000 N 
ATOM     16  H   UNL     1       2.623   3.345  20.453  0.00  0.00    +0.000 HD
ENDBRANCH   2   5
BRANCH   1  20
ATOM     17  N   UNL     1      -1.536  11.954  20.663  0.00  0.00    +0.000 N 
ATOM     18  C   UNL     1      -0.387  11.624  21.507  0.00  0.00    +0.000 C 
ATOM     19  C   UNL     1       0.863  12.072  20.761  0.00  0.00    +0.000 C 
ATOM     20  C   UNL     1       0.958  11.375  19.395  0.00  0.00    +0.000 C 
ATOM     21  C   UNL     1      -0.331  11.587  18.587  0.00  0.00    +0.000 C 
ATOM     22  C   UNL     1      -1.580  11.221  19.398  0.00  0.00    +0.000 C 
BRANCH  17  26
ATOM     23  C   UNL     1      -4.148  12.628  24.752  0.00  0.00    +0.000 C 
ATOM     24  C   UNL     1      -4.017  12.594  23.260  0.00  0.00    +0.000 A 
ATOM     25  C   UNL     1      -2.818  12.262  22.673  0.00  0.00    +0.000 A 
ATOM     26  C   UNL     1      -2.749  12.231  21.291  0.00  0.00    +0.000 A 
ATOM     27  N   UNL     1      -3.824  12.548  20.548  0.00  0.00    +0.000 NA
ATOM     28  C   UNL     1      -4.958  12.876  21.198  0.00  0.00    +0.000 A 
ATOM     29  C   UNL     1      -6.153  13.234  20.371  0.00  0.00    +0.000 C 
ATOM     30  N   UNL     1      -5.105  12.905  22.535  0.00  0.00    +0.000 NA
ENDBRANCH  17  26
ENDBRANCH   1  20
TORSDOF 3
ENDMDL
MODEL 7
REMARK VINA RESULT:      -7.7      4.129     10.957
REMARK  Name = 
REMARK  5 active torsions:
REMARK  status: ('A' for Active; 'I' for Inactive)
REMARK    1  A    between atoms: C_1  and  C_2
REMARK    2  A    between atoms: C_4  and  N_5
REMARK    3  A    between atoms: C_8  and  N_9
REMARK    4  A    between atoms: C_10  and  C_12
REMARK    5  A    between atoms: C_26  and  C_27
REMARK                            x       y       z     vdW  Elec       q    Type
REMARK                         _______ _______ _______ _____ _____    ______ ____
ROOT
ATOM      1  N   UNL     1       1.032   9.760  19.015  0.00  0.00    +0.000 N 
ATOM      2  C   UNL     1       1.885   9.034  18.232  0.00  0.00    +0.000 C 
ATOM      3  O   UNL     1       2.356   9.407  17.163  0.00  0.00    +0.000 OA
ATOM      4  H   UNL     1       0.799   9.399  19.930  0.00  0.00    +0.000 HD
ENDROOT
BRANCH   2   5
ATOM      5  C   UNL     1       2.292   7.730  18.796  0.00  0.00    +0.000 A 
ATOM      6  C   UNL     1       1.760   7.253  20.001  0.00  0.00    +0.000 A 
ATOM      7  C   UNL     1       2.110   5.978  20.455  0.00  0.00    +0.000 A 
ATOM      8  C   UNL     1       2.982   5.197  19.695  0.00  0.00    +0.000 A 
ATOM      9  C   UNL     1       3.561   5.712  18.531  0.00  0.00    +0.000 A 
ATOM     10  C   UNL     1       3.218   6.977  18.076  0.00  0.00    +0.000 A 
ATOM     11  O   UNL     1       4.502   5.037  17.805  0.00  0.00    +0.000 OA
ATOM     12  C   UNL     1       4.352   3.629  17.899  0.00  0.00    +0.000 C 
ATOM     13  C   UNL     1       3.931   3.031  19.242  0.00  0.00    +0.000 C 
ATOM     14  O   UNL     1       4.101   1.849  19.536  0.00  0.00    +0.000 OA
ATOM     15  N   UNL     1       3.255   3.884  20.075  0.00  0.00    +0.000 N 
ATOM     16  H   UNL     1       2.877   3.488  20.925  0.00  0.00    +0.000 HD
ENDBRANCH   2   5
BRANCH   1  20
ATOM     17  N   UNL     1      -0.565  12.327  20.983  0.00  0.00    +0.000 N 
ATOM     18  C   UNL     1       0.880  12.094  21.000  0.00  0.00    +0.000 C 
ATOM     19  C   UNL     1       1.365  12.169  19.559  0.00  0.00    +0.000 C 
ATOM     20  C   UNL     1       0.643  11.129  18.688  0.00  0.00    +0.000 C 
ATOM     21  C   UNL     1      -0.880  11.276  18.816  0.00  0.00    +0.000 C 
ATOM     22  C   UNL     1      -1.330  11.296  20.283  0.00  0.00    +0.000 C 
BRANCH  17  26
ATOM     23  C   UNL     1      -0.708  15.913  24.317  0.00  0.00    +0.000 C 
ATOM     24  C   UNL     1      -1.247  14.656  23.707  0.00  0.00    +0.000 A 
ATOM     25  C   UNL     1      -0.617  14.078  22.629  0.00  0.00    +0.000 A 
ATOM     26  C   UNL     1      -1.146  12.909  22.109  0.00  0.00    +0.000 A 
ATOM     27  N   UNL     1      -2.265  12.377  22.629  0.00  0.00    +0.000 NA
ATOM     28  C   UNL     1      -2.831  13.011  23.675  0.00  0.00    +0.000 A 
ATOM     29  C   UNL     1      -4.080  12.420  24.251  0.00  0.00    +0.000 C 
ATOM     30  N   UNL     1      -2.362  14.134  24.247  0.00  0.00    +0.000 NA
ENDBRANCH  17  26
ENDBRANCH   1  20
TORSDOF 3
ENDMDL
MODEL 8
REMARK VINA RESULT:      -7.7      4.259     11.057
REMARK  Name = 
REMARK  5 active torsions:
REMARK  status: ('A' for Active; 'I' for Inactive)
REMARK    1  A    between atoms: C_1  and  C_2
REMARK    2  A    between atoms: C_4  and  N_5
REMARK    3  A    between atoms: C_8  and  N_9
REMARK    4  A    between atoms: C_10  and  C_12
REMARK    5  A    between atoms: C_26  and  C_27
REMARK                            x       y       z     vdW  Elec       q    Type
REMARK                         _______ _______ _______ _____ _____    ______ ____
ROOT
ATOM      1  N   UNL     1       0.731  10.168  19.145  0.00  0.00    +0.000 N 
ATOM      2  C   UNL     1       1.639   9.488  18.382  0.00  0.00    +0.000 C 
ATOM      3  O   UNL     1       2.183   9.922  17.373  0.00  0.00    +0.000 OA
ATOM      4  H   UNL     1       0.436   9.754  20.018  0.00  0.00    +0.000 HD
ENDROOT
BRANCH   2   5
ATOM      5  C   UNL     1       2.008   8.152  18.894  0.00  0.00    +0.000 A 
ATOM      6  C   UNL     1       1.676   7.746  20.194  0.00  0.00    +0.000 A 
ATOM      7  C   UNL     1       1.972   6.445  20.609  0.00  0.00    +0.000 A 
ATOM      8  C   UNL     1       2.588   5.566  19.717  0.00  0.00    +0.000 A 
ATOM      9  C   UNL     1       2.977   6.004  18.447  0.00  0.00    +0.000 A 
ATOM     10  C   UNL     1       2.688   7.295  18.030  0.00  0.00    +0.000 A 
ATOM     11  O   UNL     1       3.679   5.222  17.572  0.00  0.00    +0.000 OA
ATOM     12  C   UNL     1       3.401   3.841  17.736  0.00  0.00    +0.000 C 
ATOM     13  C   UNL     1       3.192   3.304  19.153  0.00  0.00    +0.000 C 
ATOM     14  O   UNL     1       3.290   2.113  19.444  0.00  0.00    +0.000 OA
ATOM     15  N   UNL     1       2.789   4.233  20.077  0.00  0.00    +0.000 N 
ATOM     16  H   UNL     1       2.546   3.889  20.995  0.00  0.00    +0.000 HD
ENDBRANCH   2   5
BRANCH   1  20
ATOM     17  N   UNL     1      -0.938  12.640  21.174  0.00  0.00    +0.000 N 
ATOM     18  C   UNL     1       0.504  12.396  21.241  0.00  0.00    +0.000 C 
ATOM     19  C   UNL     1       1.051  12.543  19.828  0.00  0.00    +0.000 C 
ATOM     20  C   UNL     1       0.363  11.554  18.873  0.00  0.00    +0.000 C 
ATOM     21  C   UNL     1      -1.163  11.705  18.943  0.00  0.00    +0.000 C 
ATOM     22  C   UNL     1      -1.677  11.652  20.388  0.00  0.00    +0.000 C 
BRANCH  17  26
ATOM     23  C   UNL     1      -4.497  12.454  24.534  0.00  0.00    +0.000 C 
ATOM     24  C   UNL     1      -3.261  13.069  23.954  0.00  0.00    +0.000 A 
ATOM     25  C   UNL     1      -2.699  12.556  22.807  0.00  0.00    +0.000 A 
ATOM     26  C   UNL     1      -1.565  13.167  22.302  0.00  0.00    +0.000 A 
ATOM     27  N   UNL     1      -1.014  14.215  22.938  0.00  0.00    +0.000 NA
ATOM     28  C   UNL     1      -1.616  14.649  24.063  0.00  0.00    +0.000 A 
ATOM     29  C   UNL     1      -0.999  15.813  24.775  0.00  0.00    +0.000 C 
ATOM     30  N   UNL     1      -2.730  14.121  24.599  0.00  0.00    +0.000 NA
ENDBRANCH  17  26
ENDBRANCH   1  20
TORSDOF 3
ENDMDL
MODEL 9
REMARK VINA RESULT:      -7.6      4.290     11.166
REMARK  Name = 
REMARK  5 active torsions:
REMARK  status: ('A' for Active; 'I' for Inactive)
REMARK    1  A    between atoms: C_1  and  C_2
REMARK    2  A    between atoms: C_4  and  N_5
REMARK    3  A    between atoms: C_8  and  N_9
REMARK    4  A    between atoms: C_10  and  C_12
REMARK    5  A    between atoms: C_26  and  C_27
REMARK                            x       y       z     vdW  Elec       q    Type
REMARK                         _______ _______ _______ _____ _____    ______ ____
ROOT
ATOM      1  N   UNL     1       0.523  10.463  19.244  0.00  0.00    +0.000 N 
ATOM      2  C   UNL     1       1.482   9.831  18.503  0.00  0.00    +0.000 C 
ATOM      3  O   UNL     1       2.069  10.317  17.543  0.00  0.00    +0.000 OA
ATOM      4  H   UNL     1       0.190  10.007  20.083  0.00  0.00    +0.000 HD
ENDROOT
BRANCH   2   5
ATOM      5  C   UNL     1       1.850   8.482  18.979  0.00  0.00    +0.000 A 
ATOM      6  C   UNL     1       1.572   8.063  20.287  0.00  0.00    +0.000 A 
ATOM      7  C   UNL     1       1.862   6.751  20.669  0.00  0.00    +0.000 A 
ATOM      8  C   UNL     1       2.420   5.874  19.737  0.00  0.00    +0.000 A 
ATOM      9  C   UNL     1       2.757   6.324  18.457  0.00  0.00    +0.000 A 
ATOM     10  C   UNL     1       2.473   7.625  18.071  0.00  0.00    +0.000 A 
ATOM     11  O   UNL     1       3.403   5.543  17.539  0.00  0.00    +0.000 OA
ATOM     12  C   UNL     1       3.108   4.164  17.697  0.00  0.00    +0.000 C 
ATOM     13  C   UNL     1       2.956   3.610  19.114  0.00  0.00    +0.000 C 
ATOM     14  O   UNL     1       3.046   2.414  19.383  0.00  0.00    +0.000 OA
ATOM     15  N   UNL     1       2.614   4.533  20.068  0.00  0.00    +0.000 N 
ATOM     16  H   UNL     1       2.408   4.180  20.992  0.00  0.00    +0.000 HD
ENDBRANCH   2   5
BRANCH   1  20
ATOM     17  N   UNL     1      -2.508  12.271  19.994  0.00  0.00    +0.000 N 
ATOM     18  C   UNL     1      -1.426  12.091  20.964  0.00  0.00    +0.000 C 
ATOM     19  C   UNL     1      -0.150  12.609  20.316  0.00  0.00    +0.000 C 
ATOM     20  C   UNL     1       0.142  11.853  19.011  0.00  0.00    +0.000 C 
ATOM     21  C   UNL     1      -1.070  11.904  18.071  0.00  0.00    +0.000 C 
ATOM     22  C   UNL     1      -2.361  11.471  18.779  0.00  0.00    +0.000 C 
BRANCH  17  26
ATOM     23  C   UNL     1      -5.526  13.373  23.691  0.00  0.00    +0.000 C 
ATOM     24  C   UNL     1      -5.267  13.036  22.255  0.00  0.00    +0.000 A 
ATOM     25  C   UNL     1      -3.986  12.791  21.817  0.00  0.00    +0.000 A 
ATOM     26  C   UNL     1      -3.797  12.471  20.483  0.00  0.00    +0.000 A 
ATOM     27  N   UNL     1      -4.842  12.433  19.638  0.00  0.00    +0.000 NA
ATOM     28  C   UNL     1      -6.063  12.699  20.141  0.00  0.00    +0.000 A 
ATOM     29  C   UNL     1      -7.225  12.662  19.198  0.00  0.00    +0.000 C 
ATOM     30  N   UNL     1      -6.324  12.995  21.426  0.00  0.00    +0.000 NA
ENDBRANCH  17  26
ENDBRANCH   1  20
TORSDOF 3
ENDMDL
