MODEL 1
REMARK VINA RESULT:      -9.5      0.000      0.000
REMARK  Name = 
REMARK  4 active torsions:
REMARK  status: ('A' for Active; 'I' for Inactive)
REMARK    1  A    between atoms: C_2  and  C_3
REMARK    2  A    between atoms: C_3  and  C_4
REMARK    3  A    between atoms: N_14  and  C_15
REMARK    4  A    between atoms: C_15  and  C_16
REMARK                            x       y       z     vdW  Elec       q    Type
REMARK                         _______ _______ _______ _____ _____    ______ ____
ROOT
ATOM      1  O   UNL     1       7.919   9.704  17.738  0.00  0.00    +0.000 OA
ATOM      2  C   UNL     1       8.535   9.150  18.647  0.00  0.00    +0.000 C 
ATOM      3  N   UNL     1       8.550   7.784  18.834  0.00  0.00    +0.000 N 
ATOM      4  H   UNL     1       9.175   7.358  19.510  0.00  0.00    +0.000 HD
ENDROOT
BRANCH   2   5
ATOM      5  C   UNL     1       9.309   9.919  19.689  0.00  0.00    +0.000 C 
BRANCH   5   6
ATOM      6  C   UNL     1       9.882  11.225  19.182  0.00  0.00    +0.000 A 
ATOM      7  C   UNL     1      10.413  11.242  17.879  0.00  0.00    +0.000 A 
ATOM      8  C   UNL     1      11.008  12.388  17.367  0.00  0.00    +0.000 A 
ATOM      9  C   UNL     1      11.092  13.532  18.153  0.00  0.00    +0.000 A 
ATOM     10  C   UNL     1      10.558  13.558  19.449  0.00  0.00    +0.000 A 
ATOM     11  C   UNL     1      10.662  14.724  20.225  0.00  0.00    +0.000 A 
ATOM     12  C   UNL     1      10.129  14.782  21.510  0.00  0.00    +0.000 A 
ATOM     13  C   UNL     1       9.468  13.678  22.030  0.00  0.00    +0.000 A 
ATOM     14  C   UNL     1       9.360  12.508  21.272  0.00  0.00    +0.000 A 
ATOM     15  C   UNL     1       9.918  12.406  19.976  0.00  0.00    +0.000 A 
ENDBRANCH   5   6
ENDBRANCH   2   5
BRANCH   3  16
ATOM     16  C   UNL     1       7.846   6.894  17.936  0.00  0.00    +0.000 C 
BRANCH  16  17
ATOM     17  C   UNL     1       7.326   5.653  18.681  0.00  0.00    +0.000 C 
ATOM     18  O   UNL     1       7.316   5.600  19.917  0.00  0.00    +0.000 OA
ATOM     19  N   UNL     1       6.805   4.603  17.968  0.00  0.00    +0.000 N 
ATOM     20  C   UNL     1       6.839   4.532  16.602  0.00  0.00    +0.000 A 
ATOM     21  N   UNL     1       7.507   5.319  15.797  0.00  0.00    +0.000 NA
ATOM     22  C   UNL     1       7.245   4.889  14.531  0.00  0.00    +0.000 A 
ATOM     23  C   UNL     1       7.730   5.378  13.314  0.00  0.00    +0.000 A 
ATOM     24  C   UNL     1       7.278   4.779  12.133  0.00  0.00    +0.000 A 
ATOM     25  C   UNL     1       6.360   3.729  12.174  0.00  0.00    +0.000 A 
ATOM     26  C   UNL     1       5.873   3.222  13.388  0.00  0.00    +0.000 A 
ATOM     27  C   UNL     1       6.356   3.823  14.551  0.00  0.00    +0.000 A 
ATOM     28  N   UNL     1       6.144   3.586  15.890  0.00  0.00    +0.000 N 
ATOM     29  H   UNL     1       6.398   3.860  18.519  0.00  0.00    +0.000 HD
ATOM     30  H   UNL     1       5.541   2.877  16.274  0.00  0.00    +0.000 HD
ENDBRANCH  16  17
ENDBRANCH   3  16
TORSDOF 4
ENDMDL
MODEL 2
REMARK VINA RESULT:      -9.2      2.862      4.570
REMARK  Name = 
REMARK  4 active torsions:
REMARK  status: ('A' for Active; 'I' for Inactive)
REMARK    1  A    between atoms: C_2  and  C_3
REMARK    2  A    between atoms: C_3  and  C_4
REMARK    3  A    between atoms: N_14  and  C_15
REMARK    4  A    between atoms: C_15  and  C_16
REMARK                            x       y       z     vdW  Elec       q    Type
REMARK                         _______ _______ _______ _____ _____    ______ ____
ROOT
ATOM      1  O   UNL     1       8.637   7.869  18.961  0.00  0.00    +0.000 OA
ATOM      2  C   UNL     1       8.229   8.589  18.053  0.00  0.00    +0.000 C 
ATOM      3  N   UNL     1       7.101   8.313  17.309  0.00  0.00    +0.000 N 
ATOM      4  H   UNL     1       6.723   8.996  16.662  0.00  0.00    +0.000 HD
ENDROOT
BRANCH   2   5
ATOM      5  C   UNL     1       8.954   9.841  17.622  0.00  0.00    +0.000 C 
BRANCH   5   6
ATOM      6  C   UNL     1       9.485  10.665  18.774  0.00  0.00    +0.000 A 
ATOM      7  C   UNL     1       8.962  10.409  20.055  0.00  0.00    +0.000 A 
ATOM      8  C   UNL     1       9.359  11.165  21.151  0.00  0.00    +0.000 A 
ATOM      9  C   UNL     1      10.277  12.196  20.983  0.00  0.00    +0.000 A 
ATOM     10  C   UNL     1      10.833  12.468  19.725  0.00  0.00    +0.000 A 
ATOM     11  C   UNL     1      11.753  13.519  19.580  0.00  0.00    +0.000 A 
ATOM     12  C   UNL     1      12.331  13.804  18.346  0.00  0.00    +0.000 A 
ATOM     13  C   UNL     1      12.009  13.027  17.242  0.00  0.00    +0.000 A 
ATOM     14  C   UNL     1      11.091  11.980  17.368  0.00  0.00    +0.000 A 
ATOM     15  C   UNL     1      10.463  11.685  18.601  0.00  0.00    +0.000 A 
ENDBRANCH   5   6
ENDBRANCH   2   5
BRANCH   3  16
ATOM     16  C   UNL     1       6.293   7.142  17.577  0.00  0.00    +0.000 C 
BRANCH  16  17
ATOM     17  C   UNL     1       6.736   5.954  16.707  0.00  0.00    +0.000 C 
ATOM     18  O   UNL     1       7.580   6.088  15.812  0.00  0.00    +0.000 OA
ATOM     19  N   UNL     1       6.234   4.702  16.962  0.00  0.00    +0.000 N 
ATOM     20  C   UNL     1       5.244   4.462  17.876  0.00  0.00    +0.000 A 
ATOM     21  N   UNL     1       4.515   5.360  18.490  0.00  0.00    +0.000 NA
ATOM     22  C   UNL     1       3.667   4.675  19.307  0.00  0.00    +0.000 A 
ATOM     23  C   UNL     1       2.673   5.167  20.161  0.00  0.00    +0.000 A 
ATOM     24  C   UNL     1       1.951   4.251  20.932  0.00  0.00    +0.000 A 
ATOM     25  C   UNL     1       2.226   2.884  20.857  0.00  0.00    +0.000 A 
ATOM     26  C   UNL     1       3.212   2.376  19.999  0.00  0.00    +0.000 A 
ATOM     27  C   UNL     1       3.903   3.310  19.225  0.00  0.00    +0.000 A 
ATOM     28  N   UNL     1       4.888   3.196  18.270  0.00  0.00    +0.000 N 
ATOM     29  H   UNL     1       6.633   3.951  16.416  0.00  0.00    +0.000 HD
ATOM     30  H   UNL     1       5.309   2.336  17.958  0.00  0.00    +0.000 HD
ENDBRANCH  16  17
ENDBRANCH   3  16
TORSDOF 4
ENDMDL
MODEL 3
REMARK VINA RESULT:      -9.0      8.783     11.193
REMARK  Name = 
REMARK  4 active torsions:
REMARK  status: ('A' for Active; 'I' for Inactive)
REMARK    1  A    between atoms: C_2  and  C_3
REMARK    2  A    between atoms: C_3  and  C_4
REMARK    3  A    between atoms: N_14  and  C_15
REMARK    4  A    between atoms: C_15  and  C_16
REMARK                            x       y       z     vdW  Elec       q    Type
REMARK                         _______ _______ _______ _____ _____    ______ ____
ROOT
ATOM      1  O   UNL     1       1.237   9.141  18.660  0.00  0.00    +0.000 OA
ATOM      2  C   UNL     1       1.310   8.991  19.878  0.00  0.00    +0.000 C 
ATOM      3  N   UNL     1       1.063   9.999  20.786  0.00  0.00    +0.000 N 
ATOM      4  H   UNL     1       1.003   9.802  21.779  0.00  0.00    +0.000 HD
ENDROOT
BRANCH   2   5
ATOM      5  C   UNL     1       1.727   7.686  20.511  0.00  0.00    +0.000 C 
BRANCH   5   6
ATOM      6  C   UNL     1       2.343   6.706  19.537  0.00  0.00    +0.000 A 
ATOM      7  C   UNL     1       3.227   7.216  18.569  0.00  0.00    +0.000 A 
ATOM      8  C   UNL     1       3.785   6.386  17.605  0.00  0.00    +0.000 A 
ATOM      9  C   UNL     1       3.460   5.033  17.586  0.00  0.00    +0.000 A 
ATOM     10  C   UNL     1       2.598   4.486  18.546  0.00  0.00    +0.000 A 
ATOM     11  C   UNL     1       2.280   3.118  18.502  0.00  0.00    +0.000 A 
ATOM     12  C   UNL     1       1.437   2.545  19.450  0.00  0.00    +0.000 A 
ATOM     13  C   UNL     1       0.913   3.331  20.467  0.00  0.00    +0.000 A 
ATOM     14  C   UNL     1       1.216   4.695  20.523  0.00  0.00    +0.000 A 
ATOM     15  C   UNL     1       2.044   5.314  19.557  0.00  0.00    +0.000 A 
ENDBRANCH   5   6
ENDBRANCH   2   5
BRANCH   3  16
ATOM     16  C   UNL     1       0.668  11.322  20.351  0.00  0.00    +0.000 C 
BRANCH  16  17
ATOM     17  C   UNL     1      -0.400  11.915  21.285  0.00  0.00    +0.000 C 
ATOM     18  O   UNL     1      -0.124  12.272  22.437  0.00  0.00    +0.000 OA
ATOM     19  N   UNL     1      -1.676  12.112  20.819  0.00  0.00    +0.000 N 
ATOM     20  C   UNL     1      -2.100  11.684  19.590  0.00  0.00    +0.000 A 
ATOM     21  N   UNL     1      -1.453  10.890  18.775  0.00  0.00    +0.000 NA
ATOM     22  C   UNL     1      -2.242  10.740  17.675  0.00  0.00    +0.000 A 
ATOM     23  C   UNL     1      -2.019   9.975  16.524  0.00  0.00    +0.000 A 
ATOM     24  C   UNL     1      -2.978  10.014  15.507  0.00  0.00    +0.000 A 
ATOM     25  C   UNL     1      -4.121  10.805  15.637  0.00  0.00    +0.000 A 
ATOM     26  C   UNL     1      -4.363  11.568  16.788  0.00  0.00    +0.000 A 
ATOM     27  C   UNL     1      -3.401  11.494  17.796  0.00  0.00    +0.000 A 
ATOM     28  N   UNL     1      -3.306  12.056  19.049  0.00  0.00    +0.000 N 
ATOM     29  H   UNL     1      -2.304  12.588  21.450  0.00  0.00    +0.000 HD
ATOM     30  H   UNL     1      -3.980  12.675  19.470  0.00  0.00    +0.000 HD
ENDBRANCH  16  17
ENDBRANCH   3  16
TORSDOF 4
ENDMDL
MODEL 4
REMARK VINA RESULT:      -9.0      2.666      4.085
REMARK  Name = 
REMARK  4 active torsions:
REMARK  status: ('A' for Active; 'I' for Inactive)
REMARK    1  A    between atoms: C_2  and  C_3
REMARK    2  A    between atoms: C_3  and  C_4
REMARK    3  A    between atoms: N_14  and  C_15
REMARK    4  A    between atoms: C_15  and  C_16
REMARK                            x       y       z     vdW  Elec       q    Type
REMARK                         _______ _______ _______ _____ _____    ______ ____
ROOT
ATOM      1  O   UNL     1       7.385   9.852  17.514  0.00  0.00    +0.000 OA
ATOM      2  C   UNL     1       8.039   8.985  18.091  0.00  0.00    +0.000 C 
ATOM      3  N   UNL     1       7.706   7.647  18.079  0.00  0.00    +0.000 N 
ATOM      4  H   UNL     1       8.340   6.949  18.451  0.00  0.00    +0.000 HD
ENDROOT
BRANCH   2   5
ATOM      5  C   UNL     1       9.260   9.304  18.918  0.00  0.00    +0.000 C 
BRANCH   5   6
ATOM      6  C   UNL     1       9.656  10.764  18.881  0.00  0.00    +0.000 A 
ATOM      7  C   UNL     1      10.231  11.254  17.694  0.00  0.00    +0.000 A 
ATOM      8  C   UNL     1      10.673  12.568  17.606  0.00  0.00    +0.000 A 
ATOM      9  C   UNL     1      10.557  13.411  18.707  0.00  0.00    +0.000 A 
ATOM     10  C   UNL     1       9.974  12.962  19.901  0.00  0.00    +0.000 A 
ATOM     11  C   UNL     1       9.875  13.831  21.000  0.00  0.00    +0.000 A 
ATOM     12  C   UNL     1       9.289  13.416  22.193  0.00  0.00    +0.000 A 
ATOM     13  C   UNL     1       8.776  12.131  22.295  0.00  0.00    +0.000 A 
ATOM     14  C   UNL     1       8.870  11.253  21.211  0.00  0.00    +0.000 A 
ATOM     15  C   UNL     1       9.488  11.632  19.997  0.00  0.00    +0.000 A 
ENDBRANCH   5   6
ENDBRANCH   2   5
BRANCH   3  16
ATOM     16  C   UNL     1       6.553   7.165  17.348  0.00  0.00    +0.000 C 
BRANCH  16  17
ATOM     17  C   UNL     1       6.902   5.915  16.525  0.00  0.00    +0.000 C 
ATOM     18  O   UNL     1       7.716   5.961  15.593  0.00  0.00    +0.000 OA
ATOM     19  N   UNL     1       6.351   4.704  16.863  0.00  0.00    +0.000 N 
ATOM     20  C   UNL     1       5.389   4.561  17.825  0.00  0.00    +0.000 A 
ATOM     21  N   UNL     1       4.729   5.523  18.418  0.00  0.00    +0.000 NA
ATOM     22  C   UNL     1       3.883   4.924  19.302  0.00  0.00    +0.000 A 
ATOM     23  C   UNL     1       2.949   5.507  20.165  0.00  0.00    +0.000 A 
ATOM     24  C   UNL     1       2.214   4.668  21.010  0.00  0.00    +0.000 A 
ATOM     25  C   UNL     1       2.420   3.287  20.996  0.00  0.00    +0.000 A 
ATOM     26  C   UNL     1       3.345   2.688  20.129  0.00  0.00    +0.000 A 
ATOM     27  C   UNL     1       4.049   3.546  19.282  0.00  0.00    +0.000 A 
ATOM     28  N   UNL     1       4.988   3.335  18.298  0.00  0.00    +0.000 N 
ATOM     29  H   UNL     1       6.691   3.908  16.343  0.00  0.00    +0.000 HD
ATOM     30  H   UNL     1       5.355   2.440  18.016  0.00  0.00    +0.000 HD
ENDBRANCH  16  17
ENDBRANCH   3  16
TORSDOF 4
ENDMDL
MODEL 5
REMARK VINA RESULT:      -8.8      8.069     10.662
REMARK  Name = 
REMARK  4 active torsions:
REMARK  status: ('A' for Active; 'I' for Inactive)
REMARK    1  A    between atoms: C_2  and  C_3
REMARK    2  A    between atoms: C_3  and  C_4
REMARK    3  A    between atoms: N_14  and  C_15
REMARK    4  A    between atoms: C_15  and  C_16
REMARK                            x       y       z     vdW  Elec       q    Type
REMARK                         _______ _______ _______ _____ _____    ______ ____
ROOT
ATOM      1  O   UNL     1       1.774   8.000  17.868  0.00  0.00    +0.000 OA
ATOM      2  C   UNL     1       1.989   7.899  19.075  0.00  0.00    +0.000 C 
ATOM      3  N   UNL     1       1.739   8.908  19.980  0.00  0.00    +0.000 N 
ATOM      4  H   UNL     1       1.803   8.739  20.978  0.00  0.00    +0.000 HD
ENDROOT
BRANCH   2   5
ATOM      5  C   UNL     1       2.599   6.662  19.689  0.00  0.00    +0.000 C 
BRANCH   5   6
ATOM      6  C   UNL     1       2.714   5.498  18.729  0.00  0.00    +0.000 A 
ATOM      7  C   UNL     1       1.694   4.529  18.755  0.00  0.00    +0.000 A 
ATOM      8  C   UNL     1       1.762   3.402  17.945  0.00  0.00    +0.000 A 
ATOM      9  C   UNL     1       2.855   3.221  17.103  0.00  0.00    +0.000 A 
ATOM     10  C   UNL     1       3.880   4.174  17.038  0.00  0.00    +0.000 A 
ATOM     11  C   UNL     1       4.976   3.965  16.185  0.00  0.00    +0.000 A 
ATOM     12  C   UNL     1       6.002   4.901  16.090  0.00  0.00    +0.000 A 
ATOM     13  C   UNL     1       5.936   6.070  16.835  0.00  0.00    +0.000 A 
ATOM     14  C   UNL     1       4.854   6.292  17.692  0.00  0.00    +0.000 A 
ATOM     15  C   UNL     1       3.811   5.346  17.835  0.00  0.00    +0.000 A 
ENDBRANCH   5   6
ENDBRANCH   2   5
BRANCH   3  16
ATOM     16  C   UNL     1       1.169  10.170  19.560  0.00  0.00    +0.000 C 
BRANCH  16  17
ATOM     17  C   UNL     1       0.374  10.825  20.701  0.00  0.00    +0.000 C 
ATOM     18  O   UNL     1       0.874  11.002  21.819  0.00  0.00    +0.000 OA
ATOM     19  N   UNL     1      -0.900  11.281  20.466  0.00  0.00    +0.000 N 
ATOM     20  C   UNL     1      -1.568  11.068  19.291  0.00  0.00    +0.000 A 
ATOM     21  N   UNL     1      -1.201  10.272  18.318  0.00  0.00    +0.000 NA
ATOM     22  C   UNL     1      -2.156  10.378  17.352  0.00  0.00    +0.000 A 
ATOM     23  C   UNL     1      -2.244   9.718  16.121  0.00  0.00    +0.000 A 
ATOM     24  C   UNL     1      -3.318  10.028  15.280  0.00  0.00    +0.000 A 
ATOM     25  C   UNL     1      -4.268  10.978  15.660  0.00  0.00    +0.000 A 
ATOM     26  C   UNL     1      -4.198  11.639  16.895  0.00  0.00    +0.000 A 
ATOM     27  C   UNL     1      -3.129  11.295  17.723  0.00  0.00    +0.000 A 
ATOM     28  N   UNL     1      -2.753  11.692  18.986  0.00  0.00    +0.000 N 
ATOM     29  H   UNL     1      -1.333  11.782  21.229  0.00  0.00    +0.000 HD
ATOM     30  H   UNL     1      -3.235  12.364  19.561  0.00  0.00    +0.000 HD
ENDBRANCH  16  17
ENDBRANCH   3  16
TORSDOF 4
ENDMDL
MODEL 6
REMARK VINA RESULT:      -8.8      5.684      6.733
REMARK  Name = 
REMARK  4 active torsions:
REMARK  status: ('A' for Active; 'I' for Inactive)
REMARK    1  A    between atoms: C_2  and  C_3
REMARK    2  A    between atoms: C_3  and  C_4
REMARK    3  A    between atoms: N_14  and  C_15
REMARK    4  A    between atoms: C_15  and  C_16
REMARK                            x       y       z     vdW  Elec       q    Type
REMARK                         _______ _______ _______ _____ _____    ______ ____
ROOT
ATOM      1  O   UNL     1       2.540   4.496  18.458  0.00  0.00    +0.000 OA
ATOM      2  C   UNL     1       3.005   5.237  19.322  0.00  0.00    +0.000 C 
ATOM      3  N   UNL     1       4.350   5.319  19.612  0.00  0.00    +0.000 N 
ATOM      4  H   UNL     1       4.706   6.036  20.234  0.00  0.00    +0.000 HD
ENDROOT
BRANCH   2   5
ATOM      5  C   UNL     1       2.136   6.110  20.195  0.00  0.00    +0.000 C 
BRANCH   5   6
ATOM      6  C   UNL     1       1.849   7.472  19.601  0.00  0.00    +0.000 A 
ATOM      7  C   UNL     1       2.247   7.701  18.271  0.00  0.00    +0.000 A 
ATOM      8  C   UNL     1       2.070   8.944  17.678  0.00  0.00    +0.000 A 
ATOM      9  C   UNL     1       1.501   9.982  18.408  0.00  0.00    +0.000 A 
ATOM     10  C   UNL     1       1.075   9.786  19.729  0.00  0.00    +0.000 A 
ATOM     11  C   UNL     1       0.509  10.853  20.447  0.00  0.00    +0.000 A 
ATOM     12  C   UNL     1       0.066  10.683  21.756  0.00  0.00    +0.000 A 
ATOM     13  C   UNL     1       0.166   9.437  22.359  0.00  0.00    +0.000 A 
ATOM     14  C   UNL     1       0.731   8.366  21.659  0.00  0.00    +0.000 A 
ATOM     15  C   UNL     1       1.220   8.513  20.340  0.00  0.00    +0.000 A 
ENDBRANCH   5   6
ENDBRANCH   2   5
BRANCH   3  16
ATOM     16  C   UNL     1       5.326   4.537  18.882  0.00  0.00    +0.000 C 
BRANCH  16  17
ATOM     17  C   UNL     1       6.715   5.192  18.940  0.00  0.00    +0.000 C 
ATOM     18  O   UNL     1       7.196   5.595  20.007  0.00  0.00    +0.000 OA
ATOM     19  N   UNL     1       7.471   5.281  17.798  0.00  0.00    +0.000 N 
ATOM     20  C   UNL     1       7.004   4.934  16.560  0.00  0.00    +0.000 A 
ATOM     21  N   UNL     1       5.764   4.657  16.244  0.00  0.00    +0.000 NA
ATOM     22  C   UNL     1       5.762   4.362  14.914  0.00  0.00    +0.000 A 
ATOM     23  C   UNL     1       4.686   4.020  14.087  0.00  0.00    +0.000 A 
ATOM     24  C   UNL     1       4.951   3.726  12.745  0.00  0.00    +0.000 A 
ATOM     25  C   UNL     1       6.256   3.764  12.252  0.00  0.00    +0.000 A 
ATOM     26  C   UNL     1       7.342   4.115  13.067  0.00  0.00    +0.000 A 
ATOM     27  C   UNL     1       7.048   4.424  14.395  0.00  0.00    +0.000 A 
ATOM     28  N   UNL     1       7.819   4.834  15.459  0.00  0.00    +0.000 N 
ATOM     29  H   UNL     1       8.409   5.638  17.920  0.00  0.00    +0.000 HD
ATOM     30  H   UNL     1       8.816   4.980  15.442  0.00  0.00    +0.000 HD
ENDBRANCH  16  17
ENDBRANCH   3  16
TORSDOF 4
ENDMDL
MODEL 7
REMARK VINA RESULT:      -8.8      6.297     10.071
REMARK  Name = 
REMARK  4 active torsions:
REMARK  status: ('A' for Active; 'I' for Inactive)
REMARK    1  A    between atoms: C_2  and  C_3
REMARK    2  A    between atoms: C_3  and  C_4
REMARK    3  A    between atoms: N_14  and  C_15
REMARK    4  A    between atoms: C_15  and  C_16
REMARK                            x       y       z     vdW  Elec       q    Type
REMARK                         _______ _______ _______ _____ _____    ______ ____
ROOT
ATOM      1  O   UNL     1       1.574   4.824  19.569  0.00  0.00    +0.000 OA
ATOM      2  C   UNL     1       2.643   5.088  19.023  0.00  0.00    +0.000 C 
ATOM      3  N   UNL     1       3.040   6.370  18.704  0.00  0.00    +0.000 N 
ATOM      4  H   UNL     1       3.981   6.557  18.379  0.00  0.00    +0.000 HD
ENDROOT
BRANCH   2   5
ATOM      5  C   UNL     1       3.622   4.021  18.599  0.00  0.00    +0.000 C 
BRANCH   5   6
ATOM      6  C   UNL     1       5.011   4.548  18.310  0.00  0.00    +0.000 A 
ATOM      7  C   UNL     1       5.753   5.058  19.391  0.00  0.00    +0.000 A 
ATOM      8  C   UNL     1       7.011   5.612  19.193  0.00  0.00    +0.000 A 
ATOM      9  C   UNL     1       7.544   5.676  17.910  0.00  0.00    +0.000 A 
ATOM     10  C   UNL     1       6.841   5.161  16.811  0.00  0.00    +0.000 A 
ATOM     11  C   UNL     1       7.398   5.243  15.524  0.00  0.00    +0.000 A 
ATOM     12  C   UNL     1       6.729   4.729  14.417  0.00  0.00    +0.000 A 
ATOM     13  C   UNL     1       5.499   4.109  14.586  0.00  0.00    +0.000 A 
ATOM     14  C   UNL     1       4.929   4.023  15.860  0.00  0.00    +0.000 A 
ATOM     15  C   UNL     1       5.568   4.563  17.000  0.00  0.00    +0.000 A 
ENDBRANCH   5   6
ENDBRANCH   2   5
BRANCH   3  16
ATOM     16  C   UNL     1       2.213   7.514  19.024  0.00  0.00    +0.000 C 
BRANCH  16  17
ATOM     17  C   UNL     1       2.284   8.575  17.914  0.00  0.00    +0.000 C 
ATOM     18  O   UNL     1       2.927   8.381  16.875  0.00  0.00    +0.000 OA
ATOM     19  N   UNL     1       1.571   9.741  18.043  0.00  0.00    +0.000 N 
ATOM     20  C   UNL     1       0.891  10.082  19.181  0.00  0.00    +0.000 A 
ATOM     21  N   UNL     1       0.959   9.480  20.341  0.00  0.00    +0.000 NA
ATOM     22  C   UNL     1       0.116  10.150  21.175  0.00  0.00    +0.000 A 
ATOM     23  C   UNL     1      -0.158   9.919  22.527  0.00  0.00    +0.000 A 
ATOM     24  C   UNL     1      -1.101  10.736  23.160  0.00  0.00    +0.000 A 
ATOM     25  C   UNL     1      -1.755  11.747  22.454  0.00  0.00    +0.000 A 
ATOM     26  C   UNL     1      -1.483  11.996  21.101  0.00  0.00    +0.000 A 
ATOM     27  C   UNL     1      -0.523  11.181  20.500  0.00  0.00    +0.000 A 
ATOM     28  N   UNL     1       0.021  11.144  19.237  0.00  0.00    +0.000 N 
ATOM     29  H   UNL     1       1.586  10.355  17.241  0.00  0.00    +0.000 HD
ATOM     30  H   UNL     1      -0.219  11.756  18.473  0.00  0.00    +0.000 HD
ENDBRANCH  16  17
ENDBRANCH   3  16
TORSDOF 4
ENDMDL
MODEL 8
REMARK VINA RESULT:      -8.7      3.066      4.608
REMARK  Name = 
REMARK  4 active torsions:
REMARK  status: ('A' for Active; 'I' for Inactive)
REMARK    1  A    between atoms: C_2  and  C_3
REMARK    2  A    between atoms: C_3  and  C_4
REMARK    3  A    between atoms: N_14  and  C_15
REMARK    4  A    between atoms: C_15  and  C_16
REMARK                            x       y       z     vdW  Elec       q    Type
REMARK                         _______ _______ _______ _____ _____    ______ ____
ROOT
ATOM      1  O   UNL     1       8.560   7.939  18.882  0.00  0.00    +0.000 OA
ATOM      2  C   UNL     1       8.170   8.616  17.932  0.00  0.00    +0.000 C 
ATOM      3  N   UNL     1       7.067   8.296  17.170  0.00  0.00    +0.000 N 
ATOM      4  H   UNL     1       6.700   8.947  16.485  0.00  0.00    +0.000 HD
ENDROOT
BRANCH   2   5
ATOM      5  C   UNL     1       8.893   9.858  17.470  0.00  0.00    +0.000 C 
BRANCH   5   6
ATOM      6  C   UNL     1       9.104  10.883  18.563  0.00  0.00    +0.000 A 
ATOM      7  C   UNL     1       9.835  10.487  19.698  0.00  0.00    +0.000 A 
ATOM      8  C   UNL     1      10.018  11.355  20.766  0.00  0.00    +0.000 A 
ATOM      9  C   UNL     1       9.464  12.630  20.723  0.00  0.00    +0.000 A 
ATOM     10  C   UNL     1       8.745  13.066  19.601  0.00  0.00    +0.000 A 
ATOM     11  C   UNL     1       8.190  14.356  19.585  0.00  0.00    +0.000 A 
ATOM     12  C   UNL     1       7.483  14.820  18.479  0.00  0.00    +0.000 A 
ATOM     13  C   UNL     1       7.336  14.004  17.366  0.00  0.00    +0.000 A 
ATOM     14  C   UNL     1       7.879  12.716  17.368  0.00  0.00    +0.000 A 
ATOM     15  C   UNL     1       8.575  12.203  18.487  0.00  0.00    +0.000 A 
ENDBRANCH   5   6
ENDBRANCH   2   5
BRANCH   3  16
ATOM     16  C   UNL     1       6.264   7.127  17.464  0.00  0.00    +0.000 C 
BRANCH  16  17
ATOM     17  C   UNL     1       6.839   5.876  16.780  0.00  0.00    +0.000 C 
ATOM     18  O   UNL     1       7.697   5.961  15.893  0.00  0.00    +0.000 OA
ATOM     19  N   UNL     1       6.442   4.631  17.200  0.00  0.00    +0.000 N 
ATOM     20  C   UNL     1       5.447   4.431  18.119  0.00  0.00    +0.000 A 
ATOM     21  N   UNL     1       4.622   5.333  18.584  0.00  0.00    +0.000 NA
ATOM     22  C   UNL     1       3.811   4.694  19.473  0.00  0.00    +0.000 A 
ATOM     23  C   UNL     1       2.750   5.207  20.227  0.00  0.00    +0.000 A 
ATOM     24  C   UNL     1       2.086   4.344  21.106  0.00  0.00    +0.000 A 
ATOM     25  C   UNL     1       2.484   3.011  21.231  0.00  0.00    +0.000 A 
ATOM     26  C   UNL     1       3.539   2.482  20.474  0.00  0.00    +0.000 A 
ATOM     27  C   UNL     1       4.170   3.359  19.590  0.00  0.00    +0.000 A 
ATOM     28  N   UNL     1       5.192   3.204  18.681  0.00  0.00    +0.000 N 
ATOM     29  H   UNL     1       6.923   3.851  16.775  0.00  0.00    +0.000 HD
ATOM     30  H   UNL     1       5.698   2.351  18.503  0.00  0.00    +0.000 HD
ENDBRANCH  16  17
ENDBRANCH   3  16
TORSDOF 4
ENDMDL
MODEL 9
REMARK VINA RESULT:      -8.6      3.042      4.494
REMARK  Name = 
REMARK  4 active torsions:
REMARK  status: ('A' for Active; 'I' for Inactive)
REMARK    1  A    between atoms: C_2  and  C_3
REMARK    2  A    between atoms: C_3  and  C_4
REMARK    3  A    between atoms: N_14  and  C_15
REMARK    4  A    between atoms: C_15  and  C_16
REMARK                            x       y       z     vdW  Elec       q    Type
REMARK                         _______ _______ _______ _____ _____    ______ ____
ROOT
ATOM      1  O   UNL     1       7.086   9.125  17.248  0.00  0.00    +0.000 OA
ATOM      2  C   UNL     1       7.901   8.539  17.958  0.00  0.00    +0.000 C 
ATOM      3  N   UNL     1       7.818   7.198  18.267  0.00  0.00    +0.000 N 
ATOM      4  H   UNL     1       8.578   6.725  18.742  0.00  0.00    +0.000 HD
ENDROOT
BRANCH   2   5
ATOM      5  C   UNL     1       9.065   9.246  18.608  0.00  0.00    +0.000 C 
BRANCH   5   6
ATOM      6  C   UNL     1       9.101  10.734  18.341  0.00  0.00    +0.000 A 
ATOM      7  C   UNL     1       8.026  11.295  17.627  0.00  0.00    +0.000 A 
ATOM      8  C   UNL     1       8.019  12.644  17.294  0.00  0.00    +0.000 A 
ATOM      9  C   UNL     1       9.091  13.452  17.660  0.00  0.00    +0.000 A 
ATOM     10  C   UNL     1      10.170  12.932  18.387  0.00  0.00    +0.000 A 
ATOM     11  C   UNL     1      11.243  13.767  18.739  0.00  0.00    +0.000 A 
ATOM     12  C   UNL     1      12.322  13.281  19.472  0.00  0.00    +0.000 A 
ATOM     13  C   UNL     1      12.333  11.955  19.880  0.00  0.00    +0.000 A 
ATOM     14  C   UNL     1      11.274  11.109  19.534  0.00  0.00    +0.000 A 
ATOM     15  C   UNL     1      10.179  11.563  18.763  0.00  0.00    +0.000 A 
ENDBRANCH   5   6
ENDBRANCH   2   5
BRANCH   3  16
ATOM     16  C   UNL     1       6.752   6.370  17.741  0.00  0.00    +0.000 C 
BRANCH  16  17
ATOM     17  C   UNL     1       7.234   4.928  17.514  0.00  0.00    +0.000 C 
ATOM     18  O   UNL     1       8.275   4.686  16.891  0.00  0.00    +0.000 OA
ATOM     19  N   UNL     1       6.532   3.884  18.063  0.00  0.00    +0.000 N 
ATOM     20  C   UNL     1       5.333   4.041  18.703  0.00  0.00    +0.000 A 
ATOM     21  N   UNL     1       4.599   5.124  18.731  0.00  0.00    +0.000 NA
ATOM     22  C   UNL     1       3.504   4.829  19.485  0.00  0.00    +0.000 A 
ATOM     23  C   UNL     1       2.407   5.638  19.804  0.00  0.00    +0.000 A 
ATOM     24  C   UNL     1       1.413   5.107  20.634  0.00  0.00    +0.000 A 
ATOM     25  C   UNL     1       1.523   3.809  21.136  0.00  0.00    +0.000 A 
ATOM     26  C   UNL     1       2.612   2.985  20.817  0.00  0.00    +0.000 A 
ATOM     27  C   UNL     1       3.578   3.531  19.970  0.00  0.00    +0.000 A 
ATOM     28  N   UNL     1       4.737   3.033  19.420  0.00  0.00    +0.000 N 
ATOM     29  H   UNL     1       6.950   2.971  17.954  0.00  0.00    +0.000 HD
ATOM     30  H   UNL     1       5.108   2.107  19.566  0.00  0.00    +0.000 HD
ENDBRANCH  16  17
ENDBRANCH   3  16
TORSDOF 4
ENDMDL
