MODEL 1
REMARK VINA RESULT:      -9.0      0.000      0.000
REMARK  Name = 
REMARK  7 active torsions:
REMARK  status: ('A' for Active; 'I' for Inactive)
REMARK    1  A    between atoms: C_1  and  O_2
REMARK    2  A    between atoms: O_2  and  C_3
REMARK    3  A    between atoms: C_6  and  C_7
REMARK    4  A    between atoms: C_15  and  C_16
REMARK    5  A    between atoms: C_16  and  C_17
REMARK    6  A    between atoms: C_17  and  C_18
REMARK    7  A    between atoms: N_20  and  C_21
REMARK                            x       y       z     vdW  Elec       q    Type
REMARK                         _______ _______ _______ _____ _____    ______ ____
ROOT
ATOM      1  C   UNL     1       4.014   6.154  17.956  0.00  0.00    +0.000 A 
ATOM      2  N   UNL     1       3.711   5.201  16.962  0.00  0.00    +0.000 N 
ATOM      3  C   UNL     1       3.325   4.063  17.667  0.00  0.00    +0.000 A 
ATOM      4  C   UNL     1       2.417   3.054  17.367  0.00  0.00    +0.000 A 
ATOM      5  C   UNL     1       2.223   2.084  18.357  0.00  0.00    +0.000 A 
ATOM      6  C   UNL     1       2.962   2.096  19.544  0.00  0.00    +0.000 A 
ATOM      7  C   UNL     1       3.926   3.081  19.785  0.00  0.00    +0.000 A 
ATOM      8  C   UNL     1       4.052   4.121  18.855  0.00  0.00    +0.000 A 
ATOM      9  C   UNL     1       4.841   5.302  18.720  0.00  0.00    +0.000 A 
ATOM     10  H   UNL     1       3.281   5.450  16.087  0.00  0.00    +0.000 HD
ENDROOT
BRANCH   1  14
ATOM     11  C   UNL     1       1.378   8.936  19.831  0.00  0.00    +0.000 A 
ATOM     12  C   UNL     1       1.620   9.029  18.463  0.00  0.00    +0.000 A 
ATOM     13  C   UNL     1       2.326   8.016  17.797  0.00  0.00    +0.000 A 
ATOM     14  C   UNL     1       2.819   6.910  18.499  0.00  0.00    +0.000 A 
ATOM     15  C   UNL     1       2.423   6.751  19.840  0.00  0.00    +0.000 A 
ATOM     16  C   UNL     1       1.732   7.768  20.505  0.00  0.00    +0.000 A 
BRANCH  11  18
ATOM     17  C   UNL     1      -0.407  10.457  20.186  0.00  0.00    +0.000 C 
ATOM     18  O   UNL     1       0.835   9.915  20.620  0.00  0.00    +0.000 OA
ENDBRANCH  11  18
ENDBRANCH   1  14
BRANCH   9  19
ATOM     19  C   UNL     1       6.217   5.505  19.267  0.00  0.00    +0.000 C 
BRANCH  19  20
ATOM     20  C   UNL     1       7.089   6.118  18.153  0.00  0.00    +0.000 C 
BRANCH  20  21
ATOM     21  C   UNL     1       7.343   5.212  16.970  0.00  0.00    +0.000 C 
ATOM     22  O   UNL     1       8.020   4.193  17.081  0.00  0.00    +0.000 OA
ATOM     23  N   UNL     1       6.713   5.665  15.829  0.00  0.00    +0.000 N 
ATOM     24  H   UNL     1       6.309   6.592  15.870  0.00  0.00    +0.000 HD
BRANCH  23  25
ATOM     25  C   UNL     1       6.696   5.029  14.570  0.00  0.00    +0.000 A 
ATOM     26  C   UNL     1       5.762   4.063  14.199  0.00  0.00    +0.000 A 
ATOM     27  C   UNL     1       5.846   3.458  12.946  0.00  0.00    +0.000 A 
ATOM     28  C   UNL     1       6.864   3.847  12.091  0.00  0.00    +0.000 A 
ATOM     29  N   UNL     1       7.764   4.808  12.390  0.00  0.00    +0.000 NA
ATOM     30  C   UNL     1       7.652   5.377  13.615  0.00  0.00    +0.000 A 
ENDBRANCH  23  25
ENDBRANCH  20  21
ENDBRANCH  19  20
ENDBRANCH   9  19
TORSDOF 6
ENDMDL
MODEL 2
REMARK VINA RESULT:      -8.7      2.505      7.695
REMARK  Name = 
REMARK  7 active torsions:
REMARK  status: ('A' for Active; 'I' for Inactive)
REMARK    1  A    between atoms: C_1  and  O_2
REMARK    2  A    between atoms: O_2  and  C_3
REMARK    3  A    between atoms: C_6  and  C_7
REMARK    4  A    between atoms: C_15  and  C_16
REMARK    5  A    between atoms: C_16  and  C_17
REMARK    6  A    between atoms: C_17  and  C_18
REMARK    7  A    between atoms: N_20  and  C_21
REMARK                            x       y       z     vdW  Elec       q    Type
REMARK                         _______ _______ _______ _____ _____    ______ ____
ROOT
ATOM      1  C   UNL     1       4.773   5.779  18.944  0.00  0.00    +0.000 A 
ATOM      2  N   UNL     1       4.896   4.617  19.733  0.00  0.00    +0.000 N 
ATOM      3  C   UNL     1       3.992   3.714  19.178  0.00  0.00    +0.000 A 
ATOM      4  C   UNL     1       4.016   2.327  19.077  0.00  0.00    +0.000 A 
ATOM      5  C   UNL     1       2.954   1.742  18.378  0.00  0.00    +0.000 A 
ATOM      6  C   UNL     1       1.897   2.510  17.880  0.00  0.00    +0.000 A 
ATOM      7  C   UNL     1       1.862   3.896  18.065  0.00  0.00    +0.000 A 
ATOM      8  C   UNL     1       2.970   4.510  18.664  0.00  0.00    +0.000 A 
ATOM      9  C   UNL     1       3.363   5.839  19.000  0.00  0.00    +0.000 A 
ATOM     10  H   UNL     1       5.775   4.314  20.118  0.00  0.00    +0.000 HD
ENDROOT
BRANCH   1  14
ATOM     11  C   UNL     1       6.520   4.892  15.155  0.00  0.00    +0.000 A 
ATOM     12  C   UNL     1       5.473   5.807  15.235  0.00  0.00    +0.000 A 
ATOM     13  C   UNL     1       5.015   6.254  16.483  0.00  0.00    +0.000 A 
ATOM     14  C   UNL     1       5.586   5.771  17.667  0.00  0.00    +0.000 A 
ATOM     15  C   UNL     1       6.746   4.981  17.564  0.00  0.00    +0.000 A 
ATOM     16  C   UNL     1       7.191   4.525  16.320  0.00  0.00    +0.000 A 
BRANCH  11  18
ATOM     17  C   UNL     1       5.958   3.670  13.201  0.00  0.00    +0.000 C 
ATOM     18  O   UNL     1       6.958   4.271  14.016  0.00  0.00    +0.000 OA
ENDBRANCH  11  18
ENDBRANCH   1  14
BRANCH   9  19
ATOM     19  C   UNL     1       2.443   6.966  19.342  0.00  0.00    +0.000 C 
BRANCH  19  20
ATOM     20  C   UNL     1       2.272   7.842  18.087  0.00  0.00    +0.000 C 
BRANCH  20  21
ATOM     21  C   UNL     1       1.763   9.242  18.349  0.00  0.00    +0.000 C 
ATOM     22  O   UNL     1       2.017  10.167  17.582  0.00  0.00    +0.000 OA
ATOM     23  N   UNL     1       0.995   9.305  19.493  0.00  0.00    +0.000 N 
ATOM     24  H   UNL     1       0.995   8.486  20.087  0.00  0.00    +0.000 HD
BRANCH  23  25
ATOM     25  C   UNL     1       0.324  10.440  19.992  0.00  0.00    +0.000 A 
ATOM     26  C   UNL     1      -0.905  10.891  19.512  0.00  0.00    +0.000 A 
ATOM     27  C   UNL     1      -1.477  12.048  20.039  0.00  0.00    +0.000 A 
ATOM     28  C   UNL     1      -0.802  12.720  21.045  0.00  0.00    +0.000 A 
ATOM     29  N   UNL     1       0.367  12.297  21.571  0.00  0.00    +0.000 NA
ATOM     30  C   UNL     1       0.894  11.168  21.037  0.00  0.00    +0.000 A 
ENDBRANCH  23  25
ENDBRANCH  20  21
ENDBRANCH  19  20
ENDBRANCH   9  19
TORSDOF 6
ENDMDL
MODEL 3
REMARK VINA RESULT:      -8.5      2.525      7.752
REMARK  Name = 
REMARK  7 active torsions:
REMARK  status: ('A' for Active; 'I' for Inactive)
REMARK    1  A    between atoms: C_1  and  O_2
REMARK    2  A    between atoms: O_2  and  C_3
REMARK    3  A    between atoms: C_6  and  C_7
REMARK    4  A    between atoms: C_15  and  C_16
REMARK    5  A    between atoms: C_16  and  C_17
REMARK    6  A    between atoms: C_17  and  C_18
REMARK    7  A    between atoms: N_20  and  C_21
REMARK                            x       y       z     vdW  Elec       q    Type
REMARK                         _______ _______ _______ _____ _____    ______ ____
ROOT
ATOM      1  C   UNL     1       3.967   5.885  18.641  0.00  0.00    +0.000 A 
ATOM      2  N   UNL     1       3.879   5.239  19.892  0.00  0.00    +0.000 N 
ATOM      3  C   UNL     1       3.016   4.167  19.679  0.00  0.00    +0.000 A 
ATOM      4  C   UNL     1       2.958   2.900  20.250  0.00  0.00    +0.000 A 
ATOM      5  C   UNL     1       1.985   2.037  19.735  0.00  0.00    +0.000 A 
ATOM      6  C   UNL     1       1.078   2.458  18.758  0.00  0.00    +0.000 A 
ATOM      7  C   UNL     1       1.111   3.765  18.259  0.00  0.00    +0.000 A 
ATOM      8  C   UNL     1       2.148   4.607  18.681  0.00  0.00    +0.000 A 
ATOM      9  C   UNL     1       2.574   5.942  18.415  0.00  0.00    +0.000 A 
ATOM     10  H   UNL     1       4.662   5.170  20.521  0.00  0.00    +0.000 HD
ENDROOT
BRANCH   1  14
ATOM     11  C   UNL     1       6.998   5.181  15.723  0.00  0.00    +0.000 A 
ATOM     12  C   UNL     1       7.327   5.173  17.077  0.00  0.00    +0.000 A 
ATOM     13  C   UNL     1       6.320   5.211  18.052  0.00  0.00    +0.000 A 
ATOM     14  C   UNL     1       4.972   5.282  17.682  0.00  0.00    +0.000 A 
ATOM     15  C   UNL     1       4.652   5.120  16.321  0.00  0.00    +0.000 A 
ATOM     16  C   UNL     1       5.658   5.098  15.351  0.00  0.00    +0.000 A 
BRANCH  11  18
ATOM     17  C   UNL     1       7.409   4.869  13.408  0.00  0.00    +0.000 C 
ATOM     18  O   UNL     1       7.880   5.294  14.682  0.00  0.00    +0.000 OA
ENDBRANCH  11  18
ENDBRANCH   1  14
BRANCH   9  19
ATOM     19  C   UNL     1       1.692   7.082  18.019  0.00  0.00    +0.000 C 
BRANCH  19  20
ATOM     20  C   UNL     1       2.584   8.312  17.766  0.00  0.00    +0.000 C 
BRANCH  20  21
ATOM     21  C   UNL     1       1.993   9.632  18.208  0.00  0.00    +0.000 C 
ATOM     22  O   UNL     1       2.276  10.681  17.636  0.00  0.00    +0.000 OA
ATOM     23  N   UNL     1       1.121   9.477  19.266  0.00  0.00    +0.000 N 
ATOM     24  H   UNL     1       1.101   8.568  19.711  0.00  0.00    +0.000 HD
BRANCH  23  25
ATOM     25  C   UNL     1       0.357  10.491  19.881  0.00  0.00    +0.000 A 
ATOM     26  C   UNL     1      -0.890  10.912  19.421  0.00  0.00    +0.000 A 
ATOM     27  C   UNL     1      -1.556  11.952  20.069  0.00  0.00    +0.000 A 
ATOM     28  C   UNL     1      -0.955  12.536  21.171  0.00  0.00    +0.000 A 
ATOM     29  N   UNL     1       0.230  12.133  21.677  0.00  0.00    +0.000 NA
ATOM     30  C   UNL     1       0.849  11.119  21.025  0.00  0.00    +0.000 A 
ENDBRANCH  23  25
ENDBRANCH  20  21
ENDBRANCH  19  20
ENDBRANCH   9  19
TORSDOF 6
ENDMDL
MODEL 4
REMARK VINA RESULT:      -8.5      2.546      7.542
REMARK  Name = 
REMARK  7 active torsions:
REMARK  status: ('A' for Active; 'I' for Inactive)
REMARK    1  A    between atoms: C_1  and  O_2
REMARK    2  A    between atoms: O_2  and  C_3
REMARK    3  A    between atoms: C_6  and  C_7
REMARK    4  A    between atoms: C_15  and  C_16
REMARK    5  A    between atoms: C_16  and  C_17
REMARK    6  A    between atoms: C_17  and  C_18
REMARK    7  A    between atoms: N_20  and  C_21
REMARK                            x       y       z     vdW  Elec       q    Type
REMARK                         _______ _______ _______ _____ _____    ______ ____
ROOT
ATOM      1  C   UNL     1       4.858   5.976  18.677  0.00  0.00    +0.000 A 
ATOM      2  N   UNL     1       4.957   4.864  19.539  0.00  0.00    +0.000 N 
ATOM      3  C   UNL     1       4.002   3.965  19.069  0.00  0.00    +0.000 A 
ATOM      4  C   UNL     1       3.967   2.575  19.062  0.00  0.00    +0.000 A 
ATOM      5  C   UNL     1       2.864   1.990  18.431  0.00  0.00    +0.000 A 
ATOM      6  C   UNL     1       1.824   2.767  17.910  0.00  0.00    +0.000 A 
ATOM      7  C   UNL     1       1.850   4.163  18.002  0.00  0.00    +0.000 A 
ATOM      8  C   UNL     1       2.999   4.768  18.529  0.00  0.00    +0.000 A 
ATOM      9  C   UNL     1       3.455   6.098  18.765  0.00  0.00    +0.000 A 
ATOM     10  H   UNL     1       5.834   4.551  19.920  0.00  0.00    +0.000 HD
ENDROOT
BRANCH   1  14
ATOM     11  C   UNL     1       6.490   4.745  14.932  0.00  0.00    +0.000 A 
ATOM     12  C   UNL     1       5.450   5.671  14.962  0.00  0.00    +0.000 A 
ATOM     13  C   UNL     1       5.031   6.230  16.178  0.00  0.00    +0.000 A 
ATOM     14  C   UNL     1       5.634   5.849  17.382  0.00  0.00    +0.000 A 
ATOM     15  C   UNL     1       6.787   5.044  17.317  0.00  0.00    +0.000 A 
ATOM     16  C   UNL     1       7.192   4.477  16.106  0.00  0.00    +0.000 A 
BRANCH  11  18
ATOM     17  C   UNL     1       5.861   3.574  12.968  0.00  0.00    +0.000 C 
ATOM     18  O   UNL     1       6.892   4.022  13.841  0.00  0.00    +0.000 OA
ENDBRANCH  11  18
ENDBRANCH   1  14
BRANCH   9  19
ATOM     19  C   UNL     1       2.591   7.284  19.054  0.00  0.00    +0.000 C 
BRANCH  19  20
ATOM     20  C   UNL     1       2.659   8.232  17.842  0.00  0.00    +0.000 C 
BRANCH  20  21
ATOM     21  C   UNL     1       1.804   9.475  17.955  0.00  0.00    +0.000 C 
ATOM     22  O   UNL     1       2.295  10.597  17.856  0.00  0.00    +0.000 OA
ATOM     23  N   UNL     1       0.473   9.170  18.143  0.00  0.00    +0.000 N 
ATOM     24  H   UNL     1       0.250   8.202  18.340  0.00  0.00    +0.000 HD
BRANCH  23  25
ATOM     25  C   UNL     1      -0.596  10.086  18.230  0.00  0.00    +0.000 A 
ATOM     26  C   UNL     1      -0.726  11.034  19.244  0.00  0.00    +0.000 A 
ATOM     27  C   UNL     1      -1.839  11.874  19.272  0.00  0.00    +0.000 A 
ATOM     28  C   UNL     1      -2.789  11.747  18.273  0.00  0.00    +0.000 A 
ATOM     29  N   UNL     1      -2.683  10.874  17.249  0.00  0.00    +0.000 NA
ATOM     30  C   UNL     1      -1.589  10.074  17.250  0.00  0.00    +0.000 A 
ENDBRANCH  23  25
ENDBRANCH  20  21
ENDBRANCH  19  20
ENDBRANCH   9  19
TORSDOF 6
ENDMDL
MODEL 5
REMARK VINA RESULT:      -8.5      1.141      1.463
REMARK  Name = 
REMARK  7 active torsions:
REMARK  status: ('A' for Active; 'I' for Inactive)
REMARK    1  A    between atoms: C_1  and  O_2
REMARK    2  A    between atoms: O_2  and  C_3
REMARK    3  A    between atoms: C_6  and  C_7
REMARK    4  A    between atoms: C_15  and  C_16
REMARK    5  A    between atoms: C_16  and  C_17
REMARK    6  A    between atoms: C_17  and  C_18
REMARK    7  A    between atoms: N_20  and  C_21
REMARK                            x       y       z     vdW  Elec       q    Type
REMARK                         _______ _______ _______ _____ _____    ______ ____
ROOT
ATOM      1  C   UNL     1       3.618   6.165  18.179  0.00  0.00    +0.000 A 
ATOM      2  N   UNL     1       2.767   5.184  17.630  0.00  0.00    +0.000 N 
ATOM      3  C   UNL     1       2.273   4.487  18.731  0.00  0.00    +0.000 A 
ATOM      4  C   UNL     1       1.054   3.854  18.952  0.00  0.00    +0.000 A 
ATOM      5  C   UNL     1       0.867   3.306  20.226  0.00  0.00    +0.000 A 
ATOM      6  C   UNL     1       1.883   3.330  21.187  0.00  0.00    +0.000 A 
ATOM      7  C   UNL     1       3.128   3.905  20.908  0.00  0.00    +0.000 A 
ATOM      8  C   UNL     1       3.292   4.557  19.679  0.00  0.00    +0.000 A 
ATOM      9  C   UNL     1       4.329   5.281  19.019  0.00  0.00    +0.000 A 
ATOM     10  H   UNL     1       2.201   5.352  16.815  0.00  0.00    +0.000 HD
ENDROOT
BRANCH   1  14
ATOM     11  C   UNL     1       0.796   9.190  19.222  0.00  0.00    +0.000 A 
ATOM     12  C   UNL     1       1.283   8.332  20.205  0.00  0.00    +0.000 A 
ATOM     13  C   UNL     1       2.347   7.462  19.924  0.00  0.00    +0.000 A 
ATOM     14  C   UNL     1       2.919   7.425  18.647  0.00  0.00    +0.000 A 
ATOM     15  C   UNL     1       2.528   8.410  17.721  0.00  0.00    +0.000 A 
ATOM     16  C   UNL     1       1.458   9.265  17.998  0.00  0.00    +0.000 A 
BRANCH  11  18
ATOM     17  C   UNL     1      -0.991  10.276  18.103  0.00  0.00    +0.000 C 
ATOM     18  O   UNL     1      -0.322   9.974  19.323  0.00  0.00    +0.000 OA
ENDBRANCH  11  18
ENDBRANCH   1  14
BRANCH   9  19
ATOM     19  C   UNL     1       5.798   5.078  19.208  0.00  0.00    +0.000 C 
BRANCH  19  20
ATOM     20  C   UNL     1       6.538   5.932  18.161  0.00  0.00    +0.000 C 
BRANCH  20  21
ATOM     21  C   UNL     1       7.030   5.173  16.949  0.00  0.00    +0.000 C 
ATOM     22  O   UNL     1       7.929   4.341  17.039  0.00  0.00    +0.000 OA
ATOM     23  N   UNL     1       6.336   5.518  15.808  0.00  0.00    +0.000 N 
ATOM     24  H   UNL     1       5.720   6.318  15.874  0.00  0.00    +0.000 HD
BRANCH  23  25
ATOM     25  C   UNL     1       6.501   4.960  14.523  0.00  0.00    +0.000 A 
ATOM     26  C   UNL     1       5.674   3.972  13.992  0.00  0.00    +0.000 A 
ATOM     27  C   UNL     1       5.938   3.449  12.727  0.00  0.00    +0.000 A 
ATOM     28  C   UNL     1       7.023   3.941  12.021  0.00  0.00    +0.000 A 
ATOM     29  N   UNL     1       7.824   4.927  12.476  0.00  0.00    +0.000 NA
ATOM     30  C   UNL     1       7.539   5.415  13.708  0.00  0.00    +0.000 A 
ENDBRANCH  23  25
ENDBRANCH  20  21
ENDBRANCH  19  20
ENDBRANCH   9  19
TORSDOF 6
ENDMDL
MODEL 6
REMARK VINA RESULT:      -8.5      2.560      7.736
REMARK  Name = 
REMARK  7 active torsions:
REMARK  status: ('A' for Active; 'I' for Inactive)
REMARK    1  A    between atoms: C_1  and  O_2
REMARK    2  A    between atoms: O_2  and  C_3
REMARK    3  A    between atoms: C_6  and  C_7
REMARK    4  A    between atoms: C_15  and  C_16
REMARK    5  A    between atoms: C_16  and  C_17
REMARK    6  A    between atoms: C_17  and  C_18
REMARK    7  A    between atoms: N_20  and  C_21
REMARK                            x       y       z     vdW  Elec       q    Type
REMARK                         _______ _______ _______ _____ _____    ______ ____
ROOT
ATOM      1  C   UNL     1       3.925   6.010  18.755  0.00  0.00    +0.000 A 
ATOM      2  N   UNL     1       3.753   5.386  20.008  0.00  0.00    +0.000 N 
ATOM      3  C   UNL     1       2.918   4.301  19.752  0.00  0.00    +0.000 A 
ATOM      4  C   UNL     1       2.832   3.043  20.340  0.00  0.00    +0.000 A 
ATOM      5  C   UNL     1       1.907   2.160  19.772  0.00  0.00    +0.000 A 
ATOM      6  C   UNL     1       1.070   2.555  18.724  0.00  0.00    +0.000 A 
ATOM      7  C   UNL     1       1.125   3.853  18.204  0.00  0.00    +0.000 A 
ATOM      8  C   UNL     1       2.121   4.713  18.686  0.00  0.00    +0.000 A 
ATOM      9  C   UNL     1       2.552   6.048  18.427  0.00  0.00    +0.000 A 
ATOM     10  H   UNL     1       4.488   5.336  20.693  0.00  0.00    +0.000 HD
ENDROOT
BRANCH   1  14
ATOM     11  C   UNL     1       6.978   5.244  15.875  0.00  0.00    +0.000 A 
ATOM     12  C   UNL     1       7.328   5.572  17.183  0.00  0.00    +0.000 A 
ATOM     13  C   UNL     1       6.349   5.639  18.184  0.00  0.00    +0.000 A 
ATOM     14  C   UNL     1       5.003   5.402  17.883  0.00  0.00    +0.000 A 
ATOM     15  C   UNL     1       4.692   4.911  16.601  0.00  0.00    +0.000 A 
ATOM     16  C   UNL     1       5.667   4.859  15.601  0.00  0.00    +0.000 A 
BRANCH  11  18
ATOM     17  C   UNL     1       7.255   4.829  13.557  0.00  0.00    +0.000 C 
ATOM     18  O   UNL     1       7.806   5.289  14.786  0.00  0.00    +0.000 OA
ENDBRANCH  11  18
ENDBRANCH   1  14
BRANCH   9  19
ATOM     19  C   UNL     1       1.690   7.171  17.947  0.00  0.00    +0.000 C 
BRANCH  19  20
ATOM     20  C   UNL     1       2.563   8.437  17.850  0.00  0.00    +0.000 C 
BRANCH  20  21
ATOM     21  C   UNL     1       1.827   9.739  18.077  0.00  0.00    +0.000 C 
ATOM     22  O   UNL     1       2.242  10.796  17.608  0.00  0.00    +0.000 OA
ATOM     23  N   UNL     1       0.679   9.559  18.820  0.00  0.00    +0.000 N 
ATOM     24  H   UNL     1       0.551   8.651  19.248  0.00  0.00    +0.000 HD
BRANCH  23  25
ATOM     25  C   UNL     1      -0.263  10.551  19.163  0.00  0.00    +0.000 A 
ATOM     26  C   UNL     1      -0.282  11.216  20.388  0.00  0.00    +0.000 A 
ATOM     27  C   UNL     1      -1.277  12.154  20.656  0.00  0.00    +0.000 A 
ATOM     28  C   UNL     1      -2.226  12.409  19.680  0.00  0.00    +0.000 A 
ATOM     29  N   UNL     1      -2.222  11.822  18.464  0.00  0.00    +0.000 NA
ATOM     30  C   UNL     1      -1.239  10.917  18.236  0.00  0.00    +0.000 A 
ENDBRANCH  23  25
ENDBRANCH  20  21
ENDBRANCH  19  20
ENDBRANCH   9  19
TORSDOF 6
ENDMDL
MODEL 7
REMARK VINA RESULT:      -8.4      2.458      7.650
REMARK  Name = 
REMARK  7 active torsions:
REMARK  status: ('A' for Active; 'I' for Inactive)
REMARK    1  A    between atoms: C_1  and  O_2
REMARK    2  A    between atoms: O_2  and  C_3
REMARK    3  A    between atoms: C_6  and  C_7
REMARK    4  A    between atoms: C_15  and  C_16
REMARK    5  A    between atoms: C_16  and  C_17
REMARK    6  A    between atoms: C_17  and  C_18
REMARK    7  A    between atoms: N_20  and  C_21
REMARK                            x       y       z     vdW  Elec       q    Type
REMARK                         _______ _______ _______ _____ _____    ______ ____
ROOT
ATOM      1  C   UNL     1       4.854   5.954  18.374  0.00  0.00    +0.000 A 
ATOM      2  N   UNL     1       5.002   4.953  19.356  0.00  0.00    +0.000 N 
ATOM      3  C   UNL     1       4.099   3.957  18.987  0.00  0.00    +0.000 A 
ATOM      4  C   UNL     1       4.137   2.575  19.136  0.00  0.00    +0.000 A 
ATOM      5  C   UNL     1       3.071   1.866  18.572  0.00  0.00    +0.000 A 
ATOM      6  C   UNL     1       1.998   2.523  17.962  0.00  0.00    +0.000 A 
ATOM      7  C   UNL     1       1.951   3.920  17.896  0.00  0.00    +0.000 A 
ATOM      8  C   UNL     1       3.061   4.640  18.356  0.00  0.00    +0.000 A 
ATOM      9  C   UNL     1       3.445   6.011  18.442  0.00  0.00    +0.000 A 
ATOM     10  H   UNL     1       5.890   4.731  19.774  0.00  0.00    +0.000 HD
ENDROOT
BRANCH   1  14
ATOM     11  C   UNL     1       6.432   4.508  14.683  0.00  0.00    +0.000 A 
ATOM     12  C   UNL     1       5.520   5.561  14.679  0.00  0.00    +0.000 A 
ATOM     13  C   UNL     1       5.139   6.174  15.881  0.00  0.00    +0.000 A 
ATOM     14  C   UNL     1       5.648   5.723  17.105  0.00  0.00    +0.000 A 
ATOM     15  C   UNL     1       6.688   4.775  17.076  0.00  0.00    +0.000 A 
ATOM     16  C   UNL     1       7.056   4.156  15.878  0.00  0.00    +0.000 A 
BRANCH  11  18
ATOM     17  C   UNL     1       5.740   3.490  12.656  0.00  0.00    +0.000 C 
ATOM     18  O   UNL     1       6.772   3.736  13.605  0.00  0.00    +0.000 OA
ENDBRANCH  11  18
ENDBRANCH   1  14
BRANCH   9  19
ATOM     19  C   UNL     1       2.518   7.174  18.592  0.00  0.00    +0.000 C 
BRANCH  19  20
ATOM     20  C   UNL     1       2.124   7.284  20.078  0.00  0.00    +0.000 C 
BRANCH  20  21
ATOM     21  C   UNL     1       1.313   8.510  20.434  0.00  0.00    +0.000 C 
ATOM     22  O   UNL     1       1.010   8.758  21.599  0.00  0.00    +0.000 OA
ATOM     23  N   UNL     1       1.013   9.270  19.323  0.00  0.00    +0.000 N 
ATOM     24  H   UNL     1       1.216   8.859  18.421  0.00  0.00    +0.000 HD
BRANCH  23  25
ATOM     25  C   UNL     1       0.324  10.500  19.309  0.00  0.00    +0.000 A 
ATOM     26  C   UNL     1      -1.042  10.623  19.055  0.00  0.00    +0.000 A 
ATOM     27  C   UNL     1      -1.633  11.886  19.021  0.00  0.00    +0.000 A 
ATOM     28  C   UNL     1      -0.836  12.995  19.252  0.00  0.00    +0.000 A 
ATOM     29  N   UNL     1       0.479  12.922  19.543  0.00  0.00    +0.000 NA
ATOM     30  C   UNL     1       1.021  11.680  19.572  0.00  0.00    +0.000 A 
ENDBRANCH  23  25
ENDBRANCH  20  21
ENDBRANCH  19  20
ENDBRANCH   9  19
TORSDOF 6
ENDMDL
MODEL 8
REMARK VINA RESULT:      -8.4      2.652      8.105
REMARK  Name = 
REMARK  7 active torsions:
REMARK  status: ('A' for Active; 'I' for Inactive)
REMARK    1  A    between atoms: C_1  and  O_2
REMARK    2  A    between atoms: O_2  and  C_3
REMARK    3  A    between atoms: C_6  and  C_7
REMARK    4  A    between atoms: C_15  and  C_16
REMARK    5  A    between atoms: C_16  and  C_17
REMARK    6  A    between atoms: C_17  and  C_18
REMARK    7  A    between atoms: N_20  and  C_21
REMARK                            x       y       z     vdW  Elec       q    Type
REMARK                         _______ _______ _______ _____ _____    ______ ____
ROOT
ATOM      1  C   UNL     1       3.868   6.139  18.733  0.00  0.00    +0.000 A 
ATOM      2  N   UNL     1       3.657   5.556  19.999  0.00  0.00    +0.000 N 
ATOM      3  C   UNL     1       2.852   4.446  19.750  0.00  0.00    +0.000 A 
ATOM      4  C   UNL     1       2.764   3.209  20.379  0.00  0.00    +0.000 A 
ATOM      5  C   UNL     1       1.879   2.289  19.807  0.00  0.00    +0.000 A 
ATOM      6  C   UNL     1       1.078   2.631  18.713  0.00  0.00    +0.000 A 
ATOM      7  C   UNL     1       1.132   3.910  18.149  0.00  0.00    +0.000 A 
ATOM      8  C   UNL     1       2.092   4.806  18.638  0.00  0.00    +0.000 A 
ATOM      9  C   UNL     1       2.509   6.139  18.349  0.00  0.00    +0.000 A 
ATOM     10  H   UNL     1       4.365   5.544  20.715  0.00  0.00    +0.000 HD
ENDROOT
BRANCH   1  14
ATOM     11  C   UNL     1       6.957   5.277  15.918  0.00  0.00    +0.000 A 
ATOM     12  C   UNL     1       7.286   5.807  17.164  0.00  0.00    +0.000 A 
ATOM     13  C   UNL     1       6.312   5.917  18.167  0.00  0.00    +0.000 A 
ATOM     14  C   UNL     1       4.992   5.520  17.927  0.00  0.00    +0.000 A 
ATOM     15  C   UNL     1       4.717   4.836  16.728  0.00  0.00    +0.000 A 
ATOM     16  C   UNL     1       5.685   4.741  15.724  0.00  0.00    +0.000 A 
BRANCH  11  18
ATOM     17  C   UNL     1       7.172   4.800  13.605  0.00  0.00    +0.000 C 
ATOM     18  O   UNL     1       7.769   5.251  14.816  0.00  0.00    +0.000 OA
ENDBRANCH  11  18
ENDBRANCH   1  14
BRANCH   9  19
ATOM     19  C   UNL     1       1.648   7.228  17.795  0.00  0.00    +0.000 C 
BRANCH  19  20
ATOM     20  C   UNL     1       2.148   8.570  18.364  0.00  0.00    +0.000 C 
BRANCH  20  21
ATOM     21  C   UNL     1       1.074   9.447  18.967  0.00  0.00    +0.000 C 
ATOM     22  O   UNL     1       0.178   9.925  18.276  0.00  0.00    +0.000 OA
ATOM     23  N   UNL     1       1.233   9.593  20.330  0.00  0.00    +0.000 N 
ATOM     24  H   UNL     1       2.099   9.250  20.727  0.00  0.00    +0.000 HD
BRANCH  23  25
ATOM     25  C   UNL     1       0.379  10.295  21.205  0.00  0.00    +0.000 A 
ATOM     26  C   UNL     1      -0.087  11.587  20.966  0.00  0.00    +0.000 A 
ATOM     27  C   UNL     1      -0.896  12.221  21.908  0.00  0.00    +0.000 A 
ATOM     28  C   UNL     1      -1.226  11.534  23.065  0.00  0.00    +0.000 A 
ATOM     29  N   UNL     1      -0.835  10.268  23.318  0.00  0.00    +0.000 NA
ATOM     30  C   UNL     1      -0.051   9.681  22.381  0.00  0.00    +0.000 A 
ENDBRANCH  23  25
ENDBRANCH  20  21
ENDBRANCH  19  20
ENDBRANCH   9  19
TORSDOF 6
ENDMDL
MODEL 9
REMARK VINA RESULT:      -8.4      2.599      7.626
REMARK  Name = 
REMARK  7 active torsions:
REMARK  status: ('A' for Active; 'I' for Inactive)
REMARK    1  A    between atoms: C_1  and  O_2
REMARK    2  A    between atoms: O_2  and  C_3
REMARK    3  A    between atoms: C_6  and  C_7
REMARK    4  A    between atoms: C_15  and  C_16
REMARK    5  A    between atoms: C_16  and  C_17
REMARK    6  A    between atoms: C_17  and  C_18
REMARK    7  A    between atoms: N_20  and  C_21
REMARK                            x       y       z     vdW  Elec       q    Type
REMARK                         _______ _______ _______ _____ _____    ______ ____
ROOT
ATOM      1  C   UNL     1       4.477   5.640  18.688  0.00  0.00    +0.000 A 
ATOM      2  N   UNL     1       4.407   4.769  19.795  0.00  0.00    +0.000 N 
ATOM      3  C   UNL     1       3.353   3.907  19.503  0.00  0.00    +0.000 A 
ATOM      4  C   UNL     1       3.134   2.572  19.826  0.00  0.00    +0.000 A 
ATOM      5  C   UNL     1       1.977   1.991  19.295  0.00  0.00    +0.000 A 
ATOM      6  C   UNL     1       1.062   2.740  18.548  0.00  0.00    +0.000 A 
ATOM      7  C   UNL     1       1.271   4.102  18.305  0.00  0.00    +0.000 A 
ATOM      8  C   UNL     1       2.477   4.671  18.733  0.00  0.00    +0.000 A 
ATOM      9  C   UNL     1       3.100   5.952  18.669  0.00  0.00    +0.000 A 
ATOM     10  H   UNL     1       5.227   4.452  20.287  0.00  0.00    +0.000 HD
ENDROOT
BRANCH   1  14
ATOM     11  C   UNL     1       7.069   5.097  15.344  0.00  0.00    +0.000 A 
ATOM     12  C   UNL     1       7.483   4.694  16.611  0.00  0.00    +0.000 A 
ATOM     13  C   UNL     1       6.580   4.687  17.684  0.00  0.00    +0.000 A 
ATOM     14  C   UNL     1       5.257   5.107  17.505  0.00  0.00    +0.000 A 
ATOM     15  C   UNL     1       4.814   5.349  16.191  0.00  0.00    +0.000 A 
ATOM     16  C   UNL     1       5.720   5.370  15.126  0.00  0.00    +0.000 A 
BRANCH  11  18
ATOM     17  C   UNL     1       7.391   4.797  13.014  0.00  0.00    +0.000 C 
ATOM     18  O   UNL     1       7.879   5.288  14.257  0.00  0.00    +0.000 OA
ENDBRANCH  11  18
ENDBRANCH   1  14
BRANCH   9  19
ATOM     19  C   UNL     1       2.394   7.270  18.620  0.00  0.00    +0.000 C 
BRANCH  19  20
ATOM     20  C   UNL     1       1.890   7.596  20.039  0.00  0.00    +0.000 C 
BRANCH  20  21
ATOM     21  C   UNL     1       1.285   8.973  20.201  0.00  0.00    +0.000 C 
ATOM     22  O   UNL     1       0.963   9.401  21.306  0.00  0.00    +0.000 OA
ATOM     23  N   UNL     1       1.188   9.638  18.996  0.00  0.00    +0.000 N 
ATOM     24  H   UNL     1       1.369   9.096  18.160  0.00  0.00    +0.000 HD
BRANCH  23  25
ATOM     25  C   UNL     1       0.726  10.955  18.799  0.00  0.00    +0.000 A 
ATOM     26  C   UNL     1       1.556  12.075  18.776  0.00  0.00    +0.000 A 
ATOM     27  C   UNL     1       1.006  13.346  18.615  0.00  0.00    +0.000 A 
ATOM     28  C   UNL     1      -0.367  13.459  18.472  0.00  0.00    +0.000 A 
ATOM     29  N   UNL     1      -1.204  12.401  18.444  0.00  0.00    +0.000 NA
ATOM     30  C   UNL     1      -0.637  11.180  18.601  0.00  0.00    +0.000 A 
ENDBRANCH  23  25
ENDBRANCH  20  21
ENDBRANCH  19  20
ENDBRANCH   9  19
TORSDOF 6
ENDMDL
