MODEL 1
REMARK VINA RESULT:      -8.4      0.000      0.000
REMARK  Name = 
REMARK  6 active torsions:
REMARK  status: ('A' for Active; 'I' for Inactive)
REMARK    1  A    between atoms: C_2  and  C_3
REMARK    2  A    between atoms: C_3  and  N_4
REMARK    3  A    between atoms: C_7  and  C_8
REMARK    4  A    between atoms: C_12  and  C_13
REMARK    5  A    between atoms: N_19  and  C_20
REMARK    6  A    between atoms: C_25  and  N_26
REMARK                            x       y       z     vdW  Elec       q    Type
REMARK                         _______ _______ _______ _____ _____    ______ ____
ROOT
ATOM      1  N   UNL     1       6.641   5.095  16.415  0.00  0.00    +0.000 N 
ATOM      2  N   UNL     1       6.326   6.243  15.787  0.00  0.00    +0.000 NA
ATOM      3  N   UNL     1       5.993   5.881  14.555  0.00  0.00    +0.000 NA
ATOM      4  C   UNL     1       6.165   4.517  14.471  0.00  0.00    +0.000 A 
ATOM      5  N   UNL     1       6.617   3.990  15.629  0.00  0.00    +0.000 NA
ENDROOT
BRANCH   4   6
ATOM      6  C   UNL     1       5.950   3.767  13.229  0.00  0.00    +0.000 A 
ATOM      7  C   UNL     1       6.945   2.915  12.727  0.00  0.00    +0.000 A 
ATOM      8  C   UNL     1       6.769   2.240  11.516  0.00  0.00    +0.000 A 
ATOM      9  C   UNL     1       5.593   2.399  10.787  0.00  0.00    +0.000 A 
ATOM     10  C   UNL     1       4.567   3.222  11.269  0.00  0.00    +0.000 A 
ATOM     11  C   UNL     1       4.756   3.901  12.494  0.00  0.00    +0.000 A 
BRANCH  10  12
ATOM     12  C   UNL     1       3.282   3.381  10.486  0.00  0.00    +0.000 C 
ATOM     13  F   UNL     1       2.204   2.807  11.093  0.00  0.00    +0.000 F 
ATOM     14  F   UNL     1       2.944   4.684  10.291  0.00  0.00    +0.000 F 
ATOM     15  F   UNL     1       3.350   2.819   9.248  0.00  0.00    +0.000 F 
ENDBRANCH  10  12
ENDBRANCH   4   6
BRANCH   1  16
ATOM     16  C   UNL     1       7.315   5.119  17.703  0.00  0.00    +0.000 C 
BRANCH  16  18
ATOM     17  O   UNL     1       6.698   5.198  20.021  0.00  0.00    +0.000 OA
ATOM     18  C   UNL     1       6.348   4.989  18.861  0.00  0.00    +0.000 C 
ATOM     19  N   UNL     1       5.042   4.660  18.479  0.00  0.00    +0.000 N 
ATOM     20  H   UNL     1       4.907   4.331  17.521  0.00  0.00    +0.000 HD
BRANCH  19  21
ATOM     21  C   UNL     1       3.880   4.572  19.314  0.00  0.00    +0.000 A 
ATOM     22  C   UNL     1       3.104   5.707  19.599  0.00  0.00    +0.000 A 
ATOM     23  C   UNL     1       1.962   5.637  20.411  0.00  0.00    +0.000 A 
ATOM     24  C   UNL     1       1.558   4.428  20.961  0.00  0.00    +0.000 A 
ATOM     25  C   UNL     1       2.290   3.277  20.689  0.00  0.00    +0.000 A 
ATOM     26  C   UNL     1       3.438   3.341  19.867  0.00  0.00    +0.000 A 
BRANCH  26  27
ATOM     27  N   UNL     1       4.153   2.077  19.628  0.00  0.00    +0.000 N 
ATOM     28  O   UNL     1       3.726   1.329  18.732  0.00  0.00    +0.000 OA
ATOM     29  O   UNL     1       5.135   1.817  20.338  0.00  0.00    +0.000 OA
ENDBRANCH  26  27
ENDBRANCH  19  21
ENDBRANCH  16  18
ENDBRANCH   1  16
TORSDOF 6
ENDMDL
MODEL 2
REMARK VINA RESULT:      -8.3      1.222      1.466
REMARK  Name = 
REMARK  6 active torsions:
REMARK  status: ('A' for Active; 'I' for Inactive)
REMARK    1  A    between atoms: C_2  and  C_3
REMARK    2  A    between atoms: C_3  and  N_4
REMARK    3  A    between atoms: C_7  and  C_8
REMARK    4  A    between atoms: C_12  and  C_13
REMARK    5  A    between atoms: N_19  and  C_20
REMARK    6  A    between atoms: C_25  and  N_26
REMARK                            x       y       z     vdW  Elec       q    Type
REMARK                         _______ _______ _______ _____ _____    ______ ____
ROOT
ATOM      1  N   UNL     1       6.108   5.957  16.236  0.00  0.00    +0.000 N 
ATOM      2  N   UNL     1       7.439   5.851  16.064  0.00  0.00    +0.000 NA
ATOM      3  N   UNL     1       7.587   5.148  14.949  0.00  0.00    +0.000 NA
ATOM      4  C   UNL     1       6.326   4.814  14.508  0.00  0.00    +0.000 A 
ATOM      5  N   UNL     1       5.361   5.279  15.329  0.00  0.00    +0.000 NA
ENDROOT
BRANCH   4   6
ATOM      6  C   UNL     1       6.096   3.979  13.325  0.00  0.00    +0.000 A 
ATOM      7  C   UNL     1       7.107   3.140  12.833  0.00  0.00    +0.000 A 
ATOM      8  C   UNL     1       6.912   2.383  11.674  0.00  0.00    +0.000 A 
ATOM      9  C   UNL     1       5.703   2.447  10.988  0.00  0.00    +0.000 A 
ATOM     10  C   UNL     1       4.660   3.255  11.462  0.00  0.00    +0.000 A 
ATOM     11  C   UNL     1       4.868   4.016  12.634  0.00  0.00    +0.000 A 
BRANCH  10  12
ATOM     12  C   UNL     1       3.340   3.309  10.727  0.00  0.00    +0.000 C 
ATOM     13  F   UNL     1       2.292   2.832  11.459  0.00  0.00    +0.000 F 
ATOM     14  F   UNL     1       2.990   4.574  10.368  0.00  0.00    +0.000 F 
ATOM     15  F   UNL     1       3.349   2.579   9.577  0.00  0.00    +0.000 F 
ENDBRANCH  10  12
ENDBRANCH   4   6
BRANCH   1  16
ATOM     16  C   UNL     1       5.562   6.429  17.499  0.00  0.00    +0.000 C 
BRANCH  16  18
ATOM     17  O   UNL     1       5.914   4.530  18.922  0.00  0.00    +0.000 OA
ATOM     18  C   UNL     1       5.109   5.292  18.391  0.00  0.00    +0.000 C 
ATOM     19  N   UNL     1       3.723   5.230  18.576  0.00  0.00    +0.000 N 
ATOM     20  H   UNL     1       3.144   5.789  17.947  0.00  0.00    +0.000 HD
BRANCH  19  21
ATOM     21  C   UNL     1       2.993   4.350  19.441  0.00  0.00    +0.000 A 
ATOM     22  C   UNL     1       2.632   4.744  20.740  0.00  0.00    +0.000 A 
ATOM     23  C   UNL     1       1.914   3.896  21.597  0.00  0.00    +0.000 A 
ATOM     24  C   UNL     1       1.531   2.628  21.180  0.00  0.00    +0.000 A 
ATOM     25  C   UNL     1       1.855   2.207  19.895  0.00  0.00    +0.000 A 
ATOM     26  C   UNL     1       2.572   3.059  19.026  0.00  0.00    +0.000 A 
BRANCH  26  27
ATOM     27  N   UNL     1       2.871   2.535  17.683  0.00  0.00    +0.000 N 
ATOM     28  O   UNL     1       2.326   3.086  16.710  0.00  0.00    +0.000 OA
ATOM     29  O   UNL     1       3.639   1.567  17.590  0.00  0.00    +0.000 OA
ENDBRANCH  26  27
ENDBRANCH  19  21
ENDBRANCH  16  18
ENDBRANCH   1  16
TORSDOF 6
ENDMDL
MODEL 3
REMARK VINA RESULT:      -8.2      6.043      8.124
REMARK  Name = 
REMARK  6 active torsions:
REMARK  status: ('A' for Active; 'I' for Inactive)
REMARK    1  A    between atoms: C_2  and  C_3
REMARK    2  A    between atoms: C_3  and  N_4
REMARK    3  A    between atoms: C_7  and  C_8
REMARK    4  A    between atoms: C_12  and  C_13
REMARK    5  A    between atoms: N_19  and  C_20
REMARK    6  A    between atoms: C_25  and  N_26
REMARK                            x       y       z     vdW  Elec       q    Type
REMARK                         _______ _______ _______ _____ _____    ______ ____
ROOT
ATOM      1  N   UNL     1       7.664   7.076  17.656  0.00  0.00    +0.000 N 
ATOM      2  N   UNL     1       6.821   7.903  17.010  0.00  0.00    +0.000 NA
ATOM      3  N   UNL     1       7.236   9.126  17.315  0.00  0.00    +0.000 NA
ATOM      4  C   UNL     1       8.299   8.990  18.180  0.00  0.00    +0.000 A 
ATOM      5  N   UNL     1       8.571   7.696  18.451  0.00  0.00    +0.000 NA
ENDROOT
BRANCH   4   6
ATOM      6  C   UNL     1       8.981  10.140  18.783  0.00  0.00    +0.000 A 
ATOM      7  C   UNL     1       9.132  10.234  20.174  0.00  0.00    +0.000 A 
ATOM      8  C   UNL     1       9.731  11.355  20.758  0.00  0.00    +0.000 A 
ATOM      9  C   UNL     1      10.196  12.398  19.962  0.00  0.00    +0.000 A 
ATOM     10  C   UNL     1      10.085  12.329  18.566  0.00  0.00    +0.000 A 
ATOM     11  C   UNL     1       9.476  11.193  17.987  0.00  0.00    +0.000 A 
BRANCH  10  12
ATOM     12  C   UNL     1      10.607  13.454  17.701  0.00  0.00    +0.000 C 
ATOM     13  F   UNL     1      11.030  13.040  16.471  0.00  0.00    +0.000 F 
ATOM     14  F   UNL     1       9.670  14.412  17.463  0.00  0.00    +0.000 F 
ATOM     15  F   UNL     1      11.670  14.096  18.259  0.00  0.00    +0.000 F 
ENDBRANCH  10  12
ENDBRANCH   4   6
BRANCH   1  16
ATOM     16  C   UNL     1       7.359   5.660  17.779  0.00  0.00    +0.000 C 
BRANCH  16  18
ATOM     17  O   UNL     1       6.583   5.303  20.021  0.00  0.00    +0.000 OA
ATOM     18  C   UNL     1       6.302   5.388  18.828  0.00  0.00    +0.000 C 
ATOM     19  N   UNL     1       5.003   5.291  18.316  0.00  0.00    +0.000 N 
ATOM     20  H   UNL     1       4.908   5.192  17.303  0.00  0.00    +0.000 HD
BRANCH  19  21
ATOM     21  C   UNL     1       3.779   5.150  19.049  0.00  0.00    +0.000 A 
ATOM     22  C   UNL     1       3.137   6.266  19.610  0.00  0.00    +0.000 A 
ATOM     23  C   UNL     1       1.937   6.145  20.328  0.00  0.00    +0.000 A 
ATOM     24  C   UNL     1       1.339   4.905  20.503  0.00  0.00    +0.000 A 
ATOM     25  C   UNL     1       1.935   3.777  19.948  0.00  0.00    +0.000 A 
ATOM     26  C   UNL     1       3.140   3.893  19.219  0.00  0.00    +0.000 A 
BRANCH  26  27
ATOM     27  N   UNL     1       3.701   2.651  18.664  0.00  0.00    +0.000 N 
ATOM     28  O   UNL     1       3.812   1.673  19.425  0.00  0.00    +0.000 OA
ATOM     29  O   UNL     1       4.046   2.645  17.474  0.00  0.00    +0.000 OA
ENDBRANCH  26  27
ENDBRANCH  19  21
ENDBRANCH  16  18
ENDBRANCH   1  16
TORSDOF 6
ENDMDL
MODEL 4
REMARK VINA RESULT:      -8.2      1.474      2.126
REMARK  Name = 
REMARK  6 active torsions:
REMARK  status: ('A' for Active; 'I' for Inactive)
REMARK    1  A    between atoms: C_2  and  C_3
REMARK    2  A    between atoms: C_3  and  N_4
REMARK    3  A    between atoms: C_7  and  C_8
REMARK    4  A    between atoms: C_12  and  C_13
REMARK    5  A    between atoms: N_19  and  C_20
REMARK    6  A    between atoms: C_25  and  N_26
REMARK                            x       y       z     vdW  Elec       q    Type
REMARK                         _______ _______ _______ _____ _____    ______ ____
ROOT
ATOM      1  N   UNL     1       7.068   4.756  16.254  0.00  0.00    +0.000 N 
ATOM      2  N   UNL     1       7.516   5.799  15.529  0.00  0.00    +0.000 NA
ATOM      3  N   UNL     1       7.232   5.491  14.271  0.00  0.00    +0.000 NA
ATOM      4  C   UNL     1       6.657   4.240  14.278  0.00  0.00    +0.000 A 
ATOM      5  N   UNL     1       6.575   3.725  15.523  0.00  0.00    +0.000 NA
ENDROOT
BRANCH   4   6
ATOM      6  C   UNL     1       6.265   3.541  13.049  0.00  0.00    +0.000 A 
ATOM      7  C   UNL     1       7.160   2.677  12.400  0.00  0.00    +0.000 A 
ATOM      8  C   UNL     1       6.812   2.052  11.199  0.00  0.00    +0.000 A 
ATOM      9  C   UNL     1       5.562   2.274  10.628  0.00  0.00    +0.000 A 
ATOM     10  C   UNL     1       4.632   3.110  11.259  0.00  0.00    +0.000 A 
ATOM     11  C   UNL     1       4.994   3.739  12.472  0.00  0.00    +0.000 A 
BRANCH  10  12
ATOM     12  C   UNL     1       3.267   3.337  10.648  0.00  0.00    +0.000 C 
ATOM     13  F   UNL     1       2.242   2.899  11.434  0.00  0.00    +0.000 F 
ATOM     14  F   UNL     1       3.011   4.651  10.408  0.00  0.00    +0.000 F 
ATOM     15  F   UNL     1       3.115   2.698   9.455  0.00  0.00    +0.000 F 
ENDBRANCH  10  12
ENDBRANCH   4   6
BRANCH   1  16
ATOM     16  C   UNL     1       7.445   4.611  17.650  0.00  0.00    +0.000 C 
BRANCH  16  18
ATOM     17  O   UNL     1       6.240   5.082  19.671  0.00  0.00    +0.000 OA
ATOM     18  C   UNL     1       6.242   4.541  18.567  0.00  0.00    +0.000 C 
ATOM     19  N   UNL     1       5.150   3.854  18.024  0.00  0.00    +0.000 N 
ATOM     20  H   UNL     1       5.323   3.292  17.189  0.00  0.00    +0.000 HD
BRANCH  19  21
ATOM     21  C   UNL     1       3.840   3.707  18.586  0.00  0.00    +0.000 A 
ATOM     22  C   UNL     1       3.420   2.485  19.136  0.00  0.00    +0.000 A 
ATOM     23  C   UNL     1       2.141   2.325  19.692  0.00  0.00    +0.000 A 
ATOM     24  C   UNL     1       1.245   3.384  19.720  0.00  0.00    +0.000 A 
ATOM     25  C   UNL     1       1.628   4.616  19.201  0.00  0.00    +0.000 A 
ATOM     26  C   UNL     1       2.916   4.784  18.644  0.00  0.00    +0.000 A 
BRANCH  26  27
ATOM     27  N   UNL     1       3.242   6.120  18.119  0.00  0.00    +0.000 N 
ATOM     28  O   UNL     1       2.846   7.108  18.761  0.00  0.00    +0.000 OA
ATOM     29  O   UNL     1       3.881   6.192  17.059  0.00  0.00    +0.000 OA
ENDBRANCH  26  27
ENDBRANCH  19  21
ENDBRANCH  16  18
ENDBRANCH   1  16
TORSDOF 6
ENDMDL
MODEL 5
REMARK VINA RESULT:      -8.2      1.784      2.345
REMARK  Name = 
REMARK  6 active torsions:
REMARK  status: ('A' for Active; 'I' for Inactive)
REMARK    1  A    between atoms: C_2  and  C_3
REMARK    2  A    between atoms: C_3  and  N_4
REMARK    3  A    between atoms: C_7  and  C_8
REMARK    4  A    between atoms: C_12  and  C_13
REMARK    5  A    between atoms: N_19  and  C_20
REMARK    6  A    between atoms: C_25  and  N_26
REMARK                            x       y       z     vdW  Elec       q    Type
REMARK                         _______ _______ _______ _____ _____    ______ ____
ROOT
ATOM      1  N   UNL     1       6.888   5.584  17.826  0.00  0.00    +0.000 N 
ATOM      2  N   UNL     1       7.756   4.559  17.915  0.00  0.00    +0.000 NA
ATOM      3  N   UNL     1       7.978   4.185  16.661  0.00  0.00    +0.000 NA
ATOM      4  C   UNL     1       7.191   4.978  15.856  0.00  0.00    +0.000 A 
ATOM      5  N   UNL     1       6.452   5.853  16.570  0.00  0.00    +0.000 NA
ENDROOT
BRANCH   4   6
ATOM      6  C   UNL     1       7.126   4.809  14.400  0.00  0.00    +0.000 A 
ATOM      7  C   UNL     1       8.074   5.419  13.566  0.00  0.00    +0.000 A 
ATOM      8  C   UNL     1       7.985   5.308  12.175  0.00  0.00    +0.000 A 
ATOM      9  C   UNL     1       6.950   4.580  11.593  0.00  0.00    +0.000 A 
ATOM     10  C   UNL     1       5.998   3.936  12.395  0.00  0.00    +0.000 A 
ATOM     11  C   UNL     1       6.097   4.056  13.800  0.00  0.00    +0.000 A 
BRANCH  10  12
ATOM     12  C   UNL     1       4.885   3.130  11.763  0.00  0.00    +0.000 C 
ATOM     13  F   UNL     1       5.264   1.869  11.407  0.00  0.00    +0.000 F 
ATOM     14  F   UNL     1       3.816   2.973  12.590  0.00  0.00    +0.000 F 
ATOM     15  F   UNL     1       4.402   3.704  10.627  0.00  0.00    +0.000 F 
ENDBRANCH  10  12
ENDBRANCH   4   6
BRANCH   1  16
ATOM     16  C   UNL     1       6.204   6.077  19.010  0.00  0.00    +0.000 C 
BRANCH  16  18
ATOM     17  O   UNL     1       3.937   6.538  18.372  0.00  0.00    +0.000 OA
ATOM     18  C   UNL     1       4.715   5.800  18.972  0.00  0.00    +0.000 C 
ATOM     19  N   UNL     1       4.337   4.627  19.635  0.00  0.00    +0.000 N 
ATOM     20  H   UNL     1       5.030   4.195  20.249  0.00  0.00    +0.000 HD
BRANCH  19  21
ATOM     21  C   UNL     1       3.034   4.032  19.689  0.00  0.00    +0.000 A 
ATOM     22  C   UNL     1       2.040   4.538  20.542  0.00  0.00    +0.000 A 
ATOM     23  C   UNL     1       0.759   3.969  20.604  0.00  0.00    +0.000 A 
ATOM     24  C   UNL     1       0.429   2.879  19.811  0.00  0.00    +0.000 A 
ATOM     25  C   UNL     1       1.380   2.359  18.940  0.00  0.00    +0.000 A 
ATOM     26  C   UNL     1       2.670   2.931  18.869  0.00  0.00    +0.000 A 
BRANCH  26  27
ATOM     27  N   UNL     1       3.615   2.320  17.919  0.00  0.00    +0.000 N 
ATOM     28  O   UNL     1       4.105   3.049  17.039  0.00  0.00    +0.000 OA
ATOM     29  O   UNL     1       3.864   1.112  18.037  0.00  0.00    +0.000 OA
ENDBRANCH  26  27
ENDBRANCH  19  21
ENDBRANCH  16  18
ENDBRANCH   1  16
TORSDOF 6
ENDMDL
MODEL 6
REMARK VINA RESULT:      -8.1      2.011      2.641
REMARK  Name = 
REMARK  6 active torsions:
REMARK  status: ('A' for Active; 'I' for Inactive)
REMARK    1  A    between atoms: C_2  and  C_3
REMARK    2  A    between atoms: C_3  and  N_4
REMARK    3  A    between atoms: C_7  and  C_8
REMARK    4  A    between atoms: C_12  and  C_13
REMARK    5  A    between atoms: N_19  and  C_20
REMARK    6  A    between atoms: C_25  and  N_26
REMARK                            x       y       z     vdW  Elec       q    Type
REMARK                         _______ _______ _______ _____ _____    ______ ____
ROOT
ATOM      1  N   UNL     1       6.285   5.753  16.331  0.00  0.00    +0.000 N 
ATOM      2  N   UNL     1       7.533   5.787  15.826  0.00  0.00    +0.000 NA
ATOM      3  N   UNL     1       7.444   5.186  14.647  0.00  0.00    +0.000 NA
ATOM      4  C   UNL     1       6.140   4.767  14.501  0.00  0.00    +0.000 A 
ATOM      5  N   UNL     1       5.384   5.077  15.576  0.00  0.00    +0.000 NA
ENDROOT
BRANCH   4   6
ATOM      6  C   UNL     1       5.679   4.003  13.337  0.00  0.00    +0.000 A 
ATOM      7  C   UNL     1       4.397   4.210  12.807  0.00  0.00    +0.000 A 
ATOM      8  C   UNL     1       3.931   3.447  11.733  0.00  0.00    +0.000 A 
ATOM      9  C   UNL     1       4.740   2.467  11.164  0.00  0.00    +0.000 A 
ATOM     10  C   UNL     1       6.037   2.248  11.650  0.00  0.00    +0.000 A 
ATOM     11  C   UNL     1       6.497   3.025  12.737  0.00  0.00    +0.000 A 
BRANCH  10  12
ATOM     12  C   UNL     1       6.922   1.196  11.020  0.00  0.00    +0.000 C 
ATOM     13  F   UNL     1       7.358   1.532   9.771  0.00  0.00    +0.000 F 
ATOM     14  F   UNL     1       8.046   0.951  11.748  0.00  0.00    +0.000 F 
ATOM     15  F   UNL     1       6.294  -0.003  10.880  0.00  0.00    +0.000 F 
ENDBRANCH  10  12
ENDBRANCH   4   6
BRANCH   1  16
ATOM     16  C   UNL     1       6.045   6.076  17.728  0.00  0.00    +0.000 C 
BRANCH  16  18
ATOM     17  O   UNL     1       5.985   3.963  18.862  0.00  0.00    +0.000 OA
ATOM     18  C   UNL     1       5.362   4.947  18.470  0.00  0.00    +0.000 C 
ATOM     19  N   UNL     1       3.997   5.157  18.696  0.00  0.00    +0.000 N 
ATOM     20  H   UNL     1       3.549   5.911  18.171  0.00  0.00    +0.000 HD
BRANCH  19  21
ATOM     21  C   UNL     1       3.098   4.340  19.457  0.00  0.00    +0.000 A 
ATOM     22  C   UNL     1       2.661   4.735  20.732  0.00  0.00    +0.000 A 
ATOM     23  C   UNL     1       1.778   3.948  21.487  0.00  0.00    +0.000 A 
ATOM     24  C   UNL     1       1.302   2.743  20.990  0.00  0.00    +0.000 A 
ATOM     25  C   UNL     1       1.697   2.325  19.724  0.00  0.00    +0.000 A 
ATOM     26  C   UNL     1       2.581   3.116  18.956  0.00  0.00    +0.000 A 
BRANCH  26  27
ATOM     27  N   UNL     1       2.947   2.600  17.627  0.00  0.00    +0.000 N 
ATOM     28  O   UNL     1       3.751   1.653  17.573  0.00  0.00    +0.000 OA
ATOM     29  O   UNL     1       2.445   3.141  16.631  0.00  0.00    +0.000 OA
ENDBRANCH  26  27
ENDBRANCH  19  21
ENDBRANCH  16  18
ENDBRANCH   1  16
TORSDOF 6
ENDMDL
MODEL 7
REMARK VINA RESULT:      -8.1      6.221      7.840
REMARK  Name = 
REMARK  6 active torsions:
REMARK  status: ('A' for Active; 'I' for Inactive)
REMARK    1  A    between atoms: C_2  and  C_3
REMARK    2  A    between atoms: C_3  and  N_4
REMARK    3  A    between atoms: C_7  and  C_8
REMARK    4  A    between atoms: C_12  and  C_13
REMARK    5  A    between atoms: N_19  and  C_20
REMARK    6  A    between atoms: C_25  and  N_26
REMARK                            x       y       z     vdW  Elec       q    Type
REMARK                         _______ _______ _______ _____ _____    ______ ____
ROOT
ATOM      1  N   UNL     1       1.891   9.036  18.550  0.00  0.00    +0.000 N 
ATOM      2  N   UNL     1       1.672   8.406  19.720  0.00  0.00    +0.000 NA
ATOM      3  N   UNL     1       2.275   7.230  19.595  0.00  0.00    +0.000 NA
ATOM      4  C   UNL     1       2.803   7.176  18.325  0.00  0.00    +0.000 A 
ATOM      5  N   UNL     1       2.540   8.295  17.617  0.00  0.00    +0.000 NA
ENDROOT
BRANCH   4   6
ATOM      6  C   UNL     1       3.494   5.991  17.805  0.00  0.00    +0.000 A 
ATOM      7  C   UNL     1       2.839   4.753  17.738  0.00  0.00    +0.000 A 
ATOM      8  C   UNL     1       3.509   3.608  17.294  0.00  0.00    +0.000 A 
ATOM      9  C   UNL     1       4.844   3.682  16.905  0.00  0.00    +0.000 A 
ATOM     10  C   UNL     1       5.524   4.908  16.934  0.00  0.00    +0.000 A 
ATOM     11  C   UNL     1       4.837   6.058  17.385  0.00  0.00    +0.000 A 
BRANCH  10  12
ATOM     12  C   UNL     1       6.968   4.991  16.493  0.00  0.00    +0.000 C 
ATOM     13  F   UNL     1       7.163   4.602  15.200  0.00  0.00    +0.000 F 
ATOM     14  F   UNL     1       7.471   6.253  16.577  0.00  0.00    +0.000 F 
ATOM     15  F   UNL     1       7.791   4.206  17.242  0.00  0.00    +0.000 F 
ENDBRANCH  10  12
ENDBRANCH   4   6
BRANCH   1  16
ATOM     16  C   UNL     1       1.153  10.242  18.212  0.00  0.00    +0.000 C 
BRANCH  16  18
ATOM     17  O   UNL     1       1.522  11.908  19.899  0.00  0.00    +0.000 OA
ATOM     18  C   UNL     1       0.775  11.048  19.436  0.00  0.00    +0.000 C 
ATOM     19  N   UNL     1      -0.495  10.751  19.944  0.00  0.00    +0.000 N 
ATOM     20  H   UNL     1      -0.946   9.901  19.601  0.00  0.00    +0.000 HD
BRANCH  19  21
ATOM     21  C   UNL     1      -1.186  11.407  21.016  0.00  0.00    +0.000 A 
ATOM     22  C   UNL     1      -1.955  12.559  20.786  0.00  0.00    +0.000 A 
ATOM     23  C   UNL     1      -2.639  13.210  21.823  0.00  0.00    +0.000 A 
ATOM     24  C   UNL     1      -2.580  12.727  23.123  0.00  0.00    +0.000 A 
ATOM     25  C   UNL     1      -1.843  11.578  23.389  0.00  0.00    +0.000 A 
ATOM     26  C   UNL     1      -1.156  10.915  22.348  0.00  0.00    +0.000 A 
BRANCH  26  27
ATOM     27  N   UNL     1      -0.402   9.705  22.716  0.00  0.00    +0.000 N 
ATOM     28  O   UNL     1       0.453   9.806  23.614  0.00  0.00    +0.000 OA
ATOM     29  O   UNL     1      -0.647   8.654  22.107  0.00  0.00    +0.000 OA
ENDBRANCH  26  27
ENDBRANCH  19  21
ENDBRANCH  16  18
ENDBRANCH   1  16
TORSDOF 6
ENDMDL
MODEL 8
REMARK VINA RESULT:      -8.1      5.651      7.675
REMARK  Name = 
REMARK  6 active torsions:
REMARK  status: ('A' for Active; 'I' for Inactive)
REMARK    1  A    between atoms: C_2  and  C_3
REMARK    2  A    between atoms: C_3  and  N_4
REMARK    3  A    between atoms: C_7  and  C_8
REMARK    4  A    between atoms: C_12  and  C_13
REMARK    5  A    between atoms: N_19  and  C_20
REMARK    6  A    between atoms: C_25  and  N_26
REMARK                            x       y       z     vdW  Elec       q    Type
REMARK                         _______ _______ _______ _____ _____    ______ ____
ROOT
ATOM      1  N   UNL     1       7.554   6.644  17.563  0.00  0.00    +0.000 N 
ATOM      2  N   UNL     1       6.749   7.367  16.762  0.00  0.00    +0.000 NA
ATOM      3  N   UNL     1       7.082   8.631  16.991  0.00  0.00    +0.000 NA
ATOM      4  C   UNL     1       8.055   8.626  17.964  0.00  0.00    +0.000 A 
ATOM      5  N   UNL     1       8.351   7.376  18.381  0.00  0.00    +0.000 NA
ENDROOT
BRANCH   4   6
ATOM      6  C   UNL     1       8.626   9.857  18.520  0.00  0.00    +0.000 A 
ATOM      7  C   UNL     1       9.437   9.818  19.663  0.00  0.00    +0.000 A 
ATOM      8  C   UNL     1       9.938  10.994  20.230  0.00  0.00    +0.000 A 
ATOM      9  C   UNL     1       9.643  12.229  19.661  0.00  0.00    +0.000 A 
ATOM     10  C   UNL     1       8.856  12.307  18.504  0.00  0.00    +0.000 A 
ATOM     11  C   UNL     1       8.354  11.112  17.940  0.00  0.00    +0.000 A 
BRANCH  10  12
ATOM     12  C   UNL     1       8.550  13.648  17.875  0.00  0.00    +0.000 C 
ATOM     13  F   UNL     1       7.464  13.624  17.050  0.00  0.00    +0.000 F 
ATOM     14  F   UNL     1       8.289  14.614  18.798  0.00  0.00    +0.000 F 
ATOM     15  F   UNL     1       9.579  14.119  17.117  0.00  0.00    +0.000 F 
ENDBRANCH  10  12
ENDBRANCH   4   6
BRANCH   1  16
ATOM     16  C   UNL     1       7.296   5.231  17.788  0.00  0.00    +0.000 C 
BRANCH  16  18
ATOM     17  O   UNL     1       6.643   4.995  20.085  0.00  0.00    +0.000 OA
ATOM     18  C   UNL     1       6.300   4.999  18.905  0.00  0.00    +0.000 C 
ATOM     19  N   UNL     1       4.980   4.839  18.468  0.00  0.00    +0.000 N 
ATOM     20  H   UNL     1       4.837   4.675  17.470  0.00  0.00    +0.000 HD
BRANCH  19  21
ATOM     21  C   UNL     1       3.799   4.714  19.271  0.00  0.00    +0.000 A 
ATOM     22  C   UNL     1       2.996   5.830  19.559  0.00  0.00    +0.000 A 
ATOM     23  C   UNL     1       1.836   5.724  20.341  0.00  0.00    +0.000 A 
ATOM     24  C   UNL     1       1.439   4.497  20.855  0.00  0.00    +0.000 A 
ATOM     25  C   UNL     1       2.198   3.365  20.579  0.00  0.00    +0.000 A 
ATOM     26  C   UNL     1       3.364   3.465  19.788  0.00  0.00    +0.000 A 
BRANCH  26  27
ATOM     27  N   UNL     1       4.107   2.218  19.542  0.00  0.00    +0.000 N 
ATOM     28  O   UNL     1       3.839   1.576  18.512  0.00  0.00    +0.000 OA
ATOM     29  O   UNL     1       4.951   1.865  20.379  0.00  0.00    +0.000 OA
ENDBRANCH  26  27
ENDBRANCH  19  21
ENDBRANCH  16  18
ENDBRANCH   1  16
TORSDOF 6
ENDMDL
MODEL 9
REMARK VINA RESULT:      -8.1      6.419      8.433
REMARK  Name = 
REMARK  6 active torsions:
REMARK  status: ('A' for Active; 'I' for Inactive)
REMARK    1  A    between atoms: C_2  and  C_3
REMARK    2  A    between atoms: C_3  and  N_4
REMARK    3  A    between atoms: C_7  and  C_8
REMARK    4  A    between atoms: C_12  and  C_13
REMARK    5  A    between atoms: N_19  and  C_20
REMARK    6  A    between atoms: C_25  and  N_26
REMARK                            x       y       z     vdW  Elec       q    Type
REMARK                         _______ _______ _______ _____ _____    ______ ____
ROOT
ATOM      1  N   UNL     1       7.185   6.775  17.396  0.00  0.00    +0.000 N 
ATOM      2  N   UNL     1       7.911   6.435  18.478  0.00  0.00    +0.000 NA
ATOM      3  N   UNL     1       8.439   7.573  18.909  0.00  0.00    +0.000 NA
ATOM      4  C   UNL     1       8.044   8.561  18.035  0.00  0.00    +0.000 A 
ATOM      5  N   UNL     1       7.277   8.079  17.035  0.00  0.00    +0.000 NA
ENDROOT
BRANCH   4   6
ATOM      6  C   UNL     1       8.491   9.953  18.160  0.00  0.00    +0.000 A 
ATOM      7  C   UNL     1       7.869  10.973  17.424  0.00  0.00    +0.000 A 
ATOM      8  C   UNL     1       8.326  12.292  17.496  0.00  0.00    +0.000 A 
ATOM      9  C   UNL     1       9.408  12.618  18.309  0.00  0.00    +0.000 A 
ATOM     10  C   UNL     1      10.039  11.630  19.078  0.00  0.00    +0.000 A 
ATOM     11  C   UNL     1       9.570  10.300  18.997  0.00  0.00    +0.000 A 
BRANCH  10  12
ATOM     12  C   UNL     1      11.203  11.987  19.976  0.00  0.00    +0.000 C 
ATOM     13  F   UNL     1      12.332  11.269  19.710  0.00  0.00    +0.000 F 
ATOM     14  F   UNL     1      11.566  13.295  19.870  0.00  0.00    +0.000 F 
ATOM     15  F   UNL     1      10.934  11.776  21.293  0.00  0.00    +0.000 F 
ENDBRANCH  10  12
ENDBRANCH   4   6
BRANCH   1  16
ATOM     16  C   UNL     1       6.678   5.751  16.496  0.00  0.00    +0.000 C 
BRANCH  16  18
ATOM     17  O   UNL     1       5.020   4.017  16.529  0.00  0.00    +0.000 OA
ATOM     18  C   UNL     1       5.492   5.010  17.077  0.00  0.00    +0.000 C 
ATOM     19  N   UNL     1       5.032   5.534  18.291  0.00  0.00    +0.000 N 
ATOM     20  H   UNL     1       5.372   6.460  18.557  0.00  0.00    +0.000 HD
BRANCH  19  21
ATOM     21  C   UNL     1       4.008   5.004  19.143  0.00  0.00    +0.000 A 
ATOM     22  C   UNL     1       4.123   3.720  19.702  0.00  0.00    +0.000 A 
ATOM     23  C   UNL     1       3.132   3.188  20.541  0.00  0.00    +0.000 A 
ATOM     24  C   UNL     1       1.996   3.924  20.850  0.00  0.00    +0.000 A 
ATOM     25  C   UNL     1       1.853   5.206  20.330  0.00  0.00    +0.000 A 
ATOM     26  C   UNL     1       2.851   5.749  19.490  0.00  0.00    +0.000 A 
BRANCH  26  27
ATOM     27  N   UNL     1       2.621   7.113  18.985  0.00  0.00    +0.000 N 
ATOM     28  O   UNL     1       2.977   7.368  17.821  0.00  0.00    +0.000 OA
ATOM     29  O   UNL     1       2.096   7.938  19.746  0.00  0.00    +0.000 OA
ENDBRANCH  26  27
ENDBRANCH  19  21
ENDBRANCH  16  18
ENDBRANCH   1  16
TORSDOF 6
ENDMDL
