MODEL 1
REMARK VINA RESULT:      -9.4      0.000      0.000
REMARK  Name = 
REMARK  5 active torsions:
REMARK  status: ('A' for Active; 'I' for Inactive)
REMARK    1  A    between atoms: C_1  and  C_2
REMARK    2  A    between atoms: C_4  and  C_5
REMARK    3  A    between atoms: C_9  and  N_10
REMARK    4  A    between atoms: C_11  and  C_13
REMARK    5  A    between atoms: C_13  and  C_14
REMARK                            x       y       z     vdW  Elec       q    Type
REMARK                         _______ _______ _______ _____ _____    ______ ____
ROOT
ATOM      1  N   UNL     1       3.096   6.402  18.841  0.00  0.00    +0.000 N 
ATOM      2  C   UNL     1       2.669   5.207  18.283  0.00  0.00    +0.000 C 
ATOM      3  O   UNL     1       1.601   5.063  17.679  0.00  0.00    +0.000 OA
ATOM      4  H   UNL     1       4.041   6.441  19.208  0.00  0.00    +0.000 HD
ENDROOT
BRANCH   1   9
ATOM      5  C   UNL     1       0.946   9.172  20.142  0.00  0.00    +0.000 A 
ATOM      6  C   UNL     1       0.943  10.050  19.052  0.00  0.00    +0.000 A 
ATOM      7  C   UNL     1       1.618   9.726  17.886  0.00  0.00    +0.000 A 
ATOM      8  C   UNL     1       2.316   8.520  17.799  0.00  0.00    +0.000 A 
ATOM      9  C   UNL     1       2.357   7.621  18.873  0.00  0.00    +0.000 A 
ATOM     10  C   UNL     1       1.646   7.951  20.038  0.00  0.00    +0.000 A 
BRANCH   5  14
ATOM     11  C   UNL     1      -1.804  11.769  23.301  0.00  0.00    +0.000 C 
ATOM     12  C   UNL     1      -0.936  10.753  22.671  0.00  0.00    +0.000 A 
ATOM     13  N   UNL     1      -0.563  10.678  21.415  0.00  0.00    +0.000 NA
ATOM     14  C   UNL     1       0.260   9.569  21.367  0.00  0.00    +0.000 A 
ATOM     15  N   UNL     1       0.387   8.949  22.553  0.00  0.00    +0.000 NA
ATOM     16  N   UNL     1      -0.368   9.718  23.353  0.00  0.00    +0.000 N 
ATOM     17  H   UNL     1      -0.443   9.489  24.338  0.00  0.00    +0.000 HD
ENDBRANCH   5  14
ENDBRANCH   1   9
BRANCH   2  18
ATOM     18  C   UNL     1       3.641   3.999  18.375  0.00  0.00    +0.000 C 
ATOM     19  C   UNL     1       2.852   2.763  17.831  0.00  0.00    +0.000 C 
ATOM     20  C   UNL     1       3.505   1.525  18.428  0.00  0.00    +0.000 C 
ATOM     21  C   UNL     1       4.280   2.017  19.645  0.00  0.00    +0.000 C 
ATOM     22  C   UNL     1       3.891   3.491  19.813  0.00  0.00    +0.000 C 
BRANCH  18  23
ATOM     23  C   UNL     1       4.911   4.252  17.537  0.00  0.00    +0.000 A 
ATOM     24  C   UNL     1       6.155   4.578  18.106  0.00  0.00    +0.000 A 
ATOM     25  C   UNL     1       7.306   4.701  17.320  0.00  0.00    +0.000 A 
ATOM     26  C   UNL     1       7.236   4.527  15.943  0.00  0.00    +0.000 A 
ATOM     27  C   UNL     1       6.011   4.251  15.348  0.00  0.00    +0.000 A 
ATOM     28  C   UNL     1       4.862   4.123  16.135  0.00  0.00    +0.000 A 
ENDBRANCH  18  23
ENDBRANCH   2  18
TORSDOF 4
ENDMDL
MODEL 2
REMARK VINA RESULT:      -8.5      2.422      4.447
REMARK  Name = 
REMARK  5 active torsions:
REMARK  status: ('A' for Active; 'I' for Inactive)
REMARK    1  A    between atoms: C_1  and  C_2
REMARK    2  A    between atoms: C_4  and  C_5
REMARK    3  A    between atoms: C_9  and  N_10
REMARK    4  A    between atoms: C_11  and  C_13
REMARK    5  A    between atoms: C_13  and  C_14
REMARK                            x       y       z     vdW  Elec       q    Type
REMARK                         _______ _______ _______ _____ _____    ______ ____
ROOT
ATOM      1  N   UNL     1       2.071   7.163  20.051  0.00  0.00    +0.000 N 
ATOM      2  C   UNL     1       2.817   6.942  18.903  0.00  0.00    +0.000 C 
ATOM      3  O   UNL     1       3.026   7.795  18.034  0.00  0.00    +0.000 OA
ATOM      4  H   UNL     1       2.062   6.435  20.756  0.00  0.00    +0.000 HD
ENDROOT
BRANCH   1   9
ATOM      5  C   UNL     1      -0.061  10.208  19.640  0.00  0.00    +0.000 A 
ATOM      6  C   UNL     1      -0.097  10.695  20.952  0.00  0.00    +0.000 A 
ATOM      7  C   UNL     1       0.595  10.047  21.962  0.00  0.00    +0.000 A 
ATOM      8  C   UNL     1       1.326   8.893  21.674  0.00  0.00    +0.000 A 
ATOM      9  C   UNL     1       1.375   8.364  20.377  0.00  0.00    +0.000 A 
ATOM     10  C   UNL     1       0.690   9.048  19.359  0.00  0.00    +0.000 A 
BRANCH   5  14
ATOM     11  C   UNL     1      -3.020  10.960  15.771  0.00  0.00    +0.000 C 
ATOM     12  C   UNL     1      -2.120  11.133  16.930  0.00  0.00    +0.000 A 
ATOM     13  N   UNL     1      -1.645  10.205  17.727  0.00  0.00    +0.000 NA
ATOM     14  C   UNL     1      -0.840  10.894  18.614  0.00  0.00    +0.000 A 
ATOM     15  N   UNL     1      -0.822  12.220  18.397  0.00  0.00    +0.000 NA
ATOM     16  N   UNL     1      -1.628  12.340  17.329  0.00  0.00    +0.000 N 
ATOM     17  H   UNL     1      -1.787  13.256  16.926  0.00  0.00    +0.000 HD
ENDBRANCH   5  14
ENDBRANCH   1   9
BRANCH   2  18
ATOM     18  C   UNL     1       3.481   5.547  18.752  0.00  0.00    +0.000 C 
ATOM     19  C   UNL     1       4.935   5.693  19.309  0.00  0.00    +0.000 C 
ATOM     20  C   UNL     1       5.766   4.593  18.666  0.00  0.00    +0.000 C 
ATOM     21  C   UNL     1       4.990   4.164  17.426  0.00  0.00    +0.000 C 
ATOM     22  C   UNL     1       3.834   5.162  17.297  0.00  0.00    +0.000 C 
BRANCH  18  23
ATOM     23  C   UNL     1       2.697   4.479  19.542  0.00  0.00    +0.000 A 
ATOM     24  C   UNL     1       2.995   4.133  20.872  0.00  0.00    +0.000 A 
ATOM     25  C   UNL     1       2.198   3.231  21.587  0.00  0.00    +0.000 A 
ATOM     26  C   UNL     1       1.100   2.634  20.981  0.00  0.00    +0.000 A 
ATOM     27  C   UNL     1       0.809   2.921  19.653  0.00  0.00    +0.000 A 
ATOM     28  C   UNL     1       1.602   3.826  18.941  0.00  0.00    +0.000 A 
ENDBRANCH  18  23
ENDBRANCH   2  18
TORSDOF 4
ENDMDL
MODEL 3
REMARK VINA RESULT:      -8.4      2.321      4.401
REMARK  Name = 
REMARK  5 active torsions:
REMARK  status: ('A' for Active; 'I' for Inactive)
REMARK    1  A    between atoms: C_1  and  C_2
REMARK    2  A    between atoms: C_4  and  C_5
REMARK    3  A    between atoms: C_9  and  N_10
REMARK    4  A    between atoms: C_11  and  C_13
REMARK    5  A    between atoms: C_13  and  C_14
REMARK                            x       y       z     vdW  Elec       q    Type
REMARK                         _______ _______ _______ _____ _____    ______ ____
ROOT
ATOM      1  N   UNL     1       2.156   7.118  19.934  0.00  0.00    +0.000 N 
ATOM      2  C   UNL     1       2.887   6.958  18.766  0.00  0.00    +0.000 C 
ATOM      3  O   UNL     1       3.071   7.851  17.933  0.00  0.00    +0.000 OA
ATOM      4  H   UNL     1       2.168   6.359  20.606  0.00  0.00    +0.000 HD
ENDROOT
BRANCH   1   9
ATOM      5  C   UNL     1      -0.004  10.161  19.685  0.00  0.00    +0.000 A 
ATOM      6  C   UNL     1      -0.043  10.577  21.021  0.00  0.00    +0.000 A 
ATOM      7  C   UNL     1       0.656   9.883  21.995  0.00  0.00    +0.000 A 
ATOM      8  C   UNL     1       1.397   8.752  21.646  0.00  0.00    +0.000 A 
ATOM      9  C   UNL     1       1.449   8.293  20.323  0.00  0.00    +0.000 A 
ATOM     10  C   UNL     1       0.758   9.024  19.343  0.00  0.00    +0.000 A 
BRANCH   5  14
ATOM     11  C   UNL     1      -3.132  11.094  15.993  0.00  0.00    +0.000 C 
ATOM     12  C   UNL     1      -2.151  11.210  17.091  0.00  0.00    +0.000 A 
ATOM     13  N   UNL     1      -1.700  10.258  17.874  0.00  0.00    +0.000 NA
ATOM     14  C   UNL     1      -0.789  10.893  18.696  0.00  0.00    +0.000 A 
ATOM     15  N   UNL     1      -0.681  12.210  18.455  0.00  0.00    +0.000 NA
ATOM     16  N   UNL     1      -1.541  12.379  17.437  0.00  0.00    +0.000 N 
ATOM     17  H   UNL     1      -1.653  13.300  17.028  0.00  0.00    +0.000 HD
ENDBRANCH   5  14
ENDBRANCH   1   9
BRANCH   2  18
ATOM     18  C   UNL     1       3.567   5.580  18.544  0.00  0.00    +0.000 C 
ATOM     19  C   UNL     1       4.902   5.615  19.359  0.00  0.00    +0.000 C 
ATOM     20  C   UNL     1       5.832   4.592  18.726  0.00  0.00    +0.000 C 
ATOM     21  C   UNL     1       5.285   4.352  17.324  0.00  0.00    +0.000 C 
ATOM     22  C   UNL     1       4.169   5.386  17.134  0.00  0.00    +0.000 C 
BRANCH  18  23
ATOM     23  C   UNL     1       2.656   4.434  19.033  0.00  0.00    +0.000 A 
ATOM     24  C   UNL     1       1.708   3.802  18.209  0.00  0.00    +0.000 A 
ATOM     25  C   UNL     1       0.971   2.700  18.659  0.00  0.00    +0.000 A 
ATOM     26  C   UNL     1       1.146   2.222  19.952  0.00  0.00    +0.000 A 
ATOM     27  C   UNL     1       2.042   2.857  20.803  0.00  0.00    +0.000 A 
ATOM     28  C   UNL     1       2.782   3.954  20.351  0.00  0.00    +0.000 A 
ENDBRANCH  18  23
ENDBRANCH   2  18
TORSDOF 4
ENDMDL
MODEL 4
REMARK VINA RESULT:      -8.4      2.268      3.244
REMARK  Name = 
REMARK  5 active torsions:
REMARK  status: ('A' for Active; 'I' for Inactive)
REMARK    1  A    between atoms: C_1  and  C_2
REMARK    2  A    between atoms: C_4  and  C_5
REMARK    3  A    between atoms: C_9  and  N_10
REMARK    4  A    between atoms: C_11  and  C_13
REMARK    5  A    between atoms: C_13  and  C_14
REMARK                            x       y       z     vdW  Elec       q    Type
REMARK                         _______ _______ _______ _____ _____    ______ ____
ROOT
ATOM      1  N   UNL     1       2.431   7.056  19.334  0.00  0.00    +0.000 N 
ATOM      2  C   UNL     1       2.318   5.732  19.730  0.00  0.00    +0.000 C 
ATOM      3  O   UNL     1       1.492   5.319  20.550  0.00  0.00    +0.000 OA
ATOM      4  H   UNL     1       3.060   7.268  18.567  0.00  0.00    +0.000 HD
ENDROOT
BRANCH   1   9
ATOM      5  C   UNL     1       0.110   9.988  19.425  0.00  0.00    +0.000 A 
ATOM      6  C   UNL     1       0.086  10.274  20.795  0.00  0.00    +0.000 A 
ATOM      7  C   UNL     1       0.847   9.530  21.682  0.00  0.00    +0.000 A 
ATOM      8  C   UNL     1       1.635   8.479  21.210  0.00  0.00    +0.000 A 
ATOM      9  C   UNL     1       1.675   8.150  19.849  0.00  0.00    +0.000 A 
ATOM     10  C   UNL     1       0.920   8.931  18.958  0.00  0.00    +0.000 A 
BRANCH   5  14
ATOM     11  C   UNL     1      -3.153  11.094  15.901  0.00  0.00    +0.000 C 
ATOM     12  C   UNL     1      -2.154  11.159  16.987  0.00  0.00    +0.000 A 
ATOM     13  N   UNL     1      -1.632  10.163  17.663  0.00  0.00    +0.000 NA
ATOM     14  C   UNL     1      -0.739  10.766  18.528  0.00  0.00    +0.000 A 
ATOM     15  N   UNL     1      -0.711  12.105  18.417  0.00  0.00    +0.000 NA
ATOM     16  N   UNL     1      -1.604  12.323  17.437  0.00  0.00    +0.000 N 
ATOM     17  H   UNL     1      -1.777  13.271  17.124  0.00  0.00    +0.000 HD
ENDBRANCH   5  14
ENDBRANCH   1   9
BRANCH   2  18
ATOM     18  C   UNL     1       3.256   4.707  19.037  0.00  0.00    +0.000 C 
ATOM     19  C   UNL     1       2.463   4.150  17.810  0.00  0.00    +0.000 C 
ATOM     20  C   UNL     1       3.061   2.791  17.478  0.00  0.00    +0.000 C 
ATOM     21  C   UNL     1       3.796   2.348  18.737  0.00  0.00    +0.000 C 
ATOM     22  C   UNL     1       3.435   3.381  19.810  0.00  0.00    +0.000 C 
BRANCH  18  23
ATOM     23  C   UNL     1       4.566   5.384  18.582  0.00  0.00    +0.000 A 
ATOM     24  C   UNL     1       5.773   5.281  19.296  0.00  0.00    +0.000 A 
ATOM     25  C   UNL     1       6.963   5.825  18.799  0.00  0.00    +0.000 A 
ATOM     26  C   UNL     1       6.969   6.507  17.588  0.00  0.00    +0.000 A 
ATOM     27  C   UNL     1       5.781   6.665  16.884  0.00  0.00    +0.000 A 
ATOM     28  C   UNL     1       4.594   6.116  17.379  0.00  0.00    +0.000 A 
ENDBRANCH  18  23
ENDBRANCH   2  18
TORSDOF 4
ENDMDL
MODEL 5
REMARK VINA RESULT:      -8.3      2.133      3.206
REMARK  Name = 
REMARK  5 active torsions:
REMARK  status: ('A' for Active; 'I' for Inactive)
REMARK    1  A    between atoms: C_1  and  C_2
REMARK    2  A    between atoms: C_4  and  C_5
REMARK    3  A    between atoms: C_9  and  N_10
REMARK    4  A    between atoms: C_11  and  C_13
REMARK    5  A    between atoms: C_13  and  C_14
REMARK                            x       y       z     vdW  Elec       q    Type
REMARK                         _______ _______ _______ _____ _____    ______ ____
ROOT
ATOM      1  N   UNL     1       1.936   6.941  20.166  0.00  0.00    +0.000 N 
ATOM      2  C   UNL     1       2.727   6.663  19.062  0.00  0.00    +0.000 C 
ATOM      3  O   UNL     1       3.086   7.506  18.232  0.00  0.00    +0.000 OA
ATOM      4  H   UNL     1       1.800   6.203  20.848  0.00  0.00    +0.000 HD
ENDROOT
BRANCH   1   9
ATOM      5  C   UNL     1       0.039  10.138  19.749  0.00  0.00    +0.000 A 
ATOM      6  C   UNL     1       0.109  10.667  21.043  0.00  0.00    +0.000 A 
ATOM      7  C   UNL     1       0.797   9.996  22.041  0.00  0.00    +0.000 A 
ATOM      8  C   UNL     1       1.417   8.777  21.760  0.00  0.00    +0.000 A 
ATOM      9  C   UNL     1       1.357   8.205  20.482  0.00  0.00    +0.000 A 
ATOM     10  C   UNL     1       0.679   8.911  19.474  0.00  0.00    +0.000 A 
BRANCH   5  14
ATOM     11  C   UNL     1      -2.941  11.000  15.919  0.00  0.00    +0.000 C 
ATOM     12  C   UNL     1      -2.024  11.139  17.070  0.00  0.00    +0.000 A 
ATOM     13  N   UNL     1      -1.565  10.193  17.854  0.00  0.00    +0.000 NA
ATOM     14  C   UNL     1      -0.733  10.853  18.737  0.00  0.00    +0.000 A 
ATOM     15  N   UNL     1      -0.683  12.180  18.532  0.00  0.00    +0.000 NA
ATOM     16  N   UNL     1      -1.497  12.329  17.475  0.00  0.00    +0.000 N 
ATOM     17  H   UNL     1      -1.637  13.253  17.082  0.00  0.00    +0.000 HD
ENDBRANCH   5  14
ENDBRANCH   1   9
BRANCH   2  18
ATOM     18  C   UNL     1       3.241   5.206  18.913  0.00  0.00    +0.000 C 
ATOM     19  C   UNL     1       2.224   4.479  17.971  0.00  0.00    +0.000 C 
ATOM     20  C   UNL     1       2.337   2.991  18.265  0.00  0.00    +0.000 C 
ATOM     21  C   UNL     1       2.984   2.892  19.641  0.00  0.00    +0.000 C 
ATOM     22  C   UNL     1       3.048   4.329  20.171  0.00  0.00    +0.000 C 
BRANCH  18  23
ATOM     23  C   UNL     1       4.660   5.183  18.307  0.00  0.00    +0.000 A 
ATOM     24  C   UNL     1       5.826   5.346  19.076  0.00  0.00    +0.000 A 
ATOM     25  C   UNL     1       7.098   5.220  18.507  0.00  0.00    +0.000 A 
ATOM     26  C   UNL     1       7.235   4.955  17.150  0.00  0.00    +0.000 A 
ATOM     27  C   UNL     1       6.100   4.835  16.357  0.00  0.00    +0.000 A 
ATOM     28  C   UNL     1       4.829   4.956  16.928  0.00  0.00    +0.000 A 
ENDBRANCH  18  23
ENDBRANCH   2  18
TORSDOF 4
ENDMDL
MODEL 6
REMARK VINA RESULT:      -8.3      2.186      3.418
REMARK  Name = 
REMARK  5 active torsions:
REMARK  status: ('A' for Active; 'I' for Inactive)
REMARK    1  A    between atoms: C_1  and  C_2
REMARK    2  A    between atoms: C_4  and  C_5
REMARK    3  A    between atoms: C_9  and  N_10
REMARK    4  A    between atoms: C_11  and  C_13
REMARK    5  A    between atoms: C_13  and  C_14
REMARK                            x       y       z     vdW  Elec       q    Type
REMARK                         _______ _______ _______ _____ _____    ______ ____
ROOT
ATOM      1  N   UNL     1       2.065   7.088  20.235  0.00  0.00    +0.000 N 
ATOM      2  C   UNL     1       2.556   6.758  18.981  0.00  0.00    +0.000 C 
ATOM      3  O   UNL     1       2.502   7.500  17.995  0.00  0.00    +0.000 OA
ATOM      4  H   UNL     1       2.267   6.458  21.003  0.00  0.00    +0.000 HD
ENDROOT
BRANCH   1   9
ATOM      5  C   UNL     1      -0.037  10.156  19.838  0.00  0.00    +0.000 A 
ATOM      6  C   UNL     1      -0.109  10.611  21.160  0.00  0.00    +0.000 A 
ATOM      7  C   UNL     1       0.550   9.933  22.174  0.00  0.00    +0.000 A 
ATOM      8  C   UNL     1       1.282   8.782  21.878  0.00  0.00    +0.000 A 
ATOM      9  C   UNL     1       1.366   8.285  20.571  0.00  0.00    +0.000 A 
ATOM     10  C   UNL     1       0.716   8.998  19.550  0.00  0.00    +0.000 A 
BRANCH   5  14
ATOM     11  C   UNL     1      -2.953  11.026  15.962  0.00  0.00    +0.000 C 
ATOM     12  C   UNL     1      -2.047  11.162  17.120  0.00  0.00    +0.000 A 
ATOM     13  N   UNL     1      -1.618  10.218  17.924  0.00  0.00    +0.000 NA
ATOM     14  C   UNL     1      -0.780  10.873  18.806  0.00  0.00    +0.000 A 
ATOM     15  N   UNL     1      -0.697  12.195  18.580  0.00  0.00    +0.000 NA
ATOM     16  N   UNL     1      -1.496  12.346  17.512  0.00  0.00    +0.000 N 
ATOM     17  H   UNL     1      -1.610  13.267  17.102  0.00  0.00    +0.000 HD
ENDBRANCH   5  14
ENDBRANCH   1   9
BRANCH   2  18
ATOM     18  C   UNL     1       3.276   5.389  18.845  0.00  0.00    +0.000 C 
ATOM     19  C   UNL     1       2.484   4.586  17.761  0.00  0.00    +0.000 C 
ATOM     20  C   UNL     1       2.763   3.112  18.014  0.00  0.00    +0.000 C 
ATOM     21  C   UNL     1       3.252   3.028  19.454  0.00  0.00    +0.000 C 
ATOM     22  C   UNL     1       3.058   4.431  20.038  0.00  0.00    +0.000 C 
BRANCH  18  23
ATOM     23  C   UNL     1       4.746   5.583  18.418  0.00  0.00    +0.000 A 
ATOM     24  C   UNL     1       5.125   5.961  17.118  0.00  0.00    +0.000 A 
ATOM     25  C   UNL     1       6.462   6.224  16.795  0.00  0.00    +0.000 A 
ATOM     26  C   UNL     1       7.454   6.090  17.759  0.00  0.00    +0.000 A 
ATOM     27  C   UNL     1       7.114   5.672  19.040  0.00  0.00    +0.000 A 
ATOM     28  C   UNL     1       5.777   5.415  19.362  0.00  0.00    +0.000 A 
ENDBRANCH  18  23
ENDBRANCH   2  18
TORSDOF 4
ENDMDL
MODEL 7
REMARK VINA RESULT:      -8.2      2.219      3.106
REMARK  Name = 
REMARK  5 active torsions:
REMARK  status: ('A' for Active; 'I' for Inactive)
REMARK    1  A    between atoms: C_1  and  C_2
REMARK    2  A    between atoms: C_4  and  C_5
REMARK    3  A    between atoms: C_9  and  N_10
REMARK    4  A    between atoms: C_11  and  C_13
REMARK    5  A    between atoms: C_13  and  C_14
REMARK                            x       y       z     vdW  Elec       q    Type
REMARK                         _______ _______ _______ _____ _____    ______ ____
ROOT
ATOM      1  N   UNL     1       2.257   7.177  19.411  0.00  0.00    +0.000 N 
ATOM      2  C   UNL     1       2.374   5.873  19.868  0.00  0.00    +0.000 C 
ATOM      3  O   UNL     1       1.854   5.450  20.906  0.00  0.00    +0.000 OA
ATOM      4  H   UNL     1       2.621   7.388  18.488  0.00  0.00    +0.000 HD
ENDROOT
BRANCH   1   9
ATOM      5  C   UNL     1       0.505  10.436  19.956  0.00  0.00    +0.000 A 
ATOM      6  C   UNL     1       0.195  10.354  21.319  0.00  0.00    +0.000 A 
ATOM      7  C   UNL     1       0.582   9.251  22.063  0.00  0.00    +0.000 A 
ATOM      8  C   UNL     1       1.275   8.207  21.449  0.00  0.00    +0.000 A 
ATOM      9  C   UNL     1       1.591   8.242  20.085  0.00  0.00    +0.000 A 
ATOM     10  C   UNL     1       1.216   9.379  19.350  0.00  0.00    +0.000 A 
BRANCH   5  14
ATOM     11  C   UNL     1      -0.169  15.111  18.552  0.00  0.00    +0.000 C 
ATOM     12  C   UNL     1      -0.205  13.638  18.661  0.00  0.00    +0.000 A 
ATOM     13  N   UNL     1       0.462  12.875  19.494  0.00  0.00    +0.000 NA
ATOM     14  C   UNL     1       0.041  11.593  19.198  0.00  0.00    +0.000 A 
ATOM     15  N   UNL     1      -0.851  11.544  18.193  0.00  0.00    +0.000 NA
ATOM     16  N   UNL     1      -0.992  12.843  17.882  0.00  0.00    +0.000 N 
ATOM     17  H   UNL     1      -1.637  13.111  17.148  0.00  0.00    +0.000 HD
ENDBRANCH   5  14
ENDBRANCH   1   9
BRANCH   2  18
ATOM     18  C   UNL     1       3.157   4.879  18.970  0.00  0.00    +0.000 C 
ATOM     19  C   UNL     1       2.236   4.583  17.740  0.00  0.00    +0.000 C 
ATOM     20  C   UNL     1       2.670   3.238  17.177  0.00  0.00    +0.000 C 
ATOM     21  C   UNL     1       3.432   2.549  18.302  0.00  0.00    +0.000 C 
ATOM     22  C   UNL     1       3.247   3.443  19.534  0.00  0.00    +0.000 C 
BRANCH  18  23
ATOM     23  C   UNL     1       4.498   5.491  18.514  0.00  0.00    +0.000 A 
ATOM     24  C   UNL     1       5.705   5.303  19.211  0.00  0.00    +0.000 A 
ATOM     25  C   UNL     1       6.919   5.791  18.713  0.00  0.00    +0.000 A 
ATOM     26  C   UNL     1       6.950   6.501  17.519  0.00  0.00    +0.000 A 
ATOM     27  C   UNL     1       5.766   6.743  16.833  0.00  0.00    +0.000 A 
ATOM     28  C   UNL     1       4.555   6.250  17.329  0.00  0.00    +0.000 A 
ENDBRANCH  18  23
ENDBRANCH   2  18
TORSDOF 4
ENDMDL
MODEL 8
REMARK VINA RESULT:      -8.1      2.582      4.298
REMARK  Name = 
REMARK  5 active torsions:
REMARK  status: ('A' for Active; 'I' for Inactive)
REMARK    1  A    between atoms: C_1  and  C_2
REMARK    2  A    between atoms: C_4  and  C_5
REMARK    3  A    between atoms: C_9  and  N_10
REMARK    4  A    between atoms: C_11  and  C_13
REMARK    5  A    between atoms: C_13  and  C_14
REMARK                            x       y       z     vdW  Elec       q    Type
REMARK                         _______ _______ _______ _____ _____    ______ ____
ROOT
ATOM      1  N   UNL     1       2.633   7.777  18.473  0.00  0.00    +0.000 N 
ATOM      2  C   UNL     1       2.934   6.512  18.955  0.00  0.00    +0.000 C 
ATOM      3  O   UNL     1       2.323   5.953  19.872  0.00  0.00    +0.000 OA
ATOM      4  H   UNL     1       3.117   8.093  17.640  0.00  0.00    +0.000 HD
ENDROOT
BRANCH   1   9
ATOM      5  C   UNL     1      -0.342  10.041  18.580  0.00  0.00    +0.000 A 
ATOM      6  C   UNL     1      -0.419  10.326  19.949  0.00  0.00    +0.000 A 
ATOM      7  C   UNL     1       0.514   9.803  20.830  0.00  0.00    +0.000 A 
ATOM      8  C   UNL     1       1.533   8.976  20.353  0.00  0.00    +0.000 A 
ATOM      9  C   UNL     1       1.636   8.654  18.993  0.00  0.00    +0.000 A 
ATOM     10  C   UNL     1       0.699   9.214  18.109  0.00  0.00    +0.000 A 
BRANCH   5  14
ATOM     11  C   UNL     1      -3.566  10.378  14.868  0.00  0.00    +0.000 C 
ATOM     12  C   UNL     1      -2.733  10.644  16.059  0.00  0.00    +0.000 A 
ATOM     13  N   UNL     1      -1.911   9.823  16.668  0.00  0.00    +0.000 NA
ATOM     14  C   UNL     1      -1.369  10.576  17.692  0.00  0.00    +0.000 A 
ATOM     15  N   UNL     1      -1.849  11.830  17.742  0.00  0.00    +0.000 NA
ATOM     16  N   UNL     1      -2.697  11.847  16.701  0.00  0.00    +0.000 N 
ATOM     17  H   UNL     1      -3.201  12.699  16.483  0.00  0.00    +0.000 HD
ENDBRANCH   5  14
ENDBRANCH   1   9
BRANCH   2  18
ATOM     18  C   UNL     1       4.073   5.738  18.238  0.00  0.00    +0.000 C 
ATOM     19  C   UNL     1       5.395   6.122  18.979  0.00  0.00    +0.000 C 
ATOM     20  C   UNL     1       6.535   5.885  18.000  0.00  0.00    +0.000 C 
ATOM     21  C   UNL     1       5.892   5.869  16.618  0.00  0.00    +0.000 C 
ATOM     22  C   UNL     1       4.433   6.285  16.837  0.00  0.00    +0.000 C 
BRANCH  18  23
ATOM     23  C   UNL     1       3.828   4.216  18.306  0.00  0.00    +0.000 A 
ATOM     24  C   UNL     1       4.438   3.383  19.260  0.00  0.00    +0.000 A 
ATOM     25  C   UNL     1       4.114   2.024  19.353  0.00  0.00    +0.000 A 
ATOM     26  C   UNL     1       3.194   1.461  18.477  0.00  0.00    +0.000 A 
ATOM     27  C   UNL     1       2.612   2.252  17.494  0.00  0.00    +0.000 A 
ATOM     28  C   UNL     1       2.931   3.610  17.405  0.00  0.00    +0.000 A 
ENDBRANCH  18  23
ENDBRANCH   2  18
TORSDOF 4
ENDMDL
MODEL 9
REMARK VINA RESULT:      -8.1      2.425      3.695
REMARK  Name = 
REMARK  5 active torsions:
REMARK  status: ('A' for Active; 'I' for Inactive)
REMARK    1  A    between atoms: C_1  and  C_2
REMARK    2  A    between atoms: C_4  and  C_5
REMARK    3  A    between atoms: C_9  and  N_10
REMARK    4  A    between atoms: C_11  and  C_13
REMARK    5  A    between atoms: C_13  and  C_14
REMARK                            x       y       z     vdW  Elec       q    Type
REMARK                         _______ _______ _______ _____ _____    ______ ____
ROOT
ATOM      1  N   UNL     1       1.014   7.083  21.031  0.00  0.00    +0.000 N 
ATOM      2  C   UNL     1       1.964   6.643  20.122  0.00  0.00    +0.000 C 
ATOM      3  O   UNL     1       2.569   7.380  19.337  0.00  0.00    +0.000 OA
ATOM      4  H   UNL     1       0.665   6.416  21.711  0.00  0.00    +0.000 HD
ENDROOT
BRANCH   1   9
ATOM      5  C   UNL     1      -0.489  10.379  20.099  0.00  0.00    +0.000 A 
ATOM      6  C   UNL     1      -0.510  11.029  21.338  0.00  0.00    +0.000 A 
ATOM      7  C   UNL     1      -0.009  10.404  22.469  0.00  0.00    +0.000 A 
ATOM      8  C   UNL     1       0.510   9.112  22.377  0.00  0.00    +0.000 A 
ATOM      9  C   UNL     1       0.535   8.420  21.159  0.00  0.00    +0.000 A 
ATOM     10  C   UNL     1       0.049   9.077  20.016  0.00  0.00    +0.000 A 
BRANCH   5  14
ATOM     11  C   UNL     1      -3.021  11.135  15.939  0.00  0.00    +0.000 C 
ATOM     12  C   UNL     1      -2.177  11.295  17.141  0.00  0.00    +0.000 A 
ATOM     13  N   UNL     1      -1.928  10.408  18.075  0.00  0.00    +0.000 NA
ATOM     14  C   UNL     1      -1.066  11.053  18.941  0.00  0.00    +0.000 A 
ATOM     15  N   UNL     1      -0.793  12.318  18.576  0.00  0.00    +0.000 NA
ATOM     16  N   UNL     1      -1.498  12.439  17.439  0.00  0.00    +0.000 N 
ATOM     17  H   UNL     1      -1.463  13.310  16.922  0.00  0.00    +0.000 HD
ENDBRANCH   5  14
ENDBRANCH   1   9
BRANCH   2  18
ATOM     18  C   UNL     1       2.324   5.133  20.156  0.00  0.00    +0.000 C 
ATOM     19  C   UNL     1       0.994   4.361  19.872  0.00  0.00    +0.000 C 
ATOM     20  C   UNL     1       1.159   2.967  20.458  0.00  0.00    +0.000 C 
ATOM     21  C   UNL     1       2.291   3.080  21.472  0.00  0.00    +0.000 C 
ATOM     22  C   UNL     1       2.610   4.576  21.569  0.00  0.00    +0.000 C 
BRANCH  18  23
ATOM     23  C   UNL     1       3.390   4.800  19.091  0.00  0.00    +0.000 A 
ATOM     24  C   UNL     1       4.771   4.839  19.348  0.00  0.00    +0.000 A 
ATOM     25  C   UNL     1       5.704   4.433  18.385  0.00  0.00    +0.000 A 
ATOM     26  C   UNL     1       5.277   4.005  17.134  0.00  0.00    +0.000 A 
ATOM     27  C   UNL     1       3.919   4.001  16.836  0.00  0.00    +0.000 A 
ATOM     28  C   UNL     1       2.989   4.401  17.801  0.00  0.00    +0.000 A 
ENDBRANCH  18  23
ENDBRANCH   2  18
TORSDOF 4
ENDMDL
