MODEL 1
REMARK VINA RESULT:      -8.9      0.000      0.000
REMARK  Name = 
REMARK  6 active torsions:
REMARK  status: ('A' for Active; 'I' for Inactive)
REMARK    1  A    between atoms: C_2  and  C_3
REMARK    2  A    between atoms: C_3  and  O_4
REMARK    3  A    between atoms: O_4  and  C_5
REMARK    4  A    between atoms: C_12  and  C_13
REMARK    5  A    between atoms: N_20  and  C_21
REMARK    6  A    between atoms: C_21  and  C_22
REMARK                            x       y       z     vdW  Elec       q    Type
REMARK                         _______ _______ _______ _____ _____    ______ ____
ROOT
ATOM      1  O   UNL     1       2.998   6.468  19.978  0.00  0.00    +0.000 OA
ENDROOT
BRANCH   1   2
ATOM      2  C   UNL     1       2.492   5.188  19.888  0.00  0.00    +0.000 A 
ATOM      3  N   UNL     1       1.348   4.906  20.551  0.00  0.00    +0.000 NA
ATOM      4  C   UNL     1       0.817   3.689  20.401  0.00  0.00    +0.000 A 
ATOM      5  N   UNL     1       1.278   2.699  19.640  0.00  0.00    +0.000 NA
ATOM      6  C   UNL     1       2.421   3.013  19.008  0.00  0.00    +0.000 A 
ATOM      7  S   UNL     1       3.147   1.879  17.975  0.00  0.00    +0.000 S 
ATOM      8  C   UNL     1       4.436   2.937  17.632  0.00  0.00    +0.000 A 
ATOM      9  C   UNL     1       4.333   4.160  18.276  0.00  0.00    +0.000 A 
ATOM     10  C   UNL     1       3.116   4.216  19.083  0.00  0.00    +0.000 A 
BRANCH   9  11
ATOM     11  C   UNL     1       5.385   5.176  18.092  0.00  0.00    +0.000 A 
ATOM     12  C   UNL     1       6.552   5.166  18.876  0.00  0.00    +0.000 A 
ATOM     13  C   UNL     1       7.554   6.125  18.693  0.00  0.00    +0.000 A 
ATOM     14  C   UNL     1       7.424   7.087  17.695  0.00  0.00    +0.000 A 
ATOM     15  C   UNL     1       6.272   7.120  16.918  0.00  0.00    +0.000 A 
ATOM     16  C   UNL     1       5.247   6.196  17.143  0.00  0.00    +0.000 A 
ENDBRANCH   9  11
ENDBRANCH   1   2
BRANCH   1  17
ATOM     17  C   UNL     1       2.411   7.380  19.061  0.00  0.00    +0.000 C 
BRANCH  17  19
ATOM     18  O   UNL     1       1.423   8.320  21.071  0.00  0.00    +0.000 OA
ATOM     19  C   UNL     1       1.623   8.417  19.860  0.00  0.00    +0.000 C 
ATOM     20  N   UNL     1       1.138   9.459  19.089  0.00  0.00    +0.000 N 
ATOM     21  H   UNL     1       1.395   9.515  18.111  0.00  0.00    +0.000 HD
BRANCH  20  22
ATOM     22  C   UNL     1       0.315  10.505  19.636  0.00  0.00    +0.000 C 
BRANCH  22  23
ATOM     23  C   UNL     1      -0.956  10.695  18.848  0.00  0.00    +0.000 A 
ATOM     24  C   UNL     1      -1.963  11.574  19.310  0.00  0.00    +0.000 A 
ATOM     25  C   UNL     1      -3.109  11.820  18.547  0.00  0.00    +0.000 A 
ATOM     26  C   UNL     1      -3.216  11.185  17.329  0.00  0.00    +0.000 A 
ATOM     27  C   UNL     1      -2.255  10.304  16.886  0.00  0.00    +0.000 A 
ATOM     28  C   UNL     1      -1.131  10.023  17.628  0.00  0.00    +0.000 A 
ATOM     29  O   UNL     1      -2.545   9.803  15.654  0.00  0.00    +0.000 OA
ATOM     30  C   UNL     1      -3.725  10.563  15.327  0.00  0.00    +0.000 C 
ATOM     31  O   UNL     1      -4.222  11.351  16.429  0.00  0.00    +0.000 OA
ENDBRANCH  22  23
ENDBRANCH  20  22
ENDBRANCH  17  19
ENDBRANCH   1  17
TORSDOF 6
ENDMDL
MODEL 2
REMARK VINA RESULT:      -8.6      0.784      1.449
REMARK  Name = 
REMARK  6 active torsions:
REMARK  status: ('A' for Active; 'I' for Inactive)
REMARK    1  A    between atoms: C_2  and  C_3
REMARK    2  A    between atoms: C_3  and  O_4
REMARK    3  A    between atoms: O_4  and  C_5
REMARK    4  A    between atoms: C_12  and  C_13
REMARK    5  A    between atoms: N_20  and  C_21
REMARK    6  A    between atoms: C_21  and  C_22
REMARK                            x       y       z     vdW  Elec       q    Type
REMARK                         _______ _______ _______ _____ _____    ______ ____
ROOT
ATOM      1  O   UNL     1       2.959   6.601  19.790  0.00  0.00    +0.000 OA
ENDROOT
BRANCH   1   2
ATOM      2  C   UNL     1       2.485   5.305  19.794  0.00  0.00    +0.000 A 
ATOM      3  N   UNL     1       1.321   5.054  20.434  0.00  0.00    +0.000 NA
ATOM      4  C   UNL     1       0.823   3.815  20.372  0.00  0.00    +0.000 A 
ATOM      5  N   UNL     1       1.337   2.773  19.722  0.00  0.00    +0.000 NA
ATOM      6  C   UNL     1       2.499   3.060  19.110  0.00  0.00    +0.000 A 
ATOM      7  S   UNL     1       3.293   1.857  18.213  0.00  0.00    +0.000 S 
ATOM      8  C   UNL     1       4.572   2.913  17.829  0.00  0.00    +0.000 A 
ATOM      9  C   UNL     1       4.415   4.186  18.356  0.00  0.00    +0.000 A 
ATOM     10  C   UNL     1       3.164   4.282  19.105  0.00  0.00    +0.000 A 
BRANCH   9  11
ATOM     11  C   UNL     1       5.451   5.209  18.124  0.00  0.00    +0.000 A 
ATOM     12  C   UNL     1       6.636   5.227  18.880  0.00  0.00    +0.000 A 
ATOM     13  C   UNL     1       7.624   6.193  18.651  0.00  0.00    +0.000 A 
ATOM     14  C   UNL     1       7.460   7.130  17.636  0.00  0.00    +0.000 A 
ATOM     15  C   UNL     1       6.289   7.135  16.886  0.00  0.00    +0.000 A 
ATOM     16  C   UNL     1       5.280   6.205  17.156  0.00  0.00    +0.000 A 
ENDBRANCH   9  11
ENDBRANCH   1   2
BRANCH   1  17
ATOM     17  C   UNL     1       2.339   7.432  18.819  0.00  0.00    +0.000 C 
BRANCH  17  19
ATOM     18  O   UNL     1       1.389   8.548  20.756  0.00  0.00    +0.000 OA
ATOM     19  C   UNL     1       1.640   8.576  19.551  0.00  0.00    +0.000 C 
ATOM     20  N   UNL     1       1.294   9.632  18.726  0.00  0.00    +0.000 N 
ATOM     21  H   UNL     1       1.589   9.623  17.757  0.00  0.00    +0.000 HD
BRANCH  20  22
ATOM     22  C   UNL     1       0.570  10.780  19.204  0.00  0.00    +0.000 C 
BRANCH  22  23
ATOM     23  C   UNL     1      -0.835  10.829  18.660  0.00  0.00    +0.000 A 
ATOM     24  C   UNL     1      -1.225   9.977  17.601  0.00  0.00    +0.000 A 
ATOM     25  C   UNL     1      -2.547   9.956  17.144  0.00  0.00    +0.000 A 
ATOM     26  C   UNL     1      -3.454  10.784  17.767  0.00  0.00    +0.000 A 
ATOM     27  C   UNL     1      -3.076  11.639  18.777  0.00  0.00    +0.000 A 
ATOM     28  C   UNL     1      -1.777  11.700  19.228  0.00  0.00    +0.000 A 
ATOM     29  O   UNL     1      -4.126  12.355  19.266  0.00  0.00    +0.000 OA
ATOM     30  C   UNL     1      -5.217  11.760  18.536  0.00  0.00    +0.000 C 
ATOM     31  O   UNL     1      -4.786  10.851  17.501  0.00  0.00    +0.000 OA
ENDBRANCH  22  23
ENDBRANCH  20  22
ENDBRANCH  17  19
ENDBRANCH   1  17
TORSDOF 6
ENDMDL
MODEL 3
REMARK VINA RESULT:      -8.3      0.887      1.096
REMARK  Name = 
REMARK  6 active torsions:
REMARK  status: ('A' for Active; 'I' for Inactive)
REMARK    1  A    between atoms: C_2  and  C_3
REMARK    2  A    between atoms: C_3  and  O_4
REMARK    3  A    between atoms: O_4  and  C_5
REMARK    4  A    between atoms: C_12  and  C_13
REMARK    5  A    between atoms: N_20  and  C_21
REMARK    6  A    between atoms: C_21  and  C_22
REMARK                            x       y       z     vdW  Elec       q    Type
REMARK                         _______ _______ _______ _____ _____    ______ ____
ROOT
ATOM      1  O   UNL     1       2.946   6.556  19.852  0.00  0.00    +0.000 OA
ENDROOT
BRANCH   1   2
ATOM      2  C   UNL     1       2.459   5.265  19.817  0.00  0.00    +0.000 A 
ATOM      3  N   UNL     1       1.316   4.996  20.486  0.00  0.00    +0.000 NA
ATOM      4  C   UNL     1       0.804   3.765  20.388  0.00  0.00    +0.000 A 
ATOM      5  N   UNL     1       1.284   2.749  19.676  0.00  0.00    +0.000 NA
ATOM      6  C   UNL     1       2.427   3.052  19.036  0.00  0.00    +0.000 A 
ATOM      7  S   UNL     1       3.176   1.883  18.059  0.00  0.00    +0.000 S 
ATOM      8  C   UNL     1       4.452   2.945  17.676  0.00  0.00    +0.000 A 
ATOM      9  C   UNL     1       4.326   4.194  18.264  0.00  0.00    +0.000 A 
ATOM     10  C   UNL     1       3.103   4.268  19.060  0.00  0.00    +0.000 A 
BRANCH   9  11
ATOM     11  C   UNL     1       5.363   5.217  18.040  0.00  0.00    +0.000 A 
ATOM     12  C   UNL     1       6.569   5.201  18.763  0.00  0.00    +0.000 A 
ATOM     13  C   UNL     1       7.557   6.167  18.541  0.00  0.00    +0.000 A 
ATOM     14  C   UNL     1       7.373   7.141  17.565  0.00  0.00    +0.000 A 
ATOM     15  C   UNL     1       6.182   7.181  16.848  0.00  0.00    +0.000 A 
ATOM     16  C   UNL     1       5.173   6.249  17.113  0.00  0.00    +0.000 A 
ENDBRANCH   9  11
ENDBRANCH   1   2
BRANCH   1  17
ATOM     17  C   UNL     1       1.993   7.513  20.291  0.00  0.00    +0.000 C 
BRANCH  17  19
ATOM     18  O   UNL     1       2.479   8.549  18.148  0.00  0.00    +0.000 OA
ATOM     19  C   UNL     1       1.796   8.536  19.174  0.00  0.00    +0.000 C 
ATOM     20  N   UNL     1       0.797   9.458  19.435  0.00  0.00    +0.000 N 
ATOM     21  H   UNL     1       0.228   9.351  20.265  0.00  0.00    +0.000 HD
BRANCH  20  22
ATOM     22  C   UNL     1       0.496  10.544  18.540  0.00  0.00    +0.000 C 
BRANCH  22  23
ATOM     23  C   UNL     1      -0.958  10.935  18.595  0.00  0.00    +0.000 A 
ATOM     24  C   UNL     1      -1.443  11.753  19.642  0.00  0.00    +0.000 A 
ATOM     25  C   UNL     1      -2.773  12.188  19.658  0.00  0.00    +0.000 A 
ATOM     26  C   UNL     1      -3.586  11.801  18.616  0.00  0.00    +0.000 A 
ATOM     27  C   UNL     1      -3.131  10.979  17.610  0.00  0.00    +0.000 A 
ATOM     28  C   UNL     1      -1.836  10.514  17.584  0.00  0.00    +0.000 A 
ATOM     29  O   UNL     1      -4.088  10.732  16.674  0.00  0.00    +0.000 OA
ATOM     30  C   UNL     1      -5.146  11.592  17.141  0.00  0.00    +0.000 C 
ATOM     31  O   UNL     1      -4.880  12.178  18.433  0.00  0.00    +0.000 OA
ENDBRANCH  22  23
ENDBRANCH  20  22
ENDBRANCH  17  19
ENDBRANCH   1  17
TORSDOF 6
ENDMDL
MODEL 4
REMARK VINA RESULT:      -8.3      1.064      1.069
REMARK  Name = 
REMARK  6 active torsions:
REMARK  status: ('A' for Active; 'I' for Inactive)
REMARK    1  A    between atoms: C_2  and  C_3
REMARK    2  A    between atoms: C_3  and  O_4
REMARK    3  A    between atoms: O_4  and  C_5
REMARK    4  A    between atoms: C_12  and  C_13
REMARK    5  A    between atoms: N_20  and  C_21
REMARK    6  A    between atoms: C_21  and  C_22
REMARK                            x       y       z     vdW  Elec       q    Type
REMARK                         _______ _______ _______ _____ _____    ______ ____
ROOT
ATOM      1  O   UNL     1       3.026   7.129  19.285  0.00  0.00    +0.000 OA
ENDROOT
BRANCH   1   2
ATOM      2  C   UNL     1       2.615   5.880  19.703  0.00  0.00    +0.000 A 
ATOM      3  N   UNL     1       1.385   5.763  20.249  0.00  0.00    +0.000 NA
ATOM      4  C   UNL     1       0.958   4.541  20.583  0.00  0.00    +0.000 A 
ATOM      5  N   UNL     1       1.607   3.390  20.420  0.00  0.00    +0.000 NA
ATOM      6  C   UNL     1       2.830   3.550  19.887  0.00  0.00    +0.000 A 
ATOM      7  S   UNL     1       3.799   2.188  19.587  0.00  0.00    +0.000 S 
ATOM      8  C   UNL     1       5.070   3.156  18.999  0.00  0.00    +0.000 A 
ATOM      9  C   UNL     1       4.781   4.512  19.007  0.00  0.00    +0.000 A 
ATOM     10  C   UNL     1       3.432   4.748  19.517  0.00  0.00    +0.000 A 
BRANCH   9  11
ATOM     11  C   UNL     1       5.792   5.480  18.543  0.00  0.00    +0.000 A 
ATOM     12  C   UNL     1       7.007   5.646  19.229  0.00  0.00    +0.000 A 
ATOM     13  C   UNL     1       7.971   6.558  18.781  0.00  0.00    +0.000 A 
ATOM     14  C   UNL     1       7.751   7.289  17.618  0.00  0.00    +0.000 A 
ATOM     15  C   UNL     1       6.549   7.147  16.932  0.00  0.00    +0.000 A 
ATOM     16  C   UNL     1       5.565   6.278  17.415  0.00  0.00    +0.000 A 
ENDBRANCH   9  11
ENDBRANCH   1   2
BRANCH   1  17
ATOM     17  C   UNL     1       2.452   7.534  18.050  0.00  0.00    +0.000 C 
BRANCH  17  19
ATOM     18  O   UNL     1       2.329   9.911  17.565  0.00  0.00    +0.000 OA
ATOM     19  C   UNL     1       1.914   8.954  18.219  0.00  0.00    +0.000 C 
ATOM     20  N   UNL     1       0.936   9.064  19.193  0.00  0.00    +0.000 N 
ATOM     21  H   UNL     1       0.592   8.227  19.647  0.00  0.00    +0.000 HD
BRANCH  20  22
ATOM     22  C   UNL     1       0.345  10.325  19.554  0.00  0.00    +0.000 C 
BRANCH  22  23
ATOM     23  C   UNL     1      -0.945  10.577  18.815  0.00  0.00    +0.000 A 
ATOM     24  C   UNL     1      -1.896  11.492  19.322  0.00  0.00    +0.000 A 
ATOM     25  C   UNL     1      -3.058  11.794  18.603  0.00  0.00    +0.000 A 
ATOM     26  C   UNL     1      -3.236  11.178  17.384  0.00  0.00    +0.000 A 
ATOM     27  C   UNL     1      -2.331  10.262  16.898  0.00  0.00    +0.000 A 
ATOM     28  C   UNL     1      -1.193   9.926  17.596  0.00  0.00    +0.000 A 
ATOM     29  O   UNL     1      -2.686   9.786  15.674  0.00  0.00    +0.000 OA
ATOM     30  C   UNL     1      -3.843  10.599  15.398  0.00  0.00    +0.000 C 
ATOM     31  O   UNL     1      -4.267  11.395  16.524  0.00  0.00    +0.000 OA
ENDBRANCH  22  23
ENDBRANCH  20  22
ENDBRANCH  17  19
ENDBRANCH   1  17
TORSDOF 6
ENDMDL
MODEL 5
REMARK VINA RESULT:      -8.2      5.169      8.714
REMARK  Name = 
REMARK  6 active torsions:
REMARK  status: ('A' for Active; 'I' for Inactive)
REMARK    1  A    between atoms: C_2  and  C_3
REMARK    2  A    between atoms: C_3  and  O_4
REMARK    3  A    between atoms: O_4  and  C_5
REMARK    4  A    between atoms: C_12  and  C_13
REMARK    5  A    between atoms: N_20  and  C_21
REMARK    6  A    between atoms: C_21  and  C_22
REMARK                            x       y       z     vdW  Elec       q    Type
REMARK                         _______ _______ _______ _____ _____    ______ ____
ROOT
ATOM      1  O   UNL     1       5.680   7.222  17.493  0.00  0.00    +0.000 OA
ENDROOT
BRANCH   1   2
ATOM      2  C   UNL     1       5.490   5.934  17.037  0.00  0.00    +0.000 A 
ATOM      3  N   UNL     1       6.515   5.325  16.400  0.00  0.00    +0.000 NA
ATOM      4  C   UNL     1       6.357   4.051  16.028  0.00  0.00    +0.000 A 
ATOM      5  N   UNL     1       5.291   3.280  16.231  0.00  0.00    +0.000 NA
ATOM      6  C   UNL     1       4.291   3.924  16.855  0.00  0.00    +0.000 A 
ATOM      7  S   UNL     1       2.856   3.093  17.219  0.00  0.00    +0.000 S 
ATOM      8  C   UNL     1       2.160   4.487  17.906  0.00  0.00    +0.000 A 
ATOM      9  C   UNL     1       2.999   5.591  17.886  0.00  0.00    +0.000 A 
ATOM     10  C   UNL     1       4.283   5.250  17.277  0.00  0.00    +0.000 A 
BRANCH   9  11
ATOM     11  C   UNL     1       2.530   6.878  18.430  0.00  0.00    +0.000 A 
ATOM     12  C   UNL     1       2.388   8.008  17.605  0.00  0.00    +0.000 A 
ATOM     13  C   UNL     1       1.932   9.226  18.121  0.00  0.00    +0.000 A 
ATOM     14  C   UNL     1       1.573   9.324  19.462  0.00  0.00    +0.000 A 
ATOM     15  C   UNL     1       1.718   8.221  20.296  0.00  0.00    +0.000 A 
ATOM     16  C   UNL     1       2.229   7.022  19.790  0.00  0.00    +0.000 A 
ENDBRANCH   9  11
ENDBRANCH   1   2
BRANCH   1  17
ATOM     17  C   UNL     1       6.805   7.871  16.917  0.00  0.00    +0.000 C 
BRANCH  17  19
ATOM     18  O   UNL     1       8.267   7.142  18.715  0.00  0.00    +0.000 OA
ATOM     19  C   UNL     1       7.853   8.064  18.011  0.00  0.00    +0.000 C 
ATOM     20  N   UNL     1       8.274   9.375  18.150  0.00  0.00    +0.000 N 
ATOM     21  H   UNL     1       7.946  10.074  17.495  0.00  0.00    +0.000 HD
BRANCH  20  22
ATOM     22  C   UNL     1       9.210   9.782  19.166  0.00  0.00    +0.000 C 
BRANCH  22  23
ATOM     23  C   UNL     1       9.681  11.200  18.964  0.00  0.00    +0.000 A 
ATOM     24  C   UNL     1       9.507  12.165  19.982  0.00  0.00    +0.000 A 
ATOM     25  C   UNL     1      10.014  13.462  19.839  0.00  0.00    +0.000 A 
ATOM     26  C   UNL     1      10.693  13.759  18.678  0.00  0.00    +0.000 A 
ATOM     27  C   UNL     1      10.839  12.834  17.669  0.00  0.00    +0.000 A 
ATOM     28  C   UNL     1      10.328  11.561  17.773  0.00  0.00    +0.000 A 
ATOM     29  O   UNL     1      11.557  13.324  16.621  0.00  0.00    +0.000 OA
ATOM     30  C   UNL     1      11.946  14.610  17.143  0.00  0.00    +0.000 C 
ATOM     31  O   UNL     1      11.305  14.939  18.393  0.00  0.00    +0.000 OA
ENDBRANCH  22  23
ENDBRANCH  20  22
ENDBRANCH  17  19
ENDBRANCH   1  17
TORSDOF 6
ENDMDL
MODEL 6
REMARK VINA RESULT:      -8.1      5.118      8.623
REMARK  Name = 
REMARK  6 active torsions:
REMARK  status: ('A' for Active; 'I' for Inactive)
REMARK    1  A    between atoms: C_2  and  C_3
REMARK    2  A    between atoms: C_3  and  O_4
REMARK    3  A    between atoms: O_4  and  C_5
REMARK    4  A    between atoms: C_12  and  C_13
REMARK    5  A    between atoms: N_20  and  C_21
REMARK    6  A    between atoms: C_21  and  C_22
REMARK                            x       y       z     vdW  Elec       q    Type
REMARK                         _______ _______ _______ _____ _____    ______ ____
ROOT
ATOM      1  O   UNL     1       5.720   7.234  17.485  0.00  0.00    +0.000 OA
ENDROOT
BRANCH   1   2
ATOM      2  C   UNL     1       5.530   5.943  17.040  0.00  0.00    +0.000 A 
ATOM      3  N   UNL     1       6.560   5.323  16.421  0.00  0.00    +0.000 NA
ATOM      4  C   UNL     1       6.401   4.046  16.059  0.00  0.00    +0.000 A 
ATOM      5  N   UNL     1       5.329   3.282  16.257  0.00  0.00    +0.000 NA
ATOM      6  C   UNL     1       4.324   3.937  16.863  0.00  0.00    +0.000 A 
ATOM      7  S   UNL     1       2.881   3.115  17.217  0.00  0.00    +0.000 S 
ATOM      8  C   UNL     1       2.183   4.519  17.882  0.00  0.00    +0.000 A 
ATOM      9  C   UNL     1       3.027   5.619  17.861  0.00  0.00    +0.000 A 
ATOM     10  C   UNL     1       4.317   5.266  17.272  0.00  0.00    +0.000 A 
BRANCH   9  11
ATOM     11  C   UNL     1       2.557   6.913  18.387  0.00  0.00    +0.000 A 
ATOM     12  C   UNL     1       2.442   8.038  17.552  0.00  0.00    +0.000 A 
ATOM     13  C   UNL     1       1.985   9.264  18.051  0.00  0.00    +0.000 A 
ATOM     14  C   UNL     1       1.599   9.374  19.383  0.00  0.00    +0.000 A 
ATOM     15  C   UNL     1       1.717   8.275  20.227  0.00  0.00    +0.000 A 
ATOM     16  C   UNL     1       2.229   7.068  19.739  0.00  0.00    +0.000 A 
ENDBRANCH   9  11
ENDBRANCH   1   2
BRANCH   1  17
ATOM     17  C   UNL     1       6.846   7.878  16.905  0.00  0.00    +0.000 C 
BRANCH  17  19
ATOM     18  O   UNL     1       8.313   7.224  18.727  0.00  0.00    +0.000 OA
ATOM     19  C   UNL     1       7.874   8.122  18.008  0.00  0.00    +0.000 C 
ATOM     20  N   UNL     1       8.245   9.450  18.136  0.00  0.00    +0.000 N 
ATOM     21  H   UNL     1       7.898  10.129  17.470  0.00  0.00    +0.000 HD
BRANCH  20  22
ATOM     22  C   UNL     1       9.153   9.902  19.157  0.00  0.00    +0.000 C 
BRANCH  22  23
ATOM     23  C   UNL     1       9.710  11.269  18.852  0.00  0.00    +0.000 A 
ATOM     24  C   UNL     1      10.487  11.485  17.691  0.00  0.00    +0.000 A 
ATOM     25  C   UNL     1      10.940  12.766  17.355  0.00  0.00    +0.000 A 
ATOM     26  C   UNL     1      10.594  13.806  18.189  0.00  0.00    +0.000 A 
ATOM     27  C   UNL     1       9.865  13.600  19.339  0.00  0.00    +0.000 A 
ATOM     28  C   UNL     1       9.430  12.347  19.707  0.00  0.00    +0.000 A 
ATOM     29  O   UNL     1       9.619  14.759  20.008  0.00  0.00    +0.000 OA
ATOM     30  C   UNL     1      10.165  15.721  19.084  0.00  0.00    +0.000 C 
ATOM     31  O   UNL     1      10.889  15.119  17.991  0.00  0.00    +0.000 OA
ENDBRANCH  22  23
ENDBRANCH  20  22
ENDBRANCH  17  19
ENDBRANCH   1  17
TORSDOF 6
ENDMDL
MODEL 7
REMARK VINA RESULT:      -8.1      5.146      8.516
REMARK  Name = 
REMARK  6 active torsions:
REMARK  status: ('A' for Active; 'I' for Inactive)
REMARK    1  A    between atoms: C_2  and  C_3
REMARK    2  A    between atoms: C_3  and  O_4
REMARK    3  A    between atoms: O_4  and  C_5
REMARK    4  A    between atoms: C_12  and  C_13
REMARK    5  A    between atoms: N_20  and  C_21
REMARK    6  A    between atoms: C_21  and  C_22
REMARK                            x       y       z     vdW  Elec       q    Type
REMARK                         _______ _______ _______ _____ _____    ______ ____
ROOT
ATOM      1  O   UNL     1       5.718   7.256  17.586  0.00  0.00    +0.000 OA
ENDROOT
BRANCH   1   2
ATOM      2  C   UNL     1       5.558   5.970  17.113  0.00  0.00    +0.000 A 
ATOM      3  N   UNL     1       6.609   5.378  16.503  0.00  0.00    +0.000 NA
ATOM      4  C   UNL     1       6.477   4.106  16.115  0.00  0.00    +0.000 A 
ATOM      5  N   UNL     1       5.415   3.322  16.277  0.00  0.00    +0.000 NA
ATOM      6  C   UNL     1       4.388   3.950  16.875  0.00  0.00    +0.000 A 
ATOM      7  S   UNL     1       2.951   3.099  17.185  0.00  0.00    +0.000 S 
ATOM      8  C   UNL     1       2.218   4.479  17.862  0.00  0.00    +0.000 A 
ATOM      9  C   UNL     1       3.045   5.592  17.878  0.00  0.00    +0.000 A 
ATOM     10  C   UNL     1       4.351   5.271  17.308  0.00  0.00    +0.000 A 
BRANCH   9  11
ATOM     11  C   UNL     1       2.544   6.869  18.418  0.00  0.00    +0.000 A 
ATOM     12  C   UNL     1       2.220   7.006  19.779  0.00  0.00    +0.000 A 
ATOM     13  C   UNL     1       1.755   8.223  20.292  0.00  0.00    +0.000 A 
ATOM     14  C   UNL     1       1.643   9.332  19.459  0.00  0.00    +0.000 A 
ATOM     15  C   UNL     1       1.947   9.213  18.108  0.00  0.00    +0.000 A 
ATOM     16  C   UNL     1       2.356   7.981  17.588  0.00  0.00    +0.000 A 
ENDBRANCH   9  11
ENDBRANCH   1   2
BRANCH   1  17
ATOM     17  C   UNL     1       6.749   7.981  16.930  0.00  0.00    +0.000 C 
BRANCH  17  19
ATOM     18  O   UNL     1       8.357   7.404  18.657  0.00  0.00    +0.000 OA
ATOM     19  C   UNL     1       7.847   8.275  17.951  0.00  0.00    +0.000 C 
ATOM     20  N   UNL     1       8.193   9.613  18.022  0.00  0.00    +0.000 N 
ATOM     21  H   UNL     1       7.785  10.268  17.367  0.00  0.00    +0.000 HD
BRANCH  20  22
ATOM     22  C   UNL     1       9.160  10.111  18.966  0.00  0.00    +0.000 C 
BRANCH  22  23
ATOM     23  C   UNL     1       9.723  11.445  18.546  0.00  0.00    +0.000 A 
ATOM     24  C   UNL     1      10.945  11.518  17.838  0.00  0.00    +0.000 A 
ATOM     25  C   UNL     1      11.435  12.743  17.373  0.00  0.00    +0.000 A 
ATOM     26  C   UNL     1      10.682  13.870  17.621  0.00  0.00    +0.000 A 
ATOM     27  C   UNL     1       9.508  13.811  18.337  0.00  0.00    +0.000 A 
ATOM     28  C   UNL     1       9.016  12.624  18.829  0.00  0.00    +0.000 A 
ATOM     29  O   UNL     1       8.914  15.031  18.452  0.00  0.00    +0.000 OA
ATOM     30  C   UNL     1       9.782  15.829  17.624  0.00  0.00    +0.000 C 
ATOM     31  O   UNL     1      10.967  15.129  17.193  0.00  0.00    +0.000 OA
ENDBRANCH  22  23
ENDBRANCH  20  22
ENDBRANCH  17  19
ENDBRANCH   1  17
TORSDOF 6
ENDMDL
MODEL 8
REMARK VINA RESULT:      -8.0      4.228      7.948
REMARK  Name = 
REMARK  6 active torsions:
REMARK  status: ('A' for Active; 'I' for Inactive)
REMARK    1  A    between atoms: C_2  and  C_3
REMARK    2  A    between atoms: C_3  and  O_4
REMARK    3  A    between atoms: O_4  and  C_5
REMARK    4  A    between atoms: C_12  and  C_13
REMARK    5  A    between atoms: N_20  and  C_21
REMARK    6  A    between atoms: C_21  and  C_22
REMARK                            x       y       z     vdW  Elec       q    Type
REMARK                         _______ _______ _______ _____ _____    ______ ____
ROOT
ATOM      1  O   UNL     1       5.158   5.823  18.860  0.00  0.00    +0.000 OA
ENDROOT
BRANCH   1   2
ATOM      2  C   UNL     1       4.641   4.628  19.315  0.00  0.00    +0.000 A 
ATOM      3  N   UNL     1       5.453   3.548  19.333  0.00  0.00    +0.000 NA
ATOM      4  C   UNL     1       4.975   2.409  19.846  0.00  0.00    +0.000 A 
ATOM      5  N   UNL     1       3.770   2.209  20.374  0.00  0.00    +0.000 NA
ATOM      6  C   UNL     1       2.989   3.302  20.326  0.00  0.00    +0.000 A 
ATOM      7  S   UNL     1       1.421   3.242  20.974  0.00  0.00    +0.000 S 
ATOM      8  C   UNL     1       1.118   4.857  20.529  0.00  0.00    +0.000 A 
ATOM      9  C   UNL     1       2.193   5.469  19.902  0.00  0.00    +0.000 A 
ATOM     10  C   UNL     1       3.322   4.546  19.799  0.00  0.00    +0.000 A 
BRANCH   9  11
ATOM     11  C   UNL     1       2.076   6.864  19.441  0.00  0.00    +0.000 A 
ATOM     12  C   UNL     1       2.426   7.229  18.130  0.00  0.00    +0.000 A 
ATOM     13  C   UNL     1       2.304   8.553  17.691  0.00  0.00    +0.000 A 
ATOM     14  C   UNL     1       1.793   9.525  18.545  0.00  0.00    +0.000 A 
ATOM     15  C   UNL     1       1.452   9.186  19.850  0.00  0.00    +0.000 A 
ATOM     16  C   UNL     1       1.630   7.875  20.302  0.00  0.00    +0.000 A 
ENDBRANCH   9  11
ENDBRANCH   1   2
BRANCH   1  17
ATOM     17  C   UNL     1       6.557   5.785  18.618  0.00  0.00    +0.000 C 
BRANCH  17  19
ATOM     18  O   UNL     1       6.463   6.967  16.498  0.00  0.00    +0.000 OA
ATOM     19  C   UNL     1       6.903   6.912  17.647  0.00  0.00    +0.000 C 
ATOM     20  N   UNL     1       7.776   7.849  18.173  0.00  0.00    +0.000 N 
ATOM     21  H   UNL     1       8.048   7.784  19.146  0.00  0.00    +0.000 HD
BRANCH  20  22
ATOM     22  C   UNL     1       8.278   8.955  17.400  0.00  0.00    +0.000 C 
BRANCH  22  23
ATOM     23  C   UNL     1       8.693  10.111  18.274  0.00  0.00    +0.000 A 
ATOM     24  C   UNL     1       9.181   9.885  19.582  0.00  0.00    +0.000 A 
ATOM     25  C   UNL     1       9.646  10.944  20.370  0.00  0.00    +0.000 A 
ATOM     26  C   UNL     1       9.621  12.208  19.824  0.00  0.00    +0.000 A 
ATOM     27  C   UNL     1       9.118  12.441  18.564  0.00  0.00    +0.000 A 
ATOM     28  C   UNL     1       8.630  11.423  17.777  0.00  0.00    +0.000 A 
ATOM     29  O   UNL     1       9.202  13.753  18.210  0.00  0.00    +0.000 OA
ATOM     30  C   UNL     1       9.925  14.287  19.337  0.00  0.00    +0.000 C 
ATOM     31  O   UNL     1      10.087  13.340  20.414  0.00  0.00    +0.000 OA
ENDBRANCH  22  23
ENDBRANCH  20  22
ENDBRANCH  17  19
ENDBRANCH   1  17
TORSDOF 6
ENDMDL
MODEL 9
REMARK VINA RESULT:      -8.0      1.607      1.767
REMARK  Name = 
REMARK  6 active torsions:
REMARK  status: ('A' for Active; 'I' for Inactive)
REMARK    1  A    between atoms: C_2  and  C_3
REMARK    2  A    between atoms: C_3  and  O_4
REMARK    3  A    between atoms: O_4  and  C_5
REMARK    4  A    between atoms: C_12  and  C_13
REMARK    5  A    between atoms: N_20  and  C_21
REMARK    6  A    between atoms: C_21  and  C_22
REMARK                            x       y       z     vdW  Elec       q    Type
REMARK                         _______ _______ _______ _____ _____    ______ ____
ROOT
ATOM      1  O   UNL     1       3.450   7.071  18.318  0.00  0.00    +0.000 OA
ENDROOT
BRANCH   1   2
ATOM      2  C   UNL     1       2.903   6.165  19.203  0.00  0.00    +0.000 A 
ATOM      3  N   UNL     1       2.044   6.625  20.139  0.00  0.00    +0.000 NA
ATOM      4  C   UNL     1       1.455   5.737  20.945  0.00  0.00    +0.000 A 
ATOM      5  N   UNL     1       1.600   4.414  20.926  0.00  0.00    +0.000 NA
ATOM      6  C   UNL     1       2.471   3.997  19.991  0.00  0.00    +0.000 A 
ATOM      7  S   UNL     1       2.769   2.335  19.804  0.00  0.00    +0.000 S 
ATOM      8  C   UNL     1       3.898   2.623  18.563  0.00  0.00    +0.000 A 
ATOM      9  C   UNL     1       4.057   3.968  18.261  0.00  0.00    +0.000 A 
ATOM     10  C   UNL     1       3.187   4.789  19.100  0.00  0.00    +0.000 A 
BRANCH   9  11
ATOM     11  C   UNL     1       5.016   4.376  17.219  0.00  0.00    +0.000 A 
ATOM     12  C   UNL     1       6.305   4.828  17.553  0.00  0.00    +0.000 A 
ATOM     13  C   UNL     1       7.217   5.206  16.561  0.00  0.00    +0.000 A 
ATOM     14  C   UNL     1       6.869   5.100  15.217  0.00  0.00    +0.000 A 
ATOM     15  C   UNL     1       5.595   4.667  14.868  0.00  0.00    +0.000 A 
ATOM     16  C   UNL     1       4.666   4.346  15.863  0.00  0.00    +0.000 A 
ENDBRANCH   9  11
ENDBRANCH   1   2
BRANCH   1  17
ATOM     17  C   UNL     1       2.507   7.626  17.413  0.00  0.00    +0.000 C 
BRANCH  17  19
ATOM     18  O   UNL     1       2.796  10.036  17.500  0.00  0.00    +0.000 OA
ATOM     19  C   UNL     1       2.176   9.042  17.880  0.00  0.00    +0.000 C 
ATOM     20  N   UNL     1       1.132   9.097  18.787  0.00  0.00    +0.000 N 
ATOM     21  H   UNL     1       0.620   8.251  19.007  0.00  0.00    +0.000 HD
BRANCH  20  22
ATOM     22  C   UNL     1       0.705  10.328  19.399  0.00  0.00    +0.000 C 
BRANCH  22  23
ATOM     23  C   UNL     1      -0.702  10.697  19.004  0.00  0.00    +0.000 A 
ATOM     24  C   UNL     1      -1.450  11.612  19.781  0.00  0.00    +0.000 A 
ATOM     25  C   UNL     1      -2.725  12.024  19.379  0.00  0.00    +0.000 A 
ATOM     26  C   UNL     1      -3.220  11.515  18.199  0.00  0.00    +0.000 A 
ATOM     27  C   UNL     1      -2.512  10.599  17.453  0.00  0.00    +0.000 A 
ATOM     28  C   UNL     1      -1.268  10.157  17.839  0.00  0.00    +0.000 A 
ATOM     29  O   UNL     1      -3.172  10.239  16.318  0.00  0.00    +0.000 OA
ATOM     30  C   UNL     1      -4.308  11.124  16.378  0.00  0.00    +0.000 C 
ATOM     31  O   UNL     1      -4.406  11.848  17.623  0.00  0.00    +0.000 OA
ENDBRANCH  22  23
ENDBRANCH  20  22
ENDBRANCH  17  19
ENDBRANCH   1  17
TORSDOF 6
ENDMDL
