MODEL 1
REMARK VINA RESULT:      -7.9      0.000      0.000
REMARK  Name = 
REMARK  6 active torsions:
REMARK  status: ('A' for Active; 'I' for Inactive)
REMARK    1  A    between atoms: C_2  and  C_3
REMARK    2  A    between atoms: C_8  and  C_9
REMARK    3  A    between atoms: C_9  and  N_10
REMARK    4  A    between atoms: C_14  and  C_15
REMARK    5  A    between atoms: C_14  and  C_22
REMARK    6  A    between atoms: C_15  and  C_16
REMARK                            x       y       z     vdW  Elec       q    Type
REMARK                         _______ _______ _______ _____ _____    ______ ____
ROOT
ATOM      1  N   UNL     1       1.755   8.681  19.270  0.00  0.00    +0.000 N 
ATOM      2  C   UNL     1       2.099   9.043  18.006  0.00  0.00    +0.000 C 
ATOM      3  O   UNL     1       2.160  10.169  17.547  0.00  0.00    +0.000 OA
ATOM      4  N   UNL     1       2.444   7.913  17.298  0.00  0.00    +0.000 N 
ATOM      5  C   UNL     1       2.587   6.737  18.142  0.00  0.00    +0.000 C 
ATOM      6  C   UNL     1       2.049   7.358  19.472  0.00  0.00    +0.000 C 
ATOM      7  O   UNL     1       1.912   6.753  20.528  0.00  0.00    +0.000 OA
ATOM      8  H   UNL     1       2.894   8.005  16.396  0.00  0.00    +0.000 HD
ENDROOT
BRANCH   5   9
ATOM      9  C   UNL     1       4.066   6.339  18.267  0.00  0.00    +0.000 A 
ATOM     10  C   UNL     1       5.004   6.699  17.274  0.00  0.00    +0.000 A 
ATOM     11  C   UNL     1       6.340   6.289  17.343  0.00  0.00    +0.000 A 
ATOM     12  C   UNL     1       6.777   5.509  18.406  0.00  0.00    +0.000 A 
ATOM     13  C   UNL     1       5.884   5.159  19.412  0.00  0.00    +0.000 A 
ATOM     14  C   UNL     1       4.553   5.587  19.351  0.00  0.00    +0.000 A 
ENDBRANCH   5   9
BRANCH   1  15
ATOM     15  C   UNL     1       1.297   9.622  20.282  0.00  0.00    +0.000 C 
BRANCH  15  21
ATOM     16  C   UNL     1       0.383  12.000  19.803  0.00  0.00    +0.000 A 
ATOM     17  C   UNL     1      -0.593  12.828  19.218  0.00  0.00    +0.000 A 
ATOM     18  C   UNL     1      -1.742  12.281  18.651  0.00  0.00    +0.000 A 
ATOM     19  C   UNL     1      -1.931  10.905  18.676  0.00  0.00    +0.000 A 
ATOM     20  C   UNL     1      -0.946  10.071  19.210  0.00  0.00    +0.000 A 
ATOM     21  C   UNL     1       0.246  10.596  19.749  0.00  0.00    +0.000 A 
BRANCH  16  23
ATOM     22  N   UNL     1       2.247  13.182  21.170  0.00  0.00    +0.000 NA
ATOM     23  C   UNL     1       1.444  12.651  20.522  0.00  0.00    +0.000 C 
ENDBRANCH  16  23
ENDBRANCH  15  21
ENDBRANCH   1  15
BRANCH   5  24
ATOM     24  C   UNL     1       1.594   5.607  17.725  0.00  0.00    +0.000 C 
BRANCH  24  25
ATOM     25  C   UNL     1       1.941   4.182  18.132  0.00  0.00    +0.000 A 
ATOM     26  C   UNL     1       1.444   3.632  19.327  0.00  0.00    +0.000 A 
ATOM     27  C   UNL     1       1.766   2.326  19.706  0.00  0.00    +0.000 A 
ATOM     28  C   UNL     1       2.571   1.543  18.884  0.00  0.00    +0.000 A 
ATOM     29  C   UNL     1       3.043   2.059  17.682  0.00  0.00    +0.000 A 
ATOM     30  C   UNL     1       2.723   3.365  17.304  0.00  0.00    +0.000 A 
ENDBRANCH  24  25
ENDBRANCH   5  24
TORSDOF 6
ENDMDL
MODEL 2
REMARK VINA RESULT:      -7.9      1.856      7.375
REMARK  Name = 
REMARK  6 active torsions:
REMARK  status: ('A' for Active; 'I' for Inactive)
REMARK    1  A    between atoms: C_2  and  C_3
REMARK    2  A    between atoms: C_8  and  C_9
REMARK    3  A    between atoms: C_9  and  N_10
REMARK    4  A    between atoms: C_14  and  C_15
REMARK    5  A    between atoms: C_14  and  C_22
REMARK    6  A    between atoms: C_15  and  C_16
REMARK                            x       y       z     vdW  Elec       q    Type
REMARK                         _______ _______ _______ _____ _____    ______ ____
ROOT
ATOM      1  N   UNL     1       1.927   7.945  19.851  0.00  0.00    +0.000 N 
ATOM      2  C   UNL     1       1.053   8.389  20.793  0.00  0.00    +0.000 C 
ATOM      3  O   UNL     1       0.952   8.014  21.946  0.00  0.00    +0.000 OA
ATOM      4  N   UNL     1       0.304   9.413  20.257  0.00  0.00    +0.000 N 
ATOM      5  C   UNL     1       0.816   9.881  18.979  0.00  0.00    +0.000 C 
ATOM      6  C   UNL     1       1.904   8.780  18.764  0.00  0.00    +0.000 C 
ATOM      7  O   UNL     1       2.623   8.681  17.777  0.00  0.00    +0.000 OA
ATOM      8  H   UNL     1      -0.274   9.981  20.863  0.00  0.00    +0.000 HD
ENDROOT
BRANCH   5   9
ATOM      9  C   UNL     1       1.448  11.274  19.127  0.00  0.00    +0.000 A 
ATOM     10  C   UNL     1       1.328  12.005  20.330  0.00  0.00    +0.000 A 
ATOM     11  C   UNL     1       1.843  13.299  20.458  0.00  0.00    +0.000 A 
ATOM     12  C   UNL     1       2.495  13.899  19.389  0.00  0.00    +0.000 A 
ATOM     13  C   UNL     1       2.652  13.197  18.199  0.00  0.00    +0.000 A 
ATOM     14  C   UNL     1       2.152  11.895  18.081  0.00  0.00    +0.000 A 
ENDBRANCH   5   9
BRANCH   1  15
ATOM     15  C   UNL     1       2.848   6.838  20.063  0.00  0.00    +0.000 C 
BRANCH  15  21
ATOM     16  C   UNL     1       2.727   4.824  18.437  0.00  0.00    +0.000 A 
ATOM     17  C   UNL     1       2.209   3.556  18.115  0.00  0.00    +0.000 A 
ATOM     18  C   UNL     1       1.197   2.986  18.884  0.00  0.00    +0.000 A 
ATOM     19  C   UNL     1       0.686   3.683  19.972  0.00  0.00    +0.000 A 
ATOM     20  C   UNL     1       1.226   4.921  20.328  0.00  0.00    +0.000 A 
ATOM     21  C   UNL     1       2.281   5.499  19.594  0.00  0.00    +0.000 A 
BRANCH  16  23
ATOM     22  N   UNL     1       4.419   5.914  16.797  0.00  0.00    +0.000 NA
ATOM     23  C   UNL     1       3.636   5.416  17.493  0.00  0.00    +0.000 C 
ENDBRANCH  16  23
ENDBRANCH  15  21
ENDBRANCH   1  15
BRANCH   5  24
ATOM     24  C   UNL     1      -0.241   9.714  17.841  0.00  0.00    +0.000 C 
BRANCH  24  25
ATOM     25  C   UNL     1      -1.611  10.342  18.057  0.00  0.00    +0.000 A 
ATOM     26  C   UNL     1      -1.749  11.537  18.786  0.00  0.00    +0.000 A 
ATOM     27  C   UNL     1      -3.006  12.112  18.992  0.00  0.00    +0.000 A 
ATOM     28  C   UNL     1      -4.140  11.515  18.450  0.00  0.00    +0.000 A 
ATOM     29  C   UNL     1      -4.018  10.352  17.697  0.00  0.00    +0.000 A 
ATOM     30  C   UNL     1      -2.762   9.775  17.494  0.00  0.00    +0.000 A 
ENDBRANCH  24  25
ENDBRANCH   5  24
TORSDOF 6
ENDMDL
MODEL 3
REMARK VINA RESULT:      -7.9      1.765      3.883
REMARK  Name = 
REMARK  6 active torsions:
REMARK  status: ('A' for Active; 'I' for Inactive)
REMARK    1  A    between atoms: C_2  and  C_3
REMARK    2  A    between atoms: C_8  and  C_9
REMARK    3  A    between atoms: C_9  and  N_10
REMARK    4  A    between atoms: C_14  and  C_15
REMARK    5  A    between atoms: C_14  and  C_22
REMARK    6  A    between atoms: C_15  and  C_16
REMARK                            x       y       z     vdW  Elec       q    Type
REMARK                         _______ _______ _______ _____ _____    ______ ____
ROOT
ATOM      1  N   UNL     1       1.265   8.675  19.630  0.00  0.00    +0.000 N 
ATOM      2  C   UNL     1       1.449   8.181  20.883  0.00  0.00    +0.000 C 
ATOM      3  O   UNL     1       0.896   8.534  21.908  0.00  0.00    +0.000 OA
ATOM      4  N   UNL     1       2.343   7.135  20.821  0.00  0.00    +0.000 N 
ATOM      5  C   UNL     1       2.623   6.708  19.459  0.00  0.00    +0.000 C 
ATOM      6  C   UNL     1       1.871   7.857  18.712  0.00  0.00    +0.000 C 
ATOM      7  O   UNL     1       1.832   8.001  17.496  0.00  0.00    +0.000 OA
ATOM      8  H   UNL     1       2.466   6.534  21.626  0.00  0.00    +0.000 HD
ENDROOT
BRANCH   5   9
ATOM      9  C   UNL     1       1.980   5.341  19.179  0.00  0.00    +0.000 A 
ATOM     10  C   UNL     1       1.552   4.505  20.235  0.00  0.00    +0.000 A 
ATOM     11  C   UNL     1       1.023   3.233  19.996  0.00  0.00    +0.000 A 
ATOM     12  C   UNL     1       0.905   2.758  18.696  0.00  0.00    +0.000 A 
ATOM     13  C   UNL     1       1.293   3.566  17.634  0.00  0.00    +0.000 A 
ATOM     14  C   UNL     1       1.804   4.847  17.874  0.00  0.00    +0.000 A 
ENDBRANCH   5   9
BRANCH   1  15
ATOM     15  C   UNL     1       0.413   9.816  19.330  0.00  0.00    +0.000 C 
BRANCH  15  21
ATOM     16  C   UNL     1       1.132  12.014  20.502  0.00  0.00    +0.000 A 
ATOM     17  C   UNL     1       1.915  13.183  20.508  0.00  0.00    +0.000 A 
ATOM     18  C   UNL     1       2.669  13.540  19.392  0.00  0.00    +0.000 A 
ATOM     19  C   UNL     1       2.635  12.741  18.257  0.00  0.00    +0.000 A 
ATOM     20  C   UNL     1       1.899  11.553  18.257  0.00  0.00    +0.000 A 
ATOM     21  C   UNL     1       1.164  11.146  19.388  0.00  0.00    +0.000 A 
BRANCH  16  23
ATOM     22  N   UNL     1      -0.396  11.656  22.570  0.00  0.00    +0.000 NA
ATOM     23  C   UNL     1       0.249  11.814  21.618  0.00  0.00    +0.000 C 
ENDBRANCH  16  23
ENDBRANCH  15  21
ENDBRANCH   1  15
BRANCH   5  24
ATOM     24  C   UNL     1       4.139   6.848  19.115  0.00  0.00    +0.000 C 
BRANCH  24  25
ATOM     25  C   UNL     1       4.664   6.060  17.922  0.00  0.00    +0.000 A 
ATOM     26  C   UNL     1       4.764   6.657  16.652  0.00  0.00    +0.000 A 
ATOM     27  C   UNL     1       5.239   5.934  15.554  0.00  0.00    +0.000 A 
ATOM     28  C   UNL     1       5.644   4.613  15.715  0.00  0.00    +0.000 A 
ATOM     29  C   UNL     1       5.584   4.017  16.971  0.00  0.00    +0.000 A 
ATOM     30  C   UNL     1       5.106   4.739  18.068  0.00  0.00    +0.000 A 
ENDBRANCH  24  25
ENDBRANCH   5  24
TORSDOF 6
ENDMDL
MODEL 4
REMARK VINA RESULT:      -7.8      1.840      7.334
REMARK  Name = 
REMARK  6 active torsions:
REMARK  status: ('A' for Active; 'I' for Inactive)
REMARK    1  A    between atoms: C_2  and  C_3
REMARK    2  A    between atoms: C_8  and  C_9
REMARK    3  A    between atoms: C_9  and  N_10
REMARK    4  A    between atoms: C_14  and  C_15
REMARK    5  A    between atoms: C_14  and  C_22
REMARK    6  A    between atoms: C_15  and  C_16
REMARK                            x       y       z     vdW  Elec       q    Type
REMARK                         _______ _______ _______ _____ _____    ______ ____
ROOT
ATOM      1  N   UNL     1       1.904   7.950  19.879  0.00  0.00    +0.000 N 
ATOM      2  C   UNL     1       1.023   8.390  20.817  0.00  0.00    +0.000 C 
ATOM      3  O   UNL     1       0.920   8.015  21.970  0.00  0.00    +0.000 OA
ATOM      4  N   UNL     1       0.271   9.409  20.277  0.00  0.00    +0.000 N 
ATOM      5  C   UNL     1       0.786   9.880  19.001  0.00  0.00    +0.000 C 
ATOM      6  C   UNL     1       1.881   8.785  18.791  0.00  0.00    +0.000 C 
ATOM      7  O   UNL     1       2.605   8.689  17.807  0.00  0.00    +0.000 OA
ATOM      8  H   UNL     1      -0.313   9.975  20.880  0.00  0.00    +0.000 HD
ENDROOT
BRANCH   5   9
ATOM      9  C   UNL     1       1.409  11.276  19.151  0.00  0.00    +0.000 A 
ATOM     10  C   UNL     1       2.078  11.896  18.072  0.00  0.00    +0.000 A 
ATOM     11  C   UNL     1       2.705  13.139  18.212  0.00  0.00    +0.000 A 
ATOM     12  C   UNL     1       2.680  13.799  19.434  0.00  0.00    +0.000 A 
ATOM     13  C   UNL     1       2.009  13.227  20.508  0.00  0.00    +0.000 A 
ATOM     14  C   UNL     1       1.366  11.993  20.360  0.00  0.00    +0.000 A 
ENDBRANCH   5   9
BRANCH   1  15
ATOM     15  C   UNL     1       2.831   6.849  20.096  0.00  0.00    +0.000 C 
BRANCH  15  21
ATOM     16  C   UNL     1       2.777   4.859  18.436  0.00  0.00    +0.000 A 
ATOM     17  C   UNL     1       2.279   3.592  18.079  0.00  0.00    +0.000 A 
ATOM     18  C   UNL     1       1.248   3.003  18.806  0.00  0.00    +0.000 A 
ATOM     19  C   UNL     1       0.697   3.679  19.887  0.00  0.00    +0.000 A 
ATOM     20  C   UNL     1       1.216   4.916  20.280  0.00  0.00    +0.000 A 
ATOM     21  C   UNL     1       2.289   5.513  19.588  0.00  0.00    +0.000 A 
BRANCH  16  23
ATOM     22  N   UNL     1       4.432   5.917  16.738  0.00  0.00    +0.000 NA
ATOM     23  C   UNL     1       3.711   5.472  17.531  0.00  0.00    +0.000 C 
ENDBRANCH  16  23
ENDBRANCH  15  21
ENDBRANCH   1  15
BRANCH   5  24
ATOM     24  C   UNL     1      -0.265   9.706  17.859  0.00  0.00    +0.000 C 
BRANCH  24  25
ATOM     25  C   UNL     1      -1.630  10.350  18.056  0.00  0.00    +0.000 A 
ATOM     26  C   UNL     1      -2.784   9.781  17.489  0.00  0.00    +0.000 A 
ATOM     27  C   UNL     1      -4.038  10.375  17.663  0.00  0.00    +0.000 A 
ATOM     28  C   UNL     1      -4.159  11.531  18.426  0.00  0.00    +0.000 A 
ATOM     29  C   UNL     1      -3.033  12.089  19.023  0.00  0.00    +0.000 A 
ATOM     30  C   UNL     1      -1.779  11.497  18.847  0.00  0.00    +0.000 A 
ENDBRANCH  24  25
ENDBRANCH   5  24
TORSDOF 6
ENDMDL
MODEL 5
REMARK VINA RESULT:      -7.8      0.058      1.264
REMARK  Name = 
REMARK  6 active torsions:
REMARK  status: ('A' for Active; 'I' for Inactive)
REMARK    1  A    between atoms: C_2  and  C_3
REMARK    2  A    between atoms: C_8  and  C_9
REMARK    3  A    between atoms: C_9  and  N_10
REMARK    4  A    between atoms: C_14  and  C_15
REMARK    5  A    between atoms: C_14  and  C_22
REMARK    6  A    between atoms: C_15  and  C_16
REMARK                            x       y       z     vdW  Elec       q    Type
REMARK                         _______ _______ _______ _____ _____    ______ ____
ROOT
ATOM      1  N   UNL     1       1.788   8.659  19.252  0.00  0.00    +0.000 N 
ATOM      2  C   UNL     1       2.116   9.020  17.982  0.00  0.00    +0.000 C 
ATOM      3  O   UNL     1       2.179  10.146  17.524  0.00  0.00    +0.000 OA
ATOM      4  N   UNL     1       2.443   7.889  17.269  0.00  0.00    +0.000 N 
ATOM      5  C   UNL     1       2.590   6.711  18.110  0.00  0.00    +0.000 C 
ATOM      6  C   UNL     1       2.076   7.333  19.448  0.00  0.00    +0.000 C 
ATOM      7  O   UNL     1       1.949   6.728  20.506  0.00  0.00    +0.000 OA
ATOM      8  H   UNL     1       2.881   7.978  16.361  0.00  0.00    +0.000 HD
ENDROOT
BRANCH   5   9
ATOM      9  C   UNL     1       4.068   6.302  18.213  0.00  0.00    +0.000 A 
ATOM     10  C   UNL     1       4.544   5.560  19.317  0.00  0.00    +0.000 A 
ATOM     11  C   UNL     1       5.898   5.235  19.455  0.00  0.00    +0.000 A 
ATOM     12  C   UNL     1       6.814   5.641  18.494  0.00  0.00    +0.000 A 
ATOM     13  C   UNL     1       6.374   6.350  17.382  0.00  0.00    +0.000 A 
ATOM     14  C   UNL     1       5.016   6.656  17.237  0.00  0.00    +0.000 A 
ENDBRANCH   5   9
BRANCH   1  15
ATOM     15  C   UNL     1       1.351   9.602  20.271  0.00  0.00    +0.000 C 
BRANCH  15  21
ATOM     16  C   UNL     1       0.430  11.981  19.813  0.00  0.00    +0.000 A 
ATOM     17  C   UNL     1      -0.555  12.811  19.246  0.00  0.00    +0.000 A 
ATOM     18  C   UNL     1      -1.712  12.266  18.694  0.00  0.00    +0.000 A 
ATOM     19  C   UNL     1      -1.901  10.889  18.716  0.00  0.00    +0.000 A 
ATOM     20  C   UNL     1      -0.907  10.054  19.233  0.00  0.00    +0.000 A 
ATOM     21  C   UNL     1       0.292  10.577  19.757  0.00  0.00    +0.000 A 
BRANCH  16  23
ATOM     22  N   UNL     1       2.307  13.194  21.135  0.00  0.00    +0.000 NA
ATOM     23  C   UNL     1       1.502  12.630  20.519  0.00  0.00    +0.000 C 
ENDBRANCH  16  23
ENDBRANCH  15  21
ENDBRANCH   1  15
BRANCH   5  24
ATOM     24  C   UNL     1       1.584   5.588  17.706  0.00  0.00    +0.000 C 
BRANCH  24  25
ATOM     25  C   UNL     1       1.925   4.160  18.110  0.00  0.00    +0.000 A 
ATOM     26  C   UNL     1       2.759   3.363  17.305  0.00  0.00    +0.000 A 
ATOM     27  C   UNL     1       3.069   2.050  17.670  0.00  0.00    +0.000 A 
ATOM     28  C   UNL     1       2.569   1.523  18.856  0.00  0.00    +0.000 A 
ATOM     29  C   UNL     1       1.771   2.308  19.682  0.00  0.00    +0.000 A 
ATOM     30  C   UNL     1       1.459   3.620  19.316  0.00  0.00    +0.000 A 
ENDBRANCH  24  25
ENDBRANCH   5  24
TORSDOF 6
ENDMDL
MODEL 6
REMARK VINA RESULT:      -7.6      1.008      1.008
REMARK  Name = 
REMARK  6 active torsions:
REMARK  status: ('A' for Active; 'I' for Inactive)
REMARK    1  A    between atoms: C_2  and  C_3
REMARK    2  A    between atoms: C_8  and  C_9
REMARK    3  A    between atoms: C_9  and  N_10
REMARK    4  A    between atoms: C_14  and  C_15
REMARK    5  A    between atoms: C_14  and  C_22
REMARK    6  A    between atoms: C_15  and  C_16
REMARK                            x       y       z     vdW  Elec       q    Type
REMARK                         _______ _______ _______ _____ _____    ______ ____
ROOT
ATOM      1  N   UNL     1       1.700   8.742  19.149  0.00  0.00    +0.000 N 
ATOM      2  C   UNL     1       2.121   9.084  17.902  0.00  0.00    +0.000 C 
ATOM      3  O   UNL     1       2.222  10.203  17.434  0.00  0.00    +0.000 OA
ATOM      4  N   UNL     1       2.495   7.942  17.230  0.00  0.00    +0.000 N 
ATOM      5  C   UNL     1       2.576   6.776  18.096  0.00  0.00    +0.000 C 
ATOM      6  C   UNL     1       1.967   7.418  19.384  0.00  0.00    +0.000 C 
ATOM      7  O   UNL     1       1.761   6.829  20.438  0.00  0.00    +0.000 OA
ATOM      8  H   UNL     1       2.998   8.017  16.356  0.00  0.00    +0.000 HD
ENDROOT
BRANCH   5   9
ATOM      9  C   UNL     1       4.040   6.364  18.313  0.00  0.00    +0.000 A 
ATOM     10  C   UNL     1       5.047   6.739  17.395  0.00  0.00    +0.000 A 
ATOM     11  C   UNL     1       6.372   6.318  17.546  0.00  0.00    +0.000 A 
ATOM     12  C   UNL     1       6.731   5.512  18.619  0.00  0.00    +0.000 A 
ATOM     13  C   UNL     1       5.769   5.147  19.553  0.00  0.00    +0.000 A 
ATOM     14  C   UNL     1       4.448   5.586  19.411  0.00  0.00    +0.000 A 
ENDBRANCH   5   9
BRANCH   1  15
ATOM     15  C   UNL     1       1.193   9.701  20.120  0.00  0.00    +0.000 C 
BRANCH  15  21
ATOM     16  C   UNL     1      -0.876  11.217  20.497  0.00  0.00    +0.000 A 
ATOM     17  C   UNL     1      -2.035  11.833  19.990  0.00  0.00    +0.000 A 
ATOM     18  C   UNL     1      -2.497  11.535  18.710  0.00  0.00    +0.000 A 
ATOM     19  C   UNL     1      -1.813  10.609  17.932  0.00  0.00    +0.000 A 
ATOM     20  C   UNL     1      -0.635  10.028  18.407  0.00  0.00    +0.000 A 
ATOM     21  C   UNL     1      -0.122  10.346  19.680  0.00  0.00    +0.000 A 
BRANCH  16  23
ATOM     22  N   UNL     1      -0.391  11.677  23.006  0.00  0.00    +0.000 NA
ATOM     23  C   UNL     1      -0.571  11.441  21.884  0.00  0.00    +0.000 C 
ENDBRANCH  16  23
ENDBRANCH  15  21
ENDBRANCH   1  15
BRANCH   5  24
ATOM     24  C   UNL     1       1.597   5.650  17.635  0.00  0.00    +0.000 C 
BRANCH  24  25
ATOM     25  C   UNL     1       1.903   4.227  18.083  0.00  0.00    +0.000 A 
ATOM     26  C   UNL     1       1.354   3.712  19.271  0.00  0.00    +0.000 A 
ATOM     27  C   UNL     1       1.638   2.408  19.687  0.00  0.00    +0.000 A 
ATOM     28  C   UNL     1       2.455   1.593  18.910  0.00  0.00    +0.000 A 
ATOM     29  C   UNL     1       2.978   2.075  17.714  0.00  0.00    +0.000 A 
ATOM     30  C   UNL     1       2.697   3.379  17.299  0.00  0.00    +0.000 A 
ENDBRANCH  24  25
ENDBRANCH   5  24
TORSDOF 6
ENDMDL
MODEL 7
REMARK VINA RESULT:      -7.6      3.061      6.110
REMARK  Name = 
REMARK  6 active torsions:
REMARK  status: ('A' for Active; 'I' for Inactive)
REMARK    1  A    between atoms: C_2  and  C_3
REMARK    2  A    between atoms: C_8  and  C_9
REMARK    3  A    between atoms: C_9  and  N_10
REMARK    4  A    between atoms: C_14  and  C_15
REMARK    5  A    between atoms: C_14  and  C_22
REMARK    6  A    between atoms: C_15  and  C_16
REMARK                            x       y       z     vdW  Elec       q    Type
REMARK                         _______ _______ _______ _____ _____    ______ ____
ROOT
ATOM      1  N   UNL     1       1.551  12.840  20.019  0.00  0.00    +0.000 N 
ATOM      2  C   UNL     1       1.487  12.847  18.661  0.00  0.00    +0.000 C 
ATOM      3  O   UNL     1       2.029  13.625  17.898  0.00  0.00    +0.000 OA
ATOM      4  N   UNL     1       0.742  11.767  18.245  0.00  0.00    +0.000 N 
ATOM      5  C   UNL     1       0.466  10.822  19.315  0.00  0.00    +0.000 C 
ATOM      6  C   UNL     1       1.023  11.671  20.503  0.00  0.00    +0.000 C 
ATOM      7  O   UNL     1       0.992  11.340  21.683  0.00  0.00    +0.000 OA
ATOM      8  H   UNL     1       0.734  11.511  17.266  0.00  0.00    +0.000 HD
ENDROOT
BRANCH   5   9
ATOM      9  C   UNL     1       1.276   9.531  19.119  0.00  0.00    +0.000 A 
ATOM     10  C   UNL     1       1.938   9.264  17.900  0.00  0.00    +0.000 A 
ATOM     11  C   UNL     1       2.626   8.065  17.685  0.00  0.00    +0.000 A 
ATOM     12  C   UNL     1       2.673   7.099  18.682  0.00  0.00    +0.000 A 
ATOM     13  C   UNL     1       2.053   7.342  19.902  0.00  0.00    +0.000 A 
ATOM     14  C   UNL     1       1.382   8.551  20.121  0.00  0.00    +0.000 A 
ENDBRANCH   5   9
BRANCH   1  15
ATOM     15  C   UNL     1       2.228  13.864  20.801  0.00  0.00    +0.000 C 
BRANCH  15  21
ATOM     16  C   UNL     1       1.378  16.300  20.554  0.00  0.00    +0.000 A 
ATOM     17  C   UNL     1       0.445  17.298  20.891  0.00  0.00    +0.000 A 
ATOM     18  C   UNL     1      -0.506  17.076  21.886  0.00  0.00    +0.000 A 
ATOM     19  C   UNL     1      -0.522  15.861  22.559  0.00  0.00    +0.000 A 
ATOM     20  C   UNL     1       0.368  14.847  22.199  0.00  0.00    +0.000 A 
ATOM     21  C   UNL     1       1.310  15.030  21.167  0.00  0.00    +0.000 A 
BRANCH  16  23
ATOM     22  N   UNL     1       3.265  17.055  18.938  0.00  0.00    +0.000 NA
ATOM     23  C   UNL     1       2.433  16.673  19.651  0.00  0.00    +0.000 C 
ENDBRANCH  16  23
ENDBRANCH  15  21
ENDBRANCH   1  15
BRANCH   5  24
ATOM     24  C   UNL     1      -1.068  10.652  19.549  0.00  0.00    +0.000 C 
BRANCH  24  25
ATOM     25  C   UNL     1      -1.974  10.685  18.326  0.00  0.00    +0.000 A 
ATOM     26  C   UNL     1      -1.734   9.838  17.229  0.00  0.00    +0.000 A 
ATOM     27  C   UNL     1      -2.559   9.870  16.102  0.00  0.00    +0.000 A 
ATOM     28  C   UNL     1      -3.650  10.732  16.064  0.00  0.00    +0.000 A 
ATOM     29  C   UNL     1      -3.923  11.553  17.154  0.00  0.00    +0.000 A 
ATOM     30  C   UNL     1      -3.096  11.522  18.280  0.00  0.00    +0.000 A 
ENDBRANCH  24  25
ENDBRANCH   5  24
TORSDOF 6
ENDMDL
MODEL 8
REMARK VINA RESULT:      -7.4      2.962      5.900
REMARK  Name = 
REMARK  6 active torsions:
REMARK  status: ('A' for Active; 'I' for Inactive)
REMARK    1  A    between atoms: C_2  and  C_3
REMARK    2  A    between atoms: C_8  and  C_9
REMARK    3  A    between atoms: C_9  and  N_10
REMARK    4  A    between atoms: C_14  and  C_15
REMARK    5  A    between atoms: C_14  and  C_22
REMARK    6  A    between atoms: C_15  and  C_16
REMARK                            x       y       z     vdW  Elec       q    Type
REMARK                         _______ _______ _______ _____ _____    ______ ____
ROOT
ATOM      1  N   UNL     1       1.284  12.594  20.122  0.00  0.00    +0.000 N 
ATOM      2  C   UNL     1       1.263  12.669  18.764  0.00  0.00    +0.000 C 
ATOM      3  O   UNL     1       1.766  13.526  18.061  0.00  0.00    +0.000 OA
ATOM      4  N   UNL     1       0.618  11.559  18.268  0.00  0.00    +0.000 N 
ATOM      5  C   UNL     1       0.383  10.539  19.278  0.00  0.00    +0.000 C 
ATOM      6  C   UNL     1       0.835  11.364  20.527  0.00  0.00    +0.000 C 
ATOM      7  O   UNL     1       0.794  10.969  21.686  0.00  0.00    +0.000 OA
ATOM      8  H   UNL     1       0.661  11.356  17.277  0.00  0.00    +0.000 HD
ENDROOT
BRANCH   5   9
ATOM      9  C   UNL     1       1.298   9.327  19.045  0.00  0.00    +0.000 A 
ATOM     10  C   UNL     1       1.977   9.150  17.819  0.00  0.00    +0.000 A 
ATOM     11  C   UNL     1       2.762   8.020  17.570  0.00  0.00    +0.000 A 
ATOM     12  C   UNL     1       2.893   7.033  18.539  0.00  0.00    +0.000 A 
ATOM     13  C   UNL     1       2.258   7.190  19.766  0.00  0.00    +0.000 A 
ATOM     14  C   UNL     1       1.490   8.331  20.020  0.00  0.00    +0.000 A 
ENDBRANCH   5   9
BRANCH   1  15
ATOM     15  C   UNL     1       1.854  13.624  20.978  0.00  0.00    +0.000 C 
BRANCH  15  21
ATOM     16  C   UNL     1       0.809  15.989  20.796  0.00  0.00    +0.000 A 
ATOM     17  C   UNL     1      -0.208  16.894  21.151  0.00  0.00    +0.000 A 
ATOM     18  C   UNL     1      -1.151  16.561  22.121  0.00  0.00    +0.000 A 
ATOM     19  C   UNL     1      -1.077  15.327  22.754  0.00  0.00    +0.000 A 
ATOM     20  C   UNL     1      -0.100  14.402  22.376  0.00  0.00    +0.000 A 
ATOM     21  C   UNL     1       0.838  14.697  21.366  0.00  0.00    +0.000 A 
BRANCH  16  23
ATOM     22  N   UNL     1       2.673  16.796  19.179  0.00  0.00    +0.000 NA
ATOM     23  C   UNL     1       1.843  16.477  19.924  0.00  0.00    +0.000 C 
ENDBRANCH  16  23
ENDBRANCH  15  21
ENDBRANCH   1  15
BRANCH   5  24
ATOM     24  C   UNL     1      -1.139  10.240  19.449  0.00  0.00    +0.000 C 
BRANCH  24  25
ATOM     25  C   UNL     1      -2.036  10.447  18.236  0.00  0.00    +0.000 A 
ATOM     26  C   UNL     1      -3.071  11.399  18.259  0.00  0.00    +0.000 A 
ATOM     27  C   UNL     1      -3.900  11.585  17.149  0.00  0.00    +0.000 A 
ATOM     28  C   UNL     1      -3.691  10.841  15.993  0.00  0.00    +0.000 A 
ATOM     29  C   UNL     1      -2.651   9.920  15.941  0.00  0.00    +0.000 A 
ATOM     30  C   UNL     1      -1.823   9.731  17.051  0.00  0.00    +0.000 A 
ENDBRANCH  24  25
ENDBRANCH   5  24
TORSDOF 6
ENDMDL
MODEL 9
REMARK VINA RESULT:      -7.4      4.441      6.693
REMARK  Name = 
REMARK  6 active torsions:
REMARK  status: ('A' for Active; 'I' for Inactive)
REMARK    1  A    between atoms: C_2  and  C_3
REMARK    2  A    between atoms: C_8  and  C_9
REMARK    3  A    between atoms: C_9  and  N_10
REMARK    4  A    between atoms: C_14  and  C_15
REMARK    5  A    between atoms: C_14  and  C_22
REMARK    6  A    between atoms: C_15  and  C_16
REMARK                            x       y       z     vdW  Elec       q    Type
REMARK                         _______ _______ _______ _____ _____    ______ ____
ROOT
ATOM      1  N   UNL     1       4.526   5.548  18.836  0.00  0.00    +0.000 N 
ATOM      2  C   UNL     1       4.167   6.193  17.694  0.00  0.00    +0.000 C 
ATOM      3  O   UNL     1       3.073   6.641  17.407  0.00  0.00    +0.000 OA
ATOM      4  N   UNL     1       5.280   6.333  16.895  0.00  0.00    +0.000 N 
ATOM      5  C   UNL     1       6.517   5.998  17.581  0.00  0.00    +0.000 C 
ATOM      6  C   UNL     1       5.890   5.427  18.894  0.00  0.00    +0.000 C 
ATOM      7  O   UNL     1       6.521   4.946  19.827  0.00  0.00    +0.000 OA
ATOM      8  H   UNL     1       5.243   6.941  16.087  0.00  0.00    +0.000 HD
ENDROOT
BRANCH   5   9
ATOM      9  C   UNL     1       7.342   7.265  17.859  0.00  0.00    +0.000 A 
ATOM     10  C   UNL     1       8.350   7.276  18.848  0.00  0.00    +0.000 A 
ATOM     11  C   UNL     1       9.065   8.439  19.155  0.00  0.00    +0.000 A 
ATOM     12  C   UNL     1       8.795   9.623  18.481  0.00  0.00    +0.000 A 
ATOM     13  C   UNL     1       7.826   9.638  17.484  0.00  0.00    +0.000 A 
ATOM     14  C   UNL     1       7.126   8.469  17.166  0.00  0.00    +0.000 A 
ENDBRANCH   5   9
BRANCH   1  15
ATOM     15  C   UNL     1       3.587   5.196  19.891  0.00  0.00    +0.000 C 
BRANCH  15  21
ATOM     16  C   UNL     1       2.949   2.688  19.747  0.00  0.00    +0.000 A 
ATOM     17  C   UNL     1       2.006   1.694  19.424  0.00  0.00    +0.000 A 
ATOM     18  C   UNL     1       0.814   2.026  18.784  0.00  0.00    +0.000 A 
ATOM     19  C   UNL     1       0.560   3.350  18.450  0.00  0.00    +0.000 A 
ATOM     20  C   UNL     1       1.467   4.350  18.809  0.00  0.00    +0.000 A 
ATOM     21  C   UNL     1       2.659   4.047  19.497  0.00  0.00    +0.000 A 
BRANCH  16  23
ATOM     22  N   UNL     1       5.219   1.804  20.645  0.00  0.00    +0.000 NA
ATOM     23  C   UNL     1       4.224   2.242  20.239  0.00  0.00    +0.000 C 
ENDBRANCH  16  23
ENDBRANCH  15  21
ENDBRANCH   1  15
BRANCH   5  24
ATOM     24  C   UNL     1       7.264   4.822  16.877  0.00  0.00    +0.000 C 
BRANCH  24  25
ATOM     25  C   UNL     1       6.996   4.607  15.394  0.00  0.00    +0.000 A 
ATOM     26  C   UNL     1       5.913   3.818  14.965  0.00  0.00    +0.000 A 
ATOM     27  C   UNL     1       5.668   3.613  13.604  0.00  0.00    +0.000 A 
ATOM     28  C   UNL     1       6.487   4.214  12.653  0.00  0.00    +0.000 A 
ATOM     29  C   UNL     1       7.541   5.026  13.059  0.00  0.00    +0.000 A 
ATOM     30  C   UNL     1       7.788   5.228  14.419  0.00  0.00    +0.000 A 
ENDBRANCH  24  25
ENDBRANCH   5  24
TORSDOF 6
ENDMDL
