MODEL 1
REMARK VINA RESULT:      -8.3      0.000      0.000
REMARK  Name = 
REMARK  4 active torsions:
REMARK  status: ('A' for Active; 'I' for Inactive)
REMARK    1  A    between atoms: N_4  and  C_5
REMARK    2  A    between atoms: C_9  and  N_10
REMARK    3  A    between atoms: C_11  and  C_13
REMARK    4  A    between atoms: C_15  and  C_16
REMARK                            x       y       z     vdW  Elec       q    Type
REMARK                         _______ _______ _______ _____ _____    ______ ____
ROOT
ATOM      1  N   UNL     1       5.703   5.818  18.046  0.00  0.00    +0.000 N 
ATOM      2  C   UNL     1       7.084   5.928  18.183  0.00  0.00    +0.000 C 
ATOM      3  O   UNL     1       7.857   4.982  18.301  0.00  0.00    +0.000 OA
ATOM      4  H   UNL     1       5.203   6.677  17.850  0.00  0.00    +0.000 HD
ENDROOT
BRANCH   1   9
ATOM      5  C   UNL     1       3.586   3.021  19.304  0.00  0.00    +0.000 A 
ATOM      6  C   UNL     1       3.379   2.299  18.128  0.00  0.00    +0.000 A 
ATOM      7  C   UNL     1       3.980   2.698  16.939  0.00  0.00    +0.000 A 
ATOM      8  C   UNL     1       4.769   3.843  16.904  0.00  0.00    +0.000 A 
ATOM      9  C   UNL     1       4.951   4.620  18.050  0.00  0.00    +0.000 A 
ATOM     10  C   UNL     1       4.366   4.192  19.257  0.00  0.00    +0.000 A 
BRANCH   5  14
ATOM     11  N   UNL     1       1.556   2.484  22.268  0.00  0.00    +0.000 N 
ATOM     12  C   UNL     1       1.791   2.987  21.022  0.00  0.00    +0.000 C 
ATOM     13  O   UNL     1       0.926   3.653  20.478  0.00  0.00    +0.000 OA
ATOM     14  N   UNL     1       3.025   2.622  20.538  0.00  0.00    +0.000 N 
ATOM     15  H   UNL     1       0.674   2.825  22.640  0.00  0.00    +0.000 HD
ATOM     16  H   UNL     1       2.316   2.531  22.928  0.00  0.00    +0.000 HD
ATOM     17  H   UNL     1       3.466   1.856  21.025  0.00  0.00    +0.000 HD
ENDBRANCH   5  14
ENDBRANCH   1   9
BRANCH   2  18
ATOM     18  C   UNL     1       7.588   7.279  18.125  0.00  0.00    +0.000 A 
ATOM     19  C   UNL     1       8.431   7.965  18.969  0.00  0.00    +0.000 A 
ATOM     20  C   UNL     1       8.622   9.227  18.353  0.00  0.00    +0.000 A 
ATOM     21  N   UNL     1       7.896   9.302  17.225  0.00  0.00    +0.000 NA
ATOM     22  O   UNL     1       7.252   8.090  17.089  0.00  0.00    +0.000 OA
BRANCH  20  23
ATOM     23  C   UNL     1       9.491  10.322  18.784  0.00  0.00    +0.000 A 
ATOM     24  C   UNL     1      10.386  10.908  17.872  0.00  0.00    +0.000 A 
ATOM     25  C   UNL     1      11.252  11.929  18.266  0.00  0.00    +0.000 A 
ATOM     26  C   UNL     1      11.226  12.385  19.583  0.00  0.00    +0.000 A 
ATOM     27  C   UNL     1      10.336  11.815  20.486  0.00  0.00    +0.000 A 
ATOM     28  F   UNL     1      10.311  12.259  21.748  0.00  0.00    +0.000 F 
ATOM     29  C   UNL     1       9.473  10.790  20.103  0.00  0.00    +0.000 A 
ENDBRANCH  20  23
ENDBRANCH   2  18
TORSDOF 4
ENDMDL
MODEL 2
REMARK VINA RESULT:      -8.3      6.508      8.186
REMARK  Name = 
REMARK  4 active torsions:
REMARK  status: ('A' for Active; 'I' for Inactive)
REMARK    1  A    between atoms: N_4  and  C_5
REMARK    2  A    between atoms: C_9  and  N_10
REMARK    3  A    between atoms: C_11  and  C_13
REMARK    4  A    between atoms: C_15  and  C_16
REMARK                            x       y       z     vdW  Elec       q    Type
REMARK                         _______ _______ _______ _____ _____    ______ ____
ROOT
ATOM      1  N   UNL     1       2.176   6.497  20.139  0.00  0.00    +0.000 N 
ATOM      2  C   UNL     1       1.965   7.783  19.650  0.00  0.00    +0.000 C 
ATOM      3  O   UNL     1       2.170   8.139  18.493  0.00  0.00    +0.000 OA
ATOM      4  H   UNL     1       1.862   6.321  21.087  0.00  0.00    +0.000 HD
ENDROOT
BRANCH   1   9
ATOM      5  C   UNL     1       4.633   4.135  18.634  0.00  0.00    +0.000 A 
ATOM      6  C   UNL     1       3.777   3.195  18.060  0.00  0.00    +0.000 A 
ATOM      7  C   UNL     1       2.398   3.367  18.119  0.00  0.00    +0.000 A 
ATOM      8  C   UNL     1       1.858   4.465  18.780  0.00  0.00    +0.000 A 
ATOM      9  C   UNL     1       2.685   5.395  19.413  0.00  0.00    +0.000 A 
ATOM     10  C   UNL     1       4.080   5.231  19.322  0.00  0.00    +0.000 A 
BRANCH   5  14
ATOM     11  N   UNL     1       8.162   4.260  17.781  0.00  0.00    +0.000 N 
ATOM     12  C   UNL     1       6.854   4.613  17.627  0.00  0.00    +0.000 C 
ATOM     13  O   UNL     1       6.552   5.399  16.744  0.00  0.00    +0.000 OA
ATOM     14  N   UNL     1       6.040   4.014  18.558  0.00  0.00    +0.000 N 
ATOM     15  H   UNL     1       8.737   4.650  17.040  0.00  0.00    +0.000 HD
ATOM     16  H   UNL     1       8.351   3.287  17.967  0.00  0.00    +0.000 HD
ATOM     17  H   UNL     1       6.518   3.620  19.355  0.00  0.00    +0.000 HD
ENDBRANCH   5  14
ENDBRANCH   1   9
BRANCH   2  18
ATOM     18  C   UNL     1       1.418   8.710  20.612  0.00  0.00    +0.000 A 
ATOM     19  C   UNL     1       0.661   9.846  20.442  0.00  0.00    +0.000 A 
ATOM     20  C   UNL     1       0.361  10.289  21.754  0.00  0.00    +0.000 A 
ATOM     21  N   UNL     1       0.944   9.482  22.656  0.00  0.00    +0.000 NA
ATOM     22  O   UNL     1       1.604   8.503  21.942  0.00  0.00    +0.000 OA
BRANCH  20  23
ATOM     23  C   UNL     1      -0.483  11.413  22.159  0.00  0.00    +0.000 A 
ATOM     24  C   UNL     1      -1.556  11.203  23.044  0.00  0.00    +0.000 A 
ATOM     25  C   UNL     1      -2.398  12.251  23.417  0.00  0.00    +0.000 A 
ATOM     26  C   UNL     1      -2.171  13.531  22.915  0.00  0.00    +0.000 A 
ATOM     27  C   UNL     1      -1.107  13.745  22.047  0.00  0.00    +0.000 A 
ATOM     28  F   UNL     1      -0.889  14.977  21.570  0.00  0.00    +0.000 F 
ATOM     29  C   UNL     1      -0.265  12.703  21.662  0.00  0.00    +0.000 A 
ENDBRANCH  20  23
ENDBRANCH   2  18
TORSDOF 4
ENDMDL
MODEL 3
REMARK VINA RESULT:      -8.2      0.915      1.318
REMARK  Name = 
REMARK  4 active torsions:
REMARK  status: ('A' for Active; 'I' for Inactive)
REMARK    1  A    between atoms: N_4  and  C_5
REMARK    2  A    between atoms: C_9  and  N_10
REMARK    3  A    between atoms: C_11  and  C_13
REMARK    4  A    between atoms: C_15  and  C_16
REMARK                            x       y       z     vdW  Elec       q    Type
REMARK                         _______ _______ _______ _____ _____    ______ ____
ROOT
ATOM      1  N   UNL     1       5.741   5.819  18.012  0.00  0.00    +0.000 N 
ATOM      2  C   UNL     1       7.123   5.928  18.133  0.00  0.00    +0.000 C 
ATOM      3  O   UNL     1       7.898   4.982  18.239  0.00  0.00    +0.000 OA
ATOM      4  H   UNL     1       5.239   6.679  17.824  0.00  0.00    +0.000 HD
ENDROOT
BRANCH   1   9
ATOM      5  C   UNL     1       3.617   3.031  19.278  0.00  0.00    +0.000 A 
ATOM      6  C   UNL     1       3.417   2.300  18.106  0.00  0.00    +0.000 A 
ATOM      7  C   UNL     1       4.025   2.691  16.918  0.00  0.00    +0.000 A 
ATOM      8  C   UNL     1       4.814   3.835  16.879  0.00  0.00    +0.000 A 
ATOM      9  C   UNL     1       4.989   4.620  18.020  0.00  0.00    +0.000 A 
ATOM     10  C   UNL     1       4.397   4.201  19.227  0.00  0.00    +0.000 A 
BRANCH   5  14
ATOM     11  N   UNL     1       1.571   2.516  22.235  0.00  0.00    +0.000 N 
ATOM     12  C   UNL     1       1.814   3.011  20.987  0.00  0.00    +0.000 C 
ATOM     13  O   UNL     1       0.952   3.675  20.434  0.00  0.00    +0.000 OA
ATOM     14  N   UNL     1       3.049   2.641  20.512  0.00  0.00    +0.000 N 
ATOM     15  H   UNL     1       0.688   2.861  22.600  0.00  0.00    +0.000 HD
ATOM     16  H   UNL     1       2.328   2.566  22.899  0.00  0.00    +0.000 HD
ATOM     17  H   UNL     1       3.486   1.877  21.006  0.00  0.00    +0.000 HD
ENDBRANCH   5  14
ENDBRANCH   1   9
BRANCH   2  18
ATOM     18  C   UNL     1       7.626   7.280  18.075  0.00  0.00    +0.000 A 
ATOM     19  C   UNL     1       8.407   7.992  18.956  0.00  0.00    +0.000 A 
ATOM     20  C   UNL     1       8.637   9.238  18.321  0.00  0.00    +0.000 A 
ATOM     21  N   UNL     1       7.992   9.280  17.143  0.00  0.00    +0.000 NA
ATOM     22  O   UNL     1       7.361   8.061  16.996  0.00  0.00    +0.000 OA
BRANCH  20  23
ATOM     23  C   UNL     1       9.471  10.348  18.782  0.00  0.00    +0.000 A 
ATOM     24  C   UNL     1       9.595  10.608  20.158  0.00  0.00    +0.000 A 
ATOM     25  C   UNL     1      10.355  11.682  20.624  0.00  0.00    +0.000 A 
ATOM     26  C   UNL     1      11.010  12.509  19.713  0.00  0.00    +0.000 A 
ATOM     27  C   UNL     1      10.898  12.250  18.352  0.00  0.00    +0.000 A 
ATOM     28  F   UNL     1      11.533  13.044  17.481  0.00  0.00    +0.000 F 
ATOM     29  C   UNL     1      10.135  11.184  17.878  0.00  0.00    +0.000 A 
ENDBRANCH  20  23
ENDBRANCH   2  18
TORSDOF 4
ENDMDL
MODEL 4
REMARK VINA RESULT:      -8.1      6.949      9.397
REMARK  Name = 
REMARK  4 active torsions:
REMARK  status: ('A' for Active; 'I' for Inactive)
REMARK    1  A    between atoms: N_4  and  C_5
REMARK    2  A    between atoms: C_9  and  N_10
REMARK    3  A    between atoms: C_11  and  C_13
REMARK    4  A    between atoms: C_15  and  C_16
REMARK                            x       y       z     vdW  Elec       q    Type
REMARK                         _______ _______ _______ _____ _____    ______ ____
ROOT
ATOM      1  N   UNL     1       1.004   9.226  19.171  0.00  0.00    +0.000 N 
ATOM      2  C   UNL     1       1.969   9.141  18.172  0.00  0.00    +0.000 C 
ATOM      3  O   UNL     1       2.289  10.058  17.421  0.00  0.00    +0.000 OA
ATOM      4  H   UNL     1       0.922   8.423  19.784  0.00  0.00    +0.000 HD
ENDROOT
BRANCH   1   9
ATOM      5  C   UNL     1      -1.640  11.832  18.851  0.00  0.00    +0.000 A 
ATOM      6  C   UNL     1      -1.464  12.533  20.044  0.00  0.00    +0.000 A 
ATOM      7  C   UNL     1      -0.444  12.185  20.924  0.00  0.00    +0.000 A 
ATOM      8  C   UNL     1       0.392  11.112  20.636  0.00  0.00    +0.000 A 
ATOM      9  C   UNL     1       0.209  10.355  19.477  0.00  0.00    +0.000 A 
ATOM     10  C   UNL     1      -0.805  10.733  18.576  0.00  0.00    +0.000 A 
BRANCH   5  14
ATOM     11  N   UNL     1      -4.483  12.007  16.597  0.00  0.00    +0.000 N 
ATOM     12  C   UNL     1      -3.728  11.420  17.570  0.00  0.00    +0.000 C 
ATOM     13  O   UNL     1      -4.085  10.348  18.031  0.00  0.00    +0.000 OA
ATOM     14  N   UNL     1      -2.639  12.183  17.914  0.00  0.00    +0.000 N 
ATOM     15  H   UNL     1      -5.239  11.396  16.301  0.00  0.00    +0.000 HD
ATOM     16  H   UNL     1      -3.985  12.430  15.829  0.00  0.00    +0.000 HD
ATOM     17  H   UNL     1      -2.677  13.146  17.612  0.00  0.00    +0.000 HD
ENDBRANCH   5  14
ENDBRANCH   1   9
BRANCH   2  18
ATOM     18  C   UNL     1       2.643   7.867  18.095  0.00  0.00    +0.000 A 
ATOM     19  C   UNL     1       2.298   6.630  18.591  0.00  0.00    +0.000 A 
ATOM     20  C   UNL     1       3.312   5.753  18.132  0.00  0.00    +0.000 A 
ATOM     21  N   UNL     1       4.234   6.439  17.437  0.00  0.00    +0.000 NA
ATOM     22  O   UNL     1       3.817   7.754  17.419  0.00  0.00    +0.000 OA
BRANCH  20  23
ATOM     23  C   UNL     1       3.399   4.303  18.304  0.00  0.00    +0.000 A 
ATOM     24  C   UNL     1       2.743   3.449  17.400  0.00  0.00    +0.000 A 
ATOM     25  C   UNL     1       2.779   2.063  17.561  0.00  0.00    +0.000 A 
ATOM     26  C   UNL     1       3.483   1.511  18.629  0.00  0.00    +0.000 A 
ATOM     27  C   UNL     1       4.141   2.351  19.521  0.00  0.00    +0.000 A 
ATOM     28  F   UNL     1       4.820   1.817  20.543  0.00  0.00    +0.000 F 
ATOM     29  C   UNL     1       4.104   3.737  19.372  0.00  0.00    +0.000 A 
ENDBRANCH  20  23
ENDBRANCH   2  18
TORSDOF 4
ENDMDL
MODEL 5
REMARK VINA RESULT:      -8.1      6.575      8.267
REMARK  Name = 
REMARK  4 active torsions:
REMARK  status: ('A' for Active; 'I' for Inactive)
REMARK    1  A    between atoms: N_4  and  C_5
REMARK    2  A    between atoms: C_9  and  N_10
REMARK    3  A    between atoms: C_11  and  C_13
REMARK    4  A    between atoms: C_15  and  C_16
REMARK                            x       y       z     vdW  Elec       q    Type
REMARK                         _______ _______ _______ _____ _____    ______ ____
ROOT
ATOM      1  N   UNL     1       2.228   6.353  20.560  0.00  0.00    +0.000 N 
ATOM      2  C   UNL     1       1.999   7.516  19.831  0.00  0.00    +0.000 C 
ATOM      3  O   UNL     1       2.252   7.661  18.638  0.00  0.00    +0.000 OA
ATOM      4  H   UNL     1       1.870   6.342  21.509  0.00  0.00    +0.000 HD
ENDROOT
BRANCH   1   9
ATOM      5  C   UNL     1       4.776   4.027  19.152  0.00  0.00    +0.000 A 
ATOM      6  C   UNL     1       4.073   2.822  19.175  0.00  0.00    +0.000 A 
ATOM      7  C   UNL     1       2.748   2.785  19.598  0.00  0.00    +0.000 A 
ATOM      8  C   UNL     1       2.121   3.947  20.034  0.00  0.00    +0.000 A 
ATOM      9  C   UNL     1       2.813   5.159  20.077  0.00  0.00    +0.000 A 
ATOM     10  C   UNL     1       4.142   5.195  19.617  0.00  0.00    +0.000 A 
BRANCH   5  14
ATOM     11  N   UNL     1       7.858   4.370  17.261  0.00  0.00    +0.000 N 
ATOM     12  C   UNL     1       6.504   4.426  17.412  0.00  0.00    +0.000 C 
ATOM     13  O   UNL     1       5.814   4.754  16.461  0.00  0.00    +0.000 OA
ATOM     14  N   UNL     1       6.109   4.109  18.690  0.00  0.00    +0.000 N 
ATOM     15  H   UNL     1       8.126   4.532  16.294  0.00  0.00    +0.000 HD
ATOM     16  H   UNL     1       8.331   3.586  17.684  0.00  0.00    +0.000 HD
ATOM     17  H   UNL     1       6.843   4.133  19.383  0.00  0.00    +0.000 HD
ENDBRANCH   5  14
ENDBRANCH   1   9
BRANCH   2  18
ATOM     18  C   UNL     1       1.369   8.579  20.577  0.00  0.00    +0.000 A 
ATOM     19  C   UNL     1       0.490   9.562  20.183  0.00  0.00    +0.000 A 
ATOM     20  C   UNL     1       0.165  10.263  21.370  0.00  0.00    +0.000 A 
ATOM     21  N   UNL     1       0.849   9.753  22.408  0.00  0.00    +0.000 NA
ATOM     22  O   UNL     1       1.600   8.708  21.909  0.00  0.00    +0.000 OA
BRANCH  20  23
ATOM     23  C   UNL     1      -0.790  11.358  21.542  0.00  0.00    +0.000 A 
ATOM     24  C   UNL     1      -1.440  11.904  20.421  0.00  0.00    +0.000 A 
ATOM     25  C   UNL     1      -2.328  12.973  20.552  0.00  0.00    +0.000 A 
ATOM     26  C   UNL     1      -2.584  13.506  21.814  0.00  0.00    +0.000 A 
ATOM     27  C   UNL     1      -1.951  12.964  22.926  0.00  0.00    +0.000 A 
ATOM     28  F   UNL     1      -2.203  13.476  24.137  0.00  0.00    +0.000 F 
ATOM     29  C   UNL     1      -1.056  11.901  22.804  0.00  0.00    +0.000 A 
ENDBRANCH  20  23
ENDBRANCH   2  18
TORSDOF 4
ENDMDL
MODEL 6
REMARK VINA RESULT:      -7.9      6.103      8.192
REMARK  Name = 
REMARK  4 active torsions:
REMARK  status: ('A' for Active; 'I' for Inactive)
REMARK    1  A    between atoms: N_4  and  C_5
REMARK    2  A    between atoms: C_9  and  N_10
REMARK    3  A    between atoms: C_11  and  C_13
REMARK    4  A    between atoms: C_15  and  C_16
REMARK                            x       y       z     vdW  Elec       q    Type
REMARK                         _______ _______ _______ _____ _____    ______ ____
ROOT
ATOM      1  N   UNL     1       2.764   7.099  18.093  0.00  0.00    +0.000 N 
ATOM      2  C   UNL     1       3.717   6.171  18.502  0.00  0.00    +0.000 C 
ATOM      3  O   UNL     1       4.045   5.964  19.667  0.00  0.00    +0.000 OA
ATOM      4  H   UNL     1       2.519   7.085  17.109  0.00  0.00    +0.000 HD
ENDROOT
BRANCH   1   9
ATOM      5  C   UNL     1       0.742  10.045  19.150  0.00  0.00    +0.000 A 
ATOM      6  C   UNL     1       0.513   9.739  20.492  0.00  0.00    +0.000 A 
ATOM      7  C   UNL     1       1.069   8.597  21.061  0.00  0.00    +0.000 A 
ATOM      8  C   UNL     1       1.834   7.732  20.287  0.00  0.00    +0.000 A 
ATOM      9  C   UNL     1       2.036   7.980  18.927  0.00  0.00    +0.000 A 
ATOM     10  C   UNL     1       1.497   9.153  18.366  0.00  0.00    +0.000 A 
BRANCH   5  14
ATOM     11  N   UNL     1      -1.230  12.613  17.504  0.00  0.00    +0.000 N 
ATOM     12  C   UNL     1      -1.052  11.389  18.079  0.00  0.00    +0.000 C 
ATOM     13  O   UNL     1      -1.996  10.618  18.138  0.00  0.00    +0.000 OA
ATOM     14  N   UNL     1       0.227  11.217  18.550  0.00  0.00    +0.000 N 
ATOM     15  H   UNL     1      -2.157  12.694  17.095  0.00  0.00    +0.000 HD
ATOM     16  H   UNL     1      -0.493  12.943  16.900  0.00  0.00    +0.000 HD
ATOM     17  H   UNL     1       0.767  12.065  18.644  0.00  0.00    +0.000 HD
ENDBRANCH   5  14
ENDBRANCH   1   9
BRANCH   2  18
ATOM     18  C   UNL     1       4.293   5.390  17.433  0.00  0.00    +0.000 A 
ATOM     19  C   UNL     1       4.812   5.768  16.216  0.00  0.00    +0.000 A 
ATOM     20  C   UNL     1       5.294   4.570  15.634  0.00  0.00    +0.000 A 
ATOM     21  N   UNL     1       5.037   3.528  16.442  0.00  0.00    +0.000 NA
ATOM     22  O   UNL     1       4.410   4.042  17.559  0.00  0.00    +0.000 OA
BRANCH  20  23
ATOM     23  C   UNL     1       6.015   4.404  14.371  0.00  0.00    +0.000 A 
ATOM     24  C   UNL     1       7.140   5.200  14.096  0.00  0.00    +0.000 A 
ATOM     25  C   UNL     1       7.824   5.088  12.884  0.00  0.00    +0.000 A 
ATOM     26  C   UNL     1       7.392   4.167  11.931  0.00  0.00    +0.000 A 
ATOM     27  C   UNL     1       6.285   3.372  12.203  0.00  0.00    +0.000 A 
ATOM     28  F   UNL     1       5.877   2.484  11.287  0.00  0.00    +0.000 F 
ATOM     29  C   UNL     1       5.592   3.482  13.407  0.00  0.00    +0.000 A 
ENDBRANCH  20  23
ENDBRANCH   2  18
TORSDOF 4
ENDMDL
MODEL 7
REMARK VINA RESULT:      -7.9      6.461      7.830
REMARK  Name = 
REMARK  4 active torsions:
REMARK  status: ('A' for Active; 'I' for Inactive)
REMARK    1  A    between atoms: N_4  and  C_5
REMARK    2  A    between atoms: C_9  and  N_10
REMARK    3  A    between atoms: C_11  and  C_13
REMARK    4  A    between atoms: C_15  and  C_16
REMARK                            x       y       z     vdW  Elec       q    Type
REMARK                         _______ _______ _______ _____ _____    ______ ____
ROOT
ATOM      1  N   UNL     1       2.433   6.835  19.924  0.00  0.00    +0.000 N 
ATOM      2  C   UNL     1       2.244   7.746  18.889  0.00  0.00    +0.000 C 
ATOM      3  O   UNL     1       2.536   7.548  17.714  0.00  0.00    +0.000 OA
ATOM      4  H   UNL     1       2.046   7.093  20.825  0.00  0.00    +0.000 HD
ENDROOT
BRANCH   1   9
ATOM      5  C   UNL     1       4.944   4.185  19.174  0.00  0.00    +0.000 A 
ATOM      6  C   UNL     1       4.276   3.052  19.640  0.00  0.00    +0.000 A 
ATOM      7  C   UNL     1       2.984   3.151  20.146  0.00  0.00    +0.000 A 
ATOM      8  C   UNL     1       2.356   4.389  20.222  0.00  0.00    +0.000 A 
ATOM      9  C   UNL     1       3.017   5.551  19.817  0.00  0.00    +0.000 A 
ATOM     10  C   UNL     1       4.311   5.439  19.276  0.00  0.00    +0.000 A 
BRANCH   5  14
ATOM     11  N   UNL     1       7.918   4.294  17.092  0.00  0.00    +0.000 N 
ATOM     12  C   UNL     1       6.605   4.547  17.363  0.00  0.00    +0.000 C 
ATOM     13  O   UNL     1       5.926   5.119  16.526  0.00  0.00    +0.000 OA
ATOM     14  N   UNL     1       6.240   4.116  18.616  0.00  0.00    +0.000 N 
ATOM     15  H   UNL     1       8.151   4.549  16.137  0.00  0.00    +0.000 HD
ATOM     16  H   UNL     1       8.272   3.390  17.365  0.00  0.00    +0.000 HD
ATOM     17  H   UNL     1       7.008   3.919  19.241  0.00  0.00    +0.000 HD
ENDBRANCH   5  14
ENDBRANCH   1   9
BRANCH   2  18
ATOM     18  C   UNL     1       1.606   8.980  19.284  0.00  0.00    +0.000 A 
ATOM     19  C   UNL     1       0.903   9.310  20.421  0.00  0.00    +0.000 A 
ATOM     20  C   UNL     1       0.588  10.684  20.272  0.00  0.00    +0.000 A 
ATOM     21  N   UNL     1       1.043  11.135  19.091  0.00  0.00    +0.000 NA
ATOM     22  O   UNL     1       1.672  10.071  18.478  0.00  0.00    +0.000 OA
BRANCH  20  23
ATOM     23  C   UNL     1      -0.085  11.565  21.226  0.00  0.00    +0.000 A 
ATOM     24  C   UNL     1       0.306  12.911  21.335  0.00  0.00    +0.000 A 
ATOM     25  C   UNL     1      -0.294  13.765  22.262  0.00  0.00    +0.000 A 
ATOM     26  C   UNL     1      -1.305  13.281  23.090  0.00  0.00    +0.000 A 
ATOM     27  C   UNL     1      -1.701  11.953  22.980  0.00  0.00    +0.000 A 
ATOM     28  F   UNL     1      -2.676  11.494  23.775  0.00  0.00    +0.000 F 
ATOM     29  C   UNL     1      -1.102  11.092  22.062  0.00  0.00    +0.000 A 
ENDBRANCH  20  23
ENDBRANCH   2  18
TORSDOF 4
ENDMDL
MODEL 8
REMARK VINA RESULT:      -7.9      6.596      8.183
REMARK  Name = 
REMARK  4 active torsions:
REMARK  status: ('A' for Active; 'I' for Inactive)
REMARK    1  A    between atoms: N_4  and  C_5
REMARK    2  A    between atoms: C_9  and  N_10
REMARK    3  A    between atoms: C_11  and  C_13
REMARK    4  A    between atoms: C_15  and  C_16
REMARK                            x       y       z     vdW  Elec       q    Type
REMARK                         _______ _______ _______ _____ _____    ______ ____
ROOT
ATOM      1  N   UNL     1       2.164   7.101  18.673  0.00  0.00    +0.000 N 
ATOM      2  C   UNL     1       2.274   8.295  17.965  0.00  0.00    +0.000 C 
ATOM      3  O   UNL     1       2.856   8.427  16.892  0.00  0.00    +0.000 OA
ATOM      4  H   UNL     1       1.563   7.118  19.489  0.00  0.00    +0.000 HD
ENDROOT
BRANCH   1   9
ATOM      5  C   UNL     1       4.695   4.415  18.158  0.00  0.00    +0.000 A 
ATOM      6  C   UNL     1       3.888   3.382  17.680  0.00  0.00    +0.000 A 
ATOM      7  C   UNL     1       2.528   3.586  17.473  0.00  0.00    +0.000 A 
ATOM      8  C   UNL     1       1.952   4.816  17.774  0.00  0.00    +0.000 A 
ATOM      9  C   UNL     1       2.720   5.853  18.306  0.00  0.00    +0.000 A 
ATOM     10  C   UNL     1       4.101   5.650  18.482  0.00  0.00    +0.000 A 
BRANCH   5  14
ATOM     11  N   UNL     1       8.310   4.223  17.864  0.00  0.00    +0.000 N 
ATOM     12  C   UNL     1       7.061   4.530  17.410  0.00  0.00    +0.000 C 
ATOM     13  O   UNL     1       6.937   5.012  16.296  0.00  0.00    +0.000 OA
ATOM     14  N   UNL     1       6.087   4.257  18.340  0.00  0.00    +0.000 N 
ATOM     15  H   UNL     1       9.008   4.360  17.138  0.00  0.00    +0.000 HD
ATOM     16  H   UNL     1       8.412   3.351  18.360  0.00  0.00    +0.000 HD
ATOM     17  H   UNL     1       6.422   4.120  19.283  0.00  0.00    +0.000 HD
ENDBRANCH   5  14
ENDBRANCH   1   9
BRANCH   2  18
ATOM     18  C   UNL     1       1.590   9.415  18.566  0.00  0.00    +0.000 A 
ATOM     19  C   UNL     1       0.515   9.462  19.425  0.00  0.00    +0.000 A 
ATOM     20  C   UNL     1       0.345  10.836  19.728  0.00  0.00    +0.000 A 
ATOM     21  N   UNL     1       1.245  11.570  19.052  0.00  0.00    +0.000 NA
ATOM     22  O   UNL     1       2.014  10.683  18.328  0.00  0.00    +0.000 OA
BRANCH  20  23
ATOM     23  C   UNL     1      -0.606  11.447  20.656  0.00  0.00    +0.000 A 
ATOM     24  C   UNL     1      -0.386  11.363  22.042  0.00  0.00    +0.000 A 
ATOM     25  C   UNL     1      -1.296  11.905  22.951  0.00  0.00    +0.000 A 
ATOM     26  C   UNL     1      -2.439  12.549  22.481  0.00  0.00    +0.000 A 
ATOM     27  C   UNL     1      -2.656  12.642  21.112  0.00  0.00    +0.000 A 
ATOM     28  F   UNL     1      -3.753  13.266  20.664  0.00  0.00    +0.000 F 
ATOM     29  C   UNL     1      -1.756  12.097  20.197  0.00  0.00    +0.000 A 
ENDBRANCH  20  23
ENDBRANCH   2  18
TORSDOF 4
ENDMDL
MODEL 9
REMARK VINA RESULT:      -7.9      5.987      8.001
REMARK  Name = 
REMARK  4 active torsions:
REMARK  status: ('A' for Active; 'I' for Inactive)
REMARK    1  A    between atoms: N_4  and  C_5
REMARK    2  A    between atoms: C_9  and  N_10
REMARK    3  A    between atoms: C_11  and  C_13
REMARK    4  A    between atoms: C_15  and  C_16
REMARK                            x       y       z     vdW  Elec       q    Type
REMARK                         _______ _______ _______ _____ _____    ______ ____
ROOT
ATOM      1  N   UNL     1       4.239   7.069  17.470  0.00  0.00    +0.000 N 
ATOM      2  C   UNL     1       3.252   6.929  18.442  0.00  0.00    +0.000 C 
ATOM      3  O   UNL     1       3.164   5.988  19.226  0.00  0.00    +0.000 OA
ATOM      4  H   UNL     1       4.250   7.949  16.967  0.00  0.00    +0.000 HD
ENDROOT
BRANCH   1   9
ATOM      5  C   UNL     1       6.204   4.431  15.721  0.00  0.00    +0.000 A 
ATOM      6  C   UNL     1       7.340   4.370  16.529  0.00  0.00    +0.000 A 
ATOM      7  C   UNL     1       7.434   5.152  17.676  0.00  0.00    +0.000 A 
ATOM      8  C   UNL     1       6.407   6.028  18.011  0.00  0.00    +0.000 A 
ATOM      9  C   UNL     1       5.282   6.154  17.194  0.00  0.00    +0.000 A 
ATOM     10  C   UNL     1       5.180   5.337  16.052  0.00  0.00    +0.000 A 
BRANCH   5  14
ATOM     11  N   UNL     1       6.194   2.952  12.403  0.00  0.00    +0.000 N 
ATOM     12  C   UNL     1       6.547   3.900  13.318  0.00  0.00    +0.000 C 
ATOM     13  O   UNL     1       7.242   4.837  12.962  0.00  0.00    +0.000 OA
ATOM     14  N   UNL     1       6.057   3.622  14.572  0.00  0.00    +0.000 N 
ATOM     15  H   UNL     1       6.499   3.212  11.469  0.00  0.00    +0.000 HD
ATOM     16  H   UNL     1       5.243   2.619  12.438  0.00  0.00    +0.000 HD
ATOM     17  H   UNL     1       5.742   2.672  14.707  0.00  0.00    +0.000 HD
ENDBRANCH   5  14
ENDBRANCH   1   9
BRANCH   2  18
ATOM     18  C   UNL     1       2.321   8.029  18.515  0.00  0.00    +0.000 A 
ATOM     19  C   UNL     1       1.472   8.429  19.523  0.00  0.00    +0.000 A 
ATOM     20  C   UNL     1       0.865   9.616  19.043  0.00  0.00    +0.000 A 
ATOM     21  N   UNL     1       1.298   9.885  17.800  0.00  0.00    +0.000 NA
ATOM     22  O   UNL     1       2.200   8.893  17.474  0.00  0.00    +0.000 OA
BRANCH  20  23
ATOM     23  C   UNL     1      -0.066  10.502  19.742  0.00  0.00    +0.000 A 
ATOM     24  C   UNL     1      -1.056  11.191  19.020  0.00  0.00    +0.000 A 
ATOM     25  C   UNL     1      -1.933  12.070  19.657  0.00  0.00    +0.000 A 
ATOM     26  C   UNL     1      -1.836  12.265  21.033  0.00  0.00    +0.000 A 
ATOM     27  C   UNL     1      -0.864  11.579  21.753  0.00  0.00    +0.000 A 
ATOM     28  F   UNL     1      -0.777  11.765  23.076  0.00  0.00    +0.000 F 
ATOM     29  C   UNL     1       0.021  10.705  21.124  0.00  0.00    +0.000 A 
ENDBRANCH  20  23
ENDBRANCH   2  18
TORSDOF 4
ENDMDL
