MODEL 1
REMARK VINA RESULT:      -7.8      0.000      0.000
REMARK  Name = 
REMARK  6 active torsions:
REMARK  status: ('A' for Active; 'I' for Inactive)
REMARK    1  A    between atoms: C_1  and  C_2
REMARK    2  A    between atoms: C_4  and  C_5
REMARK    3  A    between atoms: C_5  and  N_6
REMARK    4  A    between atoms: C_7  and  C_9
REMARK    5  A    between atoms: N_11  and  C_12
REMARK    6  A    between atoms: C_19  and  C_20
REMARK                            x       y       z     vdW  Elec       q    Type
REMARK                         _______ _______ _______ _____ _____    ______ ____
ROOT
ATOM      1  N   UNL     1       2.828   6.340  19.316  0.00  0.00    +0.000 N 
ATOM      2  C   UNL     1       2.271   7.507  18.818  0.00  0.00    +0.000 C 
ATOM      3  O   UNL     1       2.223   7.784  17.622  0.00  0.00    +0.000 OA
ATOM      4  H   UNL     1       2.752   6.169  20.317  0.00  0.00    +0.000 HD
ENDROOT
BRANCH   2   5
ATOM      5  C   UNL     1       1.632   8.457  19.822  0.00  0.00    +0.000 A 
ATOM      6  N   UNL     1       1.523   9.715  19.491  0.00  0.00    +0.000 NA
ATOM      7  N   UNL     1       0.777  10.586  20.273  0.00  0.00    +0.000 N 
ATOM      8  C   UNL     1       0.035  10.121  21.383  0.00  0.00    +0.000 A 
ATOM      9  C   UNL     1      -0.981  10.971  22.108  0.00  0.00    +0.000 C 
ATOM     10  C   UNL     1       0.147   8.858  21.829  0.00  0.00    +0.000 A 
ATOM     11  C   UNL     1       1.074   7.973  21.128  0.00  0.00    +0.000 A 
ATOM     12  O   UNL     1       1.402   6.880  21.580  0.00  0.00    +0.000 OA
BRANCH   7  13
ATOM     13  C   UNL     1       0.805  11.950  19.795  0.00  0.00    +0.000 A 
ATOM     14  C   UNL     1       1.814  12.841  20.231  0.00  0.00    +0.000 A 
ATOM     15  C   UNL     1       1.882  14.173  19.801  0.00  0.00    +0.000 A 
ATOM     16  C   UNL     1       0.985  14.646  18.856  0.00  0.00    +0.000 A 
ATOM     17  C   UNL     1      -0.003  13.795  18.371  0.00  0.00    +0.000 A 
ATOM     18  C   UNL     1      -0.115  12.473  18.847  0.00  0.00    +0.000 A 
ATOM     19 CL   UNL     1      -1.506  11.618  18.258  0.00  0.00    +0.000 Cl
ENDBRANCH   7  13
ENDBRANCH   2   5
BRANCH   1  20
ATOM     20  C   UNL     1       3.473   5.305  18.469  0.00  0.00    +0.000 C 
ATOM     21  C   UNL     1       4.029   4.167  19.364  0.00  0.00    +0.000 C 
ATOM     22  C   UNL     1       2.951   3.321  20.041  0.00  0.00    +0.000 C 
ATOM     23  C   UNL     1       1.918   2.775  19.065  0.00  0.00    +0.000 C 
ATOM     24  C   UNL     1       1.379   3.819  18.094  0.00  0.00    +0.000 C 
ATOM     25  C   UNL     1       2.466   4.684  17.461  0.00  0.00    +0.000 C 
BRANCH  20  29
ATOM     26  C   UNL     1       7.782   7.594  17.418  0.00  0.00    +0.000 C 
ATOM     27  C   UNL     1       6.492   6.887  17.403  0.00  0.00    +0.000 A 
ATOM     28  N   UNL     1       5.775   6.414  18.398  0.00  0.00    +0.000 NA
ATOM     29  C   UNL     1       4.656   5.941  17.741  0.00  0.00    +0.000 A 
ATOM     30  N   UNL     1       4.729   6.019  16.401  0.00  0.00    +0.000 NA
ATOM     31  O   UNL     1       5.936   6.672  16.179  0.00  0.00    +0.000 OA
ENDBRANCH  20  29
ENDBRANCH   1  20
TORSDOF 4
ENDMDL
MODEL 2
REMARK VINA RESULT:      -7.7      1.821      3.142
REMARK  Name = 
REMARK  6 active torsions:
REMARK  status: ('A' for Active; 'I' for Inactive)
REMARK    1  A    between atoms: C_1  and  C_2
REMARK    2  A    between atoms: C_4  and  C_5
REMARK    3  A    between atoms: C_5  and  N_6
REMARK    4  A    between atoms: C_7  and  C_9
REMARK    5  A    between atoms: N_11  and  C_12
REMARK    6  A    between atoms: C_19  and  C_20
REMARK                            x       y       z     vdW  Elec       q    Type
REMARK                         _______ _______ _______ _____ _____    ______ ____
ROOT
ATOM      1  N   UNL     1       2.529   6.270  18.682  0.00  0.00    +0.000 N 
ATOM      2  C   UNL     1       2.237   7.157  19.706  0.00  0.00    +0.000 C 
ATOM      3  O   UNL     1       2.447   6.921  20.893  0.00  0.00    +0.000 OA
ATOM      4  H   UNL     1       2.386   6.589  17.725  0.00  0.00    +0.000 HD
ENDROOT
BRANCH   2   5
ATOM      5  C   UNL     1       1.682   8.519  19.311  0.00  0.00    +0.000 A 
ATOM      6  N   UNL     1       0.892   9.126  20.154  0.00  0.00    +0.000 NA
ATOM      7  N   UNL     1       0.517  10.445  19.941  0.00  0.00    +0.000 N 
ATOM      8  C   UNL     1       1.055  11.196  18.870  0.00  0.00    +0.000 A 
ATOM      9  C   UNL     1       0.876  12.691  18.741  0.00  0.00    +0.000 C 
ATOM     10  C   UNL     1       1.818  10.627  17.922  0.00  0.00    +0.000 A 
ATOM     11  C   UNL     1       2.072   9.193  18.028  0.00  0.00    +0.000 A 
ATOM     12  O   UNL     1       2.573   8.548  17.112  0.00  0.00    +0.000 OA
BRANCH   7  13
ATOM     13  C   UNL     1      -0.401  10.947  20.939  0.00  0.00    +0.000 A 
ATOM     14  C   UNL     1      -1.387  11.899  20.591  0.00  0.00    +0.000 A 
ATOM     15  C   UNL     1      -2.297  12.419  21.521  0.00  0.00    +0.000 A 
ATOM     16  C   UNL     1      -2.304  11.948  22.825  0.00  0.00    +0.000 A 
ATOM     17  C   UNL     1      -1.375  10.985  23.205  0.00  0.00    +0.000 A 
ATOM     18  C   UNL     1      -0.418  10.505  22.289  0.00  0.00    +0.000 A 
ATOM     19 CL   UNL     1       0.763   9.439  22.984  0.00  0.00    +0.000 Cl
ENDBRANCH   7  13
ENDBRANCH   2   5
BRANCH   1  20
ATOM     20  C   UNL     1       3.090   4.913  18.899  0.00  0.00    +0.000 C 
ATOM     21  C   UNL     1       2.652   4.382  20.290  0.00  0.00    +0.000 C 
ATOM     22  C   UNL     1       1.159   4.072  20.398  0.00  0.00    +0.000 C 
ATOM     23  C   UNL     1       0.657   3.153  19.294  0.00  0.00    +0.000 C 
ATOM     24  C   UNL     1       1.113   3.563  17.899  0.00  0.00    +0.000 C 
ATOM     25  C   UNL     1       2.597   3.911  17.818  0.00  0.00    +0.000 C 
BRANCH  20  29
ATOM     26  C   UNL     1       7.789   6.493  18.321  0.00  0.00    +0.000 C 
ATOM     27  C   UNL     1       6.546   5.773  18.640  0.00  0.00    +0.000 A 
ATOM     28  N   UNL     1       5.294   6.148  18.505  0.00  0.00    +0.000 NA
ATOM     29  C   UNL     1       4.615   5.012  18.901  0.00  0.00    +0.000 A 
ATOM     30  N   UNL     1       5.407   4.028  19.361  0.00  0.00    +0.000 NA
ATOM     31  O   UNL     1       6.690   4.523  19.160  0.00  0.00    +0.000 OA
ENDBRANCH  20  29
ENDBRANCH   1  20
TORSDOF 4
ENDMDL
MODEL 3
REMARK VINA RESULT:      -7.7      1.554      2.870
REMARK  Name = 
REMARK  6 active torsions:
REMARK  status: ('A' for Active; 'I' for Inactive)
REMARK    1  A    between atoms: C_1  and  C_2
REMARK    2  A    between atoms: C_4  and  C_5
REMARK    3  A    between atoms: C_5  and  N_6
REMARK    4  A    between atoms: C_7  and  C_9
REMARK    5  A    between atoms: N_11  and  C_12
REMARK    6  A    between atoms: C_19  and  C_20
REMARK                            x       y       z     vdW  Elec       q    Type
REMARK                         _______ _______ _______ _____ _____    ______ ____
ROOT
ATOM      1  N   UNL     1       2.484   6.291  18.685  0.00  0.00    +0.000 N 
ATOM      2  C   UNL     1       2.222   7.215  19.685  0.00  0.00    +0.000 C 
ATOM      3  O   UNL     1       2.437   7.010  20.876  0.00  0.00    +0.000 OA
ATOM      4  H   UNL     1       2.341   6.585  17.720  0.00  0.00    +0.000 HD
ENDROOT
BRANCH   2   5
ATOM      5  C   UNL     1       1.698   8.578  19.254  0.00  0.00    +0.000 A 
ATOM      6  N   UNL     1       0.860   9.190  20.045  0.00  0.00    +0.000 NA
ATOM      7  N   UNL     1       0.504  10.511  19.806  0.00  0.00    +0.000 N 
ATOM      8  C   UNL     1       1.109  11.256  18.769  0.00  0.00    +0.000 A 
ATOM      9  C   UNL     1       0.944  12.752  18.626  0.00  0.00    +0.000 C 
ATOM     10  C   UNL     1       1.927  10.683  17.871  0.00  0.00    +0.000 A 
ATOM     11  C   UNL     1       2.169   9.248  17.995  0.00  0.00    +0.000 A 
ATOM     12  O   UNL     1       2.723   8.599  17.114  0.00  0.00    +0.000 OA
BRANCH   7  13
ATOM     13  C   UNL     1      -0.472  11.017  20.745  0.00  0.00    +0.000 A 
ATOM     14  C   UNL     1      -0.233  10.942  22.137  0.00  0.00    +0.000 A 
ATOM     15  C   UNL     1      -1.149  11.415  23.087  0.00  0.00    +0.000 A 
ATOM     16  C   UNL     1      -2.310  12.051  22.677  0.00  0.00    +0.000 A 
ATOM     17  C   UNL     1      -2.571  12.180  21.317  0.00  0.00    +0.000 A 
ATOM     18  C   UNL     1      -1.684  11.650  20.359  0.00  0.00    +0.000 A 
ATOM     19 CL   UNL     1      -2.256  11.753  18.723  0.00  0.00    +0.000 Cl
ENDBRANCH   7  13
ENDBRANCH   2   5
BRANCH   1  20
ATOM     20  C   UNL     1       3.013   4.928  18.939  0.00  0.00    +0.000 C 
ATOM     21  C   UNL     1       2.583   4.454  20.353  0.00  0.00    +0.000 C 
ATOM     22  C   UNL     1       1.085   4.188  20.495  0.00  0.00    +0.000 C 
ATOM     23  C   UNL     1       0.541   3.247  19.429  0.00  0.00    +0.000 C 
ATOM     24  C   UNL     1       0.985   3.599  18.014  0.00  0.00    +0.000 C 
ATOM     25  C   UNL     1       2.476   3.904  17.899  0.00  0.00    +0.000 C 
BRANCH  20  29
ATOM     26  C   UNL     1       7.741   6.414  18.354  0.00  0.00    +0.000 C 
ATOM     27  C   UNL     1       6.485   5.710  18.656  0.00  0.00    +0.000 A 
ATOM     28  N   UNL     1       5.241   6.125  18.570  0.00  0.00    +0.000 NA
ATOM     29  C   UNL     1       4.540   4.986  18.914  0.00  0.00    +0.000 A 
ATOM     30  N   UNL     1       5.313   3.956  19.299  0.00  0.00    +0.000 NA
ATOM     31  O   UNL     1       6.605   4.428  19.100  0.00  0.00    +0.000 OA
ENDBRANCH  20  29
ENDBRANCH   1  20
TORSDOF 4
ENDMDL
MODEL 4
REMARK VINA RESULT:      -7.5      0.832      1.003
REMARK  Name = 
REMARK  6 active torsions:
REMARK  status: ('A' for Active; 'I' for Inactive)
REMARK    1  A    between atoms: C_1  and  C_2
REMARK    2  A    between atoms: C_4  and  C_5
REMARK    3  A    between atoms: C_5  and  N_6
REMARK    4  A    between atoms: C_7  and  C_9
REMARK    5  A    between atoms: N_11  and  C_12
REMARK    6  A    between atoms: C_19  and  C_20
REMARK                            x       y       z     vdW  Elec       q    Type
REMARK                         _______ _______ _______ _____ _____    ______ ____
ROOT
ATOM      1  N   UNL     1       2.729   6.376  19.698  0.00  0.00    +0.000 N 
ATOM      2  C   UNL     1       2.261   7.529  19.088  0.00  0.00    +0.000 C 
ATOM      3  O   UNL     1       2.336   7.742  17.881  0.00  0.00    +0.000 OA
ATOM      4  H   UNL     1       2.552   6.263  20.694  0.00  0.00    +0.000 HD
ENDROOT
BRANCH   2   5
ATOM      5  C   UNL     1       1.560   8.550  19.974  0.00  0.00    +0.000 A 
ATOM      6  N   UNL     1       1.585   9.802  19.604  0.00  0.00    +0.000 NA
ATOM      7  N   UNL     1       0.802  10.744  20.258  0.00  0.00    +0.000 N 
ATOM      8  C   UNL     1      -0.112  10.364  21.267  0.00  0.00    +0.000 A 
ATOM      9  C   UNL     1      -1.156  11.302  21.828  0.00  0.00    +0.000 C 
ATOM     10  C   UNL     1      -0.149   9.111  21.751  0.00  0.00    +0.000 A 
ATOM     11  C   UNL     1       0.799   8.145  21.203  0.00  0.00    +0.000 A 
ATOM     12  O   UNL     1       0.986   7.048  21.719  0.00  0.00    +0.000 OA
BRANCH   7  13
ATOM     13  C   UNL     1       0.989  12.088  19.758  0.00  0.00    +0.000 A 
ATOM     14  C   UNL     1       2.081  12.871  20.202  0.00  0.00    +0.000 A 
ATOM     15  C   UNL     1       2.304  14.180  19.752  0.00  0.00    +0.000 A 
ATOM     16  C   UNL     1       1.483  14.730  18.780  0.00  0.00    +0.000 A 
ATOM     17  C   UNL     1       0.417  13.983  18.288  0.00  0.00    +0.000 A 
ATOM     18  C   UNL     1       0.151  12.691  18.783  0.00  0.00    +0.000 A 
ATOM     19 CL   UNL     1      -1.313  11.982  18.178  0.00  0.00    +0.000 Cl
ENDBRANCH   7  13
ENDBRANCH   2   5
BRANCH   1  20
ATOM     20  C   UNL     1       3.417   5.280  18.972  0.00  0.00    +0.000 C 
ATOM     21  C   UNL     1       3.388   3.986  19.828  0.00  0.00    +0.000 C 
ATOM     22  C   UNL     1       1.998   3.370  19.982  0.00  0.00    +0.000 C 
ATOM     23  C   UNL     1       1.292   3.146  18.652  0.00  0.00    +0.000 C 
ATOM     24  C   UNL     1       1.345   4.348  17.719  0.00  0.00    +0.000 C 
ATOM     25  C   UNL     1       2.731   4.978  17.610  0.00  0.00    +0.000 C 
BRANCH  20  29
ATOM     26  C   UNL     1       7.664   7.196  17.183  0.00  0.00    +0.000 C 
ATOM     27  C   UNL     1       6.603   6.536  17.958  0.00  0.00    +0.000 A 
ATOM     28  N   UNL     1       5.303   6.511  17.762  0.00  0.00    +0.000 NA
ATOM     29  C   UNL     1       4.881   5.671  18.774  0.00  0.00    +0.000 A 
ATOM     30  N   UNL     1       5.856   5.288  19.617  0.00  0.00    +0.000 NA
ATOM     31  O   UNL     1       7.003   5.840  19.057  0.00  0.00    +0.000 OA
ENDBRANCH  20  29
ENDBRANCH   1  20
TORSDOF 4
ENDMDL
MODEL 5
REMARK VINA RESULT:      -7.4      2.022      4.442
REMARK  Name = 
REMARK  6 active torsions:
REMARK  status: ('A' for Active; 'I' for Inactive)
REMARK    1  A    between atoms: C_1  and  C_2
REMARK    2  A    between atoms: C_4  and  C_5
REMARK    3  A    between atoms: C_5  and  N_6
REMARK    4  A    between atoms: C_7  and  C_9
REMARK    5  A    between atoms: N_11  and  C_12
REMARK    6  A    between atoms: C_19  and  C_20
REMARK                            x       y       z     vdW  Elec       q    Type
REMARK                         _______ _______ _______ _____ _____    ______ ____
ROOT
ATOM      1  N   UNL     1       2.925   6.449  18.468  0.00  0.00    +0.000 N 
ATOM      2  C   UNL     1       2.279   7.132  19.487  0.00  0.00    +0.000 C 
ATOM      3  O   UNL     1       2.146   6.692  20.625  0.00  0.00    +0.000 OA
ATOM      4  H   UNL     1       3.049   6.932  17.580  0.00  0.00    +0.000 HD
ENDROOT
BRANCH   2   5
ATOM      5  C   UNL     1       1.768   8.531  19.172  0.00  0.00    +0.000 A 
ATOM      6  N   UNL     1       0.985   9.108  20.043  0.00  0.00    +0.000 NA
ATOM      7  N   UNL     1       0.650  10.448  19.909  0.00  0.00    +0.000 N 
ATOM      8  C   UNL     1       1.223  11.248  18.893  0.00  0.00    +0.000 A 
ATOM      9  C   UNL     1       1.088  12.753  18.857  0.00  0.00    +0.000 C 
ATOM     10  C   UNL     1       1.981  10.718  17.920  0.00  0.00    +0.000 A 
ATOM     11  C   UNL     1       2.194   9.273  17.938  0.00  0.00    +0.000 A 
ATOM     12  O   UNL     1       2.688   8.673  16.989  0.00  0.00    +0.000 OA
BRANCH   7  13
ATOM     13  C   UNL     1      -0.266  10.912  20.926  0.00  0.00    +0.000 A 
ATOM     14  C   UNL     1      -1.261  11.868  20.611  0.00  0.00    +0.000 A 
ATOM     15  C   UNL     1      -2.170  12.353  21.562  0.00  0.00    +0.000 A 
ATOM     16  C   UNL     1      -2.166  11.843  22.851  0.00  0.00    +0.000 A 
ATOM     17  C   UNL     1      -1.228  10.876  23.197  0.00  0.00    +0.000 A 
ATOM     18  C   UNL     1      -0.272  10.431  22.263  0.00  0.00    +0.000 A 
ATOM     19 CL   UNL     1       0.920   9.353  22.919  0.00  0.00    +0.000 Cl
ENDBRANCH   7  13
ENDBRANCH   2   5
BRANCH   1  20
ATOM     20  C   UNL     1       3.494   5.087  18.619  0.00  0.00    +0.000 C 
ATOM     21  C   UNL     1       3.703   4.449  17.219  0.00  0.00    +0.000 C 
ATOM     22  C   UNL     1       4.807   5.107  16.391  0.00  0.00    +0.000 C 
ATOM     23  C   UNL     1       6.132   5.210  17.134  0.00  0.00    +0.000 C 
ATOM     24  C   UNL     1       6.001   5.755  18.551  0.00  0.00    +0.000 C 
ATOM     25  C   UNL     1       4.866   5.118  19.349  0.00  0.00    +0.000 C 
BRANCH  20  29
ATOM     26  C   UNL     1       1.234   2.278  22.070  0.00  0.00    +0.000 C 
ATOM     27  C   UNL     1       1.616   3.075  20.894  0.00  0.00    +0.000 A 
ATOM     28  N   UNL     1       2.693   3.795  20.674  0.00  0.00    +0.000 NA
ATOM     29  C   UNL     1       2.489   4.221  19.376  0.00  0.00    +0.000 A 
ATOM     30  N   UNL     1       1.296   3.873  18.863  0.00  0.00    +0.000 NA
ATOM     31  O   UNL     1       0.729   3.089  19.861  0.00  0.00    +0.000 OA
ENDBRANCH  20  29
ENDBRANCH   1  20
TORSDOF 4
ENDMDL
MODEL 6
REMARK VINA RESULT:      -7.4      1.756      4.252
REMARK  Name = 
REMARK  6 active torsions:
REMARK  status: ('A' for Active; 'I' for Inactive)
REMARK    1  A    between atoms: C_1  and  C_2
REMARK    2  A    between atoms: C_4  and  C_5
REMARK    3  A    between atoms: C_5  and  N_6
REMARK    4  A    between atoms: C_7  and  C_9
REMARK    5  A    between atoms: N_11  and  C_12
REMARK    6  A    between atoms: C_19  and  C_20
REMARK                            x       y       z     vdW  Elec       q    Type
REMARK                         _______ _______ _______ _____ _____    ______ ____
ROOT
ATOM      1  N   UNL     1       2.966   6.432  18.473  0.00  0.00    +0.000 N 
ATOM      2  C   UNL     1       2.302   7.135  19.465  0.00  0.00    +0.000 C 
ATOM      3  O   UNL     1       2.143   6.717  20.609  0.00  0.00    +0.000 OA
ATOM      4  H   UNL     1       3.110   6.897  17.579  0.00  0.00    +0.000 HD
ENDROOT
BRANCH   2   5
ATOM      5  C   UNL     1       1.804   8.531  19.115  0.00  0.00    +0.000 A 
ATOM      6  N   UNL     1       0.982   9.114  19.944  0.00  0.00    +0.000 NA
ATOM      7  N   UNL     1       0.652  10.453  19.782  0.00  0.00    +0.000 N 
ATOM      8  C   UNL     1       1.269  11.244  18.786  0.00  0.00    +0.000 A 
ATOM      9  C   UNL     1       1.134  12.748  18.729  0.00  0.00    +0.000 C 
ATOM     10  C   UNL     1       2.071  10.706  17.852  0.00  0.00    +0.000 A 
ATOM     11  C   UNL     1       2.284   9.261  17.894  0.00  0.00    +0.000 A 
ATOM     12  O   UNL     1       2.821   8.653  16.974  0.00  0.00    +0.000 OA
BRANCH   7  13
ATOM     13  C   UNL     1      -0.309  10.926  20.753  0.00  0.00    +0.000 A 
ATOM     14  C   UNL     1      -0.076  10.748  22.137  0.00  0.00    +0.000 A 
ATOM     15  C   UNL     1      -0.979  11.184  23.117  0.00  0.00    +0.000 A 
ATOM     16  C   UNL     1      -2.118  11.883  22.751  0.00  0.00    +0.000 A 
ATOM     17  C   UNL     1      -2.371  12.113  21.403  0.00  0.00    +0.000 A 
ATOM     18  C   UNL     1      -1.499  11.622  20.411  0.00  0.00    +0.000 A 
ATOM     19 CL   UNL     1      -2.064  11.855  18.786  0.00  0.00    +0.000 Cl
ENDBRANCH   7  13
ENDBRANCH   2   5
BRANCH   1  20
ATOM     20  C   UNL     1       3.525   5.069  18.661  0.00  0.00    +0.000 C 
ATOM     21  C   UNL     1       3.764   4.406  17.278  0.00  0.00    +0.000 C 
ATOM     22  C   UNL     1       4.890   5.046  16.465  0.00  0.00    +0.000 C 
ATOM     23  C   UNL     1       6.197   5.156  17.236  0.00  0.00    +0.000 C 
ATOM     24  C   UNL     1       6.036   5.727  18.640  0.00  0.00    +0.000 C 
ATOM     25  C   UNL     1       4.880   5.108  19.422  0.00  0.00    +0.000 C 
BRANCH  20  29
ATOM     26  C   UNL     1       1.194   2.286  22.085  0.00  0.00    +0.000 C 
ATOM     27  C   UNL     1       1.597   3.083  20.916  0.00  0.00    +0.000 A 
ATOM     28  N   UNL     1       2.690   3.780  20.704  0.00  0.00    +0.000 NA
ATOM     29  C   UNL     1       2.499   4.221  19.409  0.00  0.00    +0.000 A 
ATOM     30  N   UNL     1       1.300   3.904  18.890  0.00  0.00    +0.000 NA
ATOM     31  O   UNL     1       0.713   3.125  19.881  0.00  0.00    +0.000 OA
ENDBRANCH  20  29
ENDBRANCH   1  20
TORSDOF 4
ENDMDL
MODEL 7
REMARK VINA RESULT:      -7.1      1.390      3.262
REMARK  Name = 
REMARK  6 active torsions:
REMARK  status: ('A' for Active; 'I' for Inactive)
REMARK    1  A    between atoms: C_1  and  C_2
REMARK    2  A    between atoms: C_4  and  C_5
REMARK    3  A    between atoms: C_5  and  N_6
REMARK    4  A    between atoms: C_7  and  C_9
REMARK    5  A    between atoms: N_11  and  C_12
REMARK    6  A    between atoms: C_19  and  C_20
REMARK                            x       y       z     vdW  Elec       q    Type
REMARK                         _______ _______ _______ _____ _____    ______ ____
ROOT
ATOM      1  N   UNL     1       3.432   6.420  19.179  0.00  0.00    +0.000 N 
ATOM      2  C   UNL     1       2.446   7.275  18.712  0.00  0.00    +0.000 C 
ATOM      3  O   UNL     1       2.016   7.259  17.562  0.00  0.00    +0.000 OA
ATOM      4  H   UNL     1       3.666   6.463  20.169  0.00  0.00    +0.000 HD
ENDROOT
BRANCH   2   5
ATOM      5  C   UNL     1       1.831   8.241  19.716  0.00  0.00    +0.000 A 
ATOM      6  N   UNL     1       1.661   9.482  19.347  0.00  0.00    +0.000 NA
ATOM      7  N   UNL     1       0.929  10.357  20.138  0.00  0.00    +0.000 N 
ATOM      8  C   UNL     1       0.267   9.910  21.304  0.00  0.00    +0.000 A 
ATOM      9  C   UNL     1      -0.737  10.754  22.055  0.00  0.00    +0.000 C 
ATOM     10  C   UNL     1       0.447   8.670  21.788  0.00  0.00    +0.000 A 
ATOM     11  C   UNL     1       1.363   7.789  21.069  0.00  0.00    +0.000 A 
ATOM     12  O   UNL     1       1.753   6.725  21.540  0.00  0.00    +0.000 OA
BRANCH   7  13
ATOM     13  C   UNL     1       0.884  11.702  19.611  0.00  0.00    +0.000 A 
ATOM     14  C   UNL     1       1.914  12.624  19.910  0.00  0.00    +0.000 A 
ATOM     15  C   UNL     1       1.914  13.940  19.427  0.00  0.00    +0.000 A 
ATOM     16  C   UNL     1       0.918  14.363  18.562  0.00  0.00    +0.000 A 
ATOM     17  C   UNL     1      -0.098  13.480  18.210  0.00  0.00    +0.000 A 
ATOM     18  C   UNL     1      -0.137  12.176  18.743  0.00  0.00    +0.000 A 
ATOM     19 CL   UNL     1      -1.564  11.278  18.330  0.00  0.00    +0.000 Cl
ENDBRANCH   7  13
ENDBRANCH   2   5
BRANCH   1  20
ATOM     20  C   UNL     1       4.116   5.410  18.332  0.00  0.00    +0.000 C 
ATOM     21  C   UNL     1       4.486   6.039  16.962  0.00  0.00    +0.000 C 
ATOM     22  C   UNL     1       5.578   7.106  17.039  0.00  0.00    +0.000 C 
ATOM     23  C   UNL     1       6.830   6.630  17.762  0.00  0.00    +0.000 C 
ATOM     24  C   UNL     1       6.546   5.928  19.084  0.00  0.00    +0.000 C 
ATOM     25  C   UNL     1       5.423   4.897  19.000  0.00  0.00    +0.000 C 
BRANCH  20  29
ATOM     26  C   UNL     1       0.536   1.962  18.782  0.00  0.00    +0.000 C 
ATOM     27  C   UNL     1       1.611   2.866  18.343  0.00  0.00    +0.000 A 
ATOM     28  N   UNL     1       2.162   3.887  18.960  0.00  0.00    +0.000 NA
ATOM     29  C   UNL     1       3.147   4.260  18.067  0.00  0.00    +0.000 A 
ATOM     30  N   UNL     1       3.131   3.574  16.910  0.00  0.00    +0.000 NA
ATOM     31  O   UNL     1       2.130   2.630  17.107  0.00  0.00    +0.000 OA
ENDBRANCH  20  29
ENDBRANCH   1  20
TORSDOF 4
ENDMDL
MODEL 8
REMARK VINA RESULT:      -7.1      1.000      1.330
REMARK  Name = 
REMARK  6 active torsions:
REMARK  status: ('A' for Active; 'I' for Inactive)
REMARK    1  A    between atoms: C_1  and  C_2
REMARK    2  A    between atoms: C_4  and  C_5
REMARK    3  A    between atoms: C_5  and  N_6
REMARK    4  A    between atoms: C_7  and  C_9
REMARK    5  A    between atoms: N_11  and  C_12
REMARK    6  A    between atoms: C_19  and  C_20
REMARK                            x       y       z     vdW  Elec       q    Type
REMARK                         _______ _______ _______ _____ _____    ______ ____
ROOT
ATOM      1  N   UNL     1       2.868   6.423  19.313  0.00  0.00    +0.000 N 
ATOM      2  C   UNL     1       2.243   7.549  18.800  0.00  0.00    +0.000 C 
ATOM      3  O   UNL     1       2.122   7.775  17.599  0.00  0.00    +0.000 OA
ATOM      4  H   UNL     1       2.850   6.290  20.322  0.00  0.00    +0.000 HD
ENDROOT
BRANCH   2   5
ATOM      5  C   UNL     1       1.624   8.517  19.799  0.00  0.00    +0.000 A 
ATOM      6  N   UNL     1       1.375   9.734  19.399  0.00  0.00    +0.000 NA
ATOM      7  N   UNL     1       0.634  10.598  20.194  0.00  0.00    +0.000 N 
ATOM      8  C   UNL     1       0.046  10.159  21.402  0.00  0.00    +0.000 A 
ATOM      9  C   UNL     1      -0.966  10.978  22.169  0.00  0.00    +0.000 C 
ATOM     10  C   UNL     1       0.310   8.946  21.916  0.00  0.00    +0.000 A 
ATOM     11  C   UNL     1       1.238   8.088  21.185  0.00  0.00    +0.000 A 
ATOM     12  O   UNL     1       1.701   7.062  21.672  0.00  0.00    +0.000 OA
BRANCH   7  13
ATOM     13  C   UNL     1       0.498  11.921  19.626  0.00  0.00    +0.000 A 
ATOM     14  C   UNL     1      -0.497  12.185  18.657  0.00  0.00    +0.000 A 
ATOM     15  C   UNL     1      -0.667  13.449  18.073  0.00  0.00    +0.000 A 
ATOM     16  C   UNL     1       0.107  14.518  18.494  0.00  0.00    +0.000 A 
ATOM     17  C   UNL     1       1.076  14.314  19.471  0.00  0.00    +0.000 A 
ATOM     18  C   UNL     1       1.293  13.032  20.015  0.00  0.00    +0.000 A 
ATOM     19 CL   UNL     1       2.652  12.934  21.091  0.00  0.00    +0.000 Cl
ENDBRANCH   7  13
ENDBRANCH   2   5
BRANCH   1  20
ATOM     20  C   UNL     1       3.504   5.377  18.473  0.00  0.00    +0.000 C 
ATOM     21  C   UNL     1       4.073   4.252  19.378  0.00  0.00    +0.000 C 
ATOM     22  C   UNL     1       3.003   3.414  20.080  0.00  0.00    +0.000 C 
ATOM     23  C   UNL     1       1.960   2.854  19.123  0.00  0.00    +0.000 C 
ATOM     24  C   UNL     1       1.408   3.883  18.144  0.00  0.00    +0.000 C 
ATOM     25  C   UNL     1       2.487   4.740  17.486  0.00  0.00    +0.000 C 
BRANCH  20  29
ATOM     26  C   UNL     1       7.787   7.675  17.339  0.00  0.00    +0.000 C 
ATOM     27  C   UNL     1       6.504   6.956  17.350  0.00  0.00    +0.000 A 
ATOM     28  N   UNL     1       5.796   6.504  18.361  0.00  0.00    +0.000 NA
ATOM     29  C   UNL     1       4.678   6.004  17.722  0.00  0.00    +0.000 A 
ATOM     30  N   UNL     1       4.743   6.047  16.380  0.00  0.00    +0.000 NA
ATOM     31  O   UNL     1       5.943   6.706  16.135  0.00  0.00    +0.000 OA
ENDBRANCH  20  29
ENDBRANCH   1  20
TORSDOF 4
ENDMDL
MODEL 9
REMARK VINA RESULT:      -7.0      4.640      7.531
REMARK  Name = 
REMARK  6 active torsions:
REMARK  status: ('A' for Active; 'I' for Inactive)
REMARK    1  A    between atoms: C_1  and  C_2
REMARK    2  A    between atoms: C_4  and  C_5
REMARK    3  A    between atoms: C_5  and  N_6
REMARK    4  A    between atoms: C_7  and  C_9
REMARK    5  A    between atoms: N_11  and  C_12
REMARK    6  A    between atoms: C_19  and  C_20
REMARK                            x       y       z     vdW  Elec       q    Type
REMARK                         _______ _______ _______ _____ _____    ______ ____
ROOT
ATOM      1  N   UNL     1      -0.785  11.173  19.669  0.00  0.00    +0.000 N 
ATOM      2  C   UNL     1      -1.375  12.069  18.792  0.00  0.00    +0.000 C 
ATOM      3  O   UNL     1      -0.760  12.955  18.205  0.00  0.00    +0.000 OA
ATOM      4  H   UNL     1      -1.367  10.427  20.047  0.00  0.00    +0.000 HD
ENDROOT
BRANCH   2   5
ATOM      5  C   UNL     1      -2.860  11.887  18.505  0.00  0.00    +0.000 A 
ATOM      6  N   UNL     1      -3.709  12.223  19.437  0.00  0.00    +0.000 NA
ATOM      7  N   UNL     1      -5.070  12.268  19.165  0.00  0.00    +0.000 N 
ATOM      8  C   UNL     1      -5.563  12.052  17.858  0.00  0.00    +0.000 A 
ATOM      9  C   UNL     1      -6.994  12.334  17.461  0.00  0.00    +0.000 C 
ATOM     10  C   UNL     1      -4.765  11.635  16.861  0.00  0.00    +0.000 A 
ATOM     11  C   UNL     1      -3.357  11.403  17.174  0.00  0.00    +0.000 A 
ATOM     12  O   UNL     1      -2.601  10.828  16.398  0.00  0.00    +0.000 OA
BRANCH   7  13
ATOM     13  C   UNL     1      -5.872  12.605  20.320  0.00  0.00    +0.000 A 
ATOM     14  C   UNL     1      -6.761  11.656  20.877  0.00  0.00    +0.000 A 
ATOM     15  C   UNL     1      -7.563  11.935  21.992  0.00  0.00    +0.000 A 
ATOM     16  C   UNL     1      -7.451  13.155  22.640  0.00  0.00    +0.000 A 
ATOM     17  C   UNL     1      -6.564  14.108  22.149  0.00  0.00    +0.000 A 
ATOM     18  C   UNL     1      -5.802  13.855  20.992  0.00  0.00    +0.000 A 
ATOM     19 CL   UNL     1      -4.882  15.217  20.431  0.00  0.00    +0.000 Cl
ENDBRANCH   7  13
ENDBRANCH   2   5
BRANCH   1  20
ATOM     20  C   UNL     1       0.652  11.205  20.039  0.00  0.00    +0.000 C 
ATOM     21  C   UNL     1       0.977  10.019  20.986  0.00  0.00    +0.000 C 
ATOM     22  C   UNL     1       0.906   8.647  20.315  0.00  0.00    +0.000 C 
ATOM     23  C   UNL     1       1.740   8.559  19.044  0.00  0.00    +0.000 C 
ATOM     24  C   UNL     1       1.537   9.733  18.094  0.00  0.00    +0.000 C 
ATOM     25  C   UNL     1       1.567  11.093  18.787  0.00  0.00    +0.000 C 
BRANCH  20  29
ATOM     26  C   UNL     1       2.557  15.562  21.556  0.00  0.00    +0.000 C 
ATOM     27  C   UNL     1       1.779  14.331  21.348  0.00  0.00    +0.000 A 
ATOM     28  N   UNL     1       1.861  13.430  20.395  0.00  0.00    +0.000 NA
ATOM     29  C   UNL     1       0.928  12.498  20.806  0.00  0.00    +0.000 A 
ATOM     30  N   UNL     1       0.230  12.860  21.896  0.00  0.00    +0.000 NA
ATOM     31  O   UNL     1       0.815  14.063  22.271  0.00  0.00    +0.000 OA
ENDBRANCH  20  29
ENDBRANCH   1  20
TORSDOF 4
ENDMDL
