MODEL 1
REMARK VINA RESULT:      -8.1      0.000      0.000
REMARK  Name = 
REMARK  7 active torsions:
REMARK  status: ('A' for Active; 'I' for Inactive)
REMARK    1  A    between atoms: C_1  and  O_2
REMARK    2  A    between atoms: O_2  and  C_3
REMARK    3  A    between atoms: C_14  and  C_15
REMARK    4  A    between atoms: N_17  and  C_18
REMARK    5  A    between atoms: C_18  and  C_19
REMARK    6  A    between atoms: C_18  and  C_20
REMARK    7  A    between atoms: C_18  and  C_23
REMARK                            x       y       z     vdW  Elec       q    Type
REMARK                         _______ _______ _______ _____ _____    ______ ____
ROOT
ATOM      1  C   UNL     1       1.765   7.072  20.203  0.00  0.00    +0.000 C 
ATOM      2  O   UNL     1       1.321   6.355  21.097  0.00  0.00    +0.000 OA
ATOM      3  N   UNL     1       2.389   6.594  19.069  0.00  0.00    +0.000 N 
ATOM      4  H   UNL     1       2.804   7.289  18.453  0.00  0.00    +0.000 HD
ENDROOT
BRANCH   1  16
ATOM      5  C   UNL     1      -0.245  13.158  19.778  0.00  0.00    +0.000 A 
ATOM      6  C   UNL     1      -0.404  13.664  21.060  0.00  0.00    +0.000 A 
ATOM      7  C   UNL     1      -0.350  12.795  22.157  0.00  0.00    +0.000 A 
ATOM      8  C   UNL     1      -0.091  11.432  21.977  0.00  0.00    +0.000 A 
ATOM      9  C   UNL     1       0.181  10.913  20.706  0.00  0.00    +0.000 A 
ATOM     10  C   UNL     1       0.019  11.798  19.618  0.00  0.00    +0.000 A 
ATOM     11  C   UNL     1       0.408   9.417  20.501  0.00  0.00    +0.000 C 
ATOM     12  C   UNL     1      -0.478   8.697  21.503  0.00  0.00    +0.000 C 
ATOM     13  C   UNL     1      -0.023   9.228  22.889  0.00  0.00    +0.000 C 
ATOM     14  O   UNL     1      -0.244  10.635  23.086  0.00  0.00    +0.000 OA
ATOM     15  C   UNL     1       1.192   9.232  19.161  0.00  0.00    +0.000 C 
ATOM     16  C   UNL     1       1.697   8.570  20.366  0.00  0.00    +0.000 C 
BRANCH   5  18
ATOM     17  C   UNL     1      -0.117  15.250  18.658  0.00  0.00    +0.000 C 
ATOM     18  O   UNL     1      -0.335  13.848  18.602  0.00  0.00    +0.000 OA
ENDBRANCH   5  18
ENDBRANCH   1  16
BRANCH   3  19
ATOM     19  C   UNL     1       2.878   5.212  18.801  0.00  0.00    +0.000 C 
ATOM     20  C   UNL     1       3.619   4.680  20.044  0.00  0.00    +0.000 C 
BRANCH  19  21
ATOM     21  C   UNL     1       3.831   5.302  17.566  0.00  0.00    +0.000 A 
ATOM     22  C   UNL     1       4.340   4.173  16.894  0.00  0.00    +0.000 A 
ATOM     23  C   UNL     1       5.207   4.305  15.803  0.00  0.00    +0.000 A 
ATOM     24  C   UNL     1       5.581   5.573  15.358  0.00  0.00    +0.000 A 
ATOM     25  C   UNL     1       5.081   6.708  15.988  0.00  0.00    +0.000 A 
ATOM     26  C   UNL     1       4.214   6.573  17.077  0.00  0.00    +0.000 A 
ENDBRANCH  19  21
BRANCH  19  27
ATOM     27  C   UNL     1       1.673   4.245  18.477  0.00  0.00    +0.000 C 
ATOM     28  N   UNL     1       1.196   3.481  19.509  0.00  0.00    +0.000 N 
ATOM     29  O   UNL     1       1.165   4.101  17.366  0.00  0.00    +0.000 OA
ATOM     30  H   UNL     1       1.363   3.781  20.469  0.00  0.00    +0.000 HD
ATOM     31  H   UNL     1       0.349   2.960  19.337  0.00  0.00    +0.000 HD
ENDBRANCH  19  27
ENDBRANCH   3  19
TORSDOF 5
ENDMDL
MODEL 2
REMARK VINA RESULT:      -8.1      2.394      8.217
REMARK  Name = 
REMARK  7 active torsions:
REMARK  status: ('A' for Active; 'I' for Inactive)
REMARK    1  A    between atoms: C_1  and  O_2
REMARK    2  A    between atoms: O_2  and  C_3
REMARK    3  A    between atoms: C_14  and  C_15
REMARK    4  A    between atoms: N_17  and  C_18
REMARK    5  A    between atoms: C_18  and  C_19
REMARK    6  A    between atoms: C_18  and  C_20
REMARK    7  A    between atoms: C_18  and  C_23
REMARK                            x       y       z     vdW  Elec       q    Type
REMARK                         _______ _______ _______ _____ _____    ______ ____
ROOT
ATOM      1  C   UNL     1       1.665   9.371  18.079  0.00  0.00    +0.000 C 
ATOM      2  O   UNL     1       2.648  10.096  18.210  0.00  0.00    +0.000 OA
ATOM      3  N   UNL     1       0.367   9.780  18.308  0.00  0.00    +0.000 N 
ATOM      4  H   UNL     1      -0.349   9.061  18.265  0.00  0.00    +0.000 HD
ENDROOT
BRANCH   1  16
ATOM      5  C   UNL     1       4.452   3.654  17.171  0.00  0.00    +0.000 A 
ATOM      6  C   UNL     1       3.753   2.699  17.894  0.00  0.00    +0.000 A 
ATOM      7  C   UNL     1       2.786   3.107  18.823  0.00  0.00    +0.000 A 
ATOM      8  C   UNL     1       2.487   4.462  18.995  0.00  0.00    +0.000 A 
ATOM      9  C   UNL     1       3.099   5.440  18.202  0.00  0.00    +0.000 A 
ATOM     10  C   UNL     1       4.136   5.001  17.350  0.00  0.00    +0.000 A 
ATOM     11  C   UNL     1       2.815   6.923  18.427  0.00  0.00    +0.000 C 
ATOM     12  C   UNL     1       2.590   7.106  19.918  0.00  0.00    +0.000 C 
ATOM     13  C   UNL     1       1.400   6.169  20.258  0.00  0.00    +0.000 C 
ATOM     14  O   UNL     1       1.669   4.772  20.055  0.00  0.00    +0.000 OA
ATOM     15  C   UNL     1       3.184   7.686  17.113  0.00  0.00    +0.000 C 
ATOM     16  C   UNL     1       1.869   7.921  17.714  0.00  0.00    +0.000 C 
BRANCH   5  18
ATOM     17  C   UNL     1       6.531   4.374  16.274  0.00  0.00    +0.000 C 
ATOM     18  O   UNL     1       5.465   3.437  16.280  0.00  0.00    +0.000 OA
ENDBRANCH   5  18
ENDBRANCH   1  16
BRANCH   3  19
ATOM     19  C   UNL     1      -0.099  11.028  18.977  0.00  0.00    +0.000 C 
ATOM     20  C   UNL     1       0.972  12.126  18.818  0.00  0.00    +0.000 C 
BRANCH  19  21
ATOM     21  C   UNL     1      -0.331  10.673  20.481  0.00  0.00    +0.000 A 
ATOM     22  C   UNL     1      -0.702  11.621  21.454  0.00  0.00    +0.000 A 
ATOM     23  C   UNL     1      -0.880  11.258  22.794  0.00  0.00    +0.000 A 
ATOM     24  C   UNL     1      -0.693   9.933  23.188  0.00  0.00    +0.000 A 
ATOM     25  C   UNL     1      -0.344   8.969  22.249  0.00  0.00    +0.000 A 
ATOM     26  C   UNL     1      -0.168   9.335  20.911  0.00  0.00    +0.000 A 
ENDBRANCH  19  21
BRANCH  19  27
ATOM     27  C   UNL     1      -1.447  11.537  18.333  0.00  0.00    +0.000 C 
ATOM     28  N   UNL     1      -1.357  12.577  17.447  0.00  0.00    +0.000 N 
ATOM     29  O   UNL     1      -2.564  11.099  18.601  0.00  0.00    +0.000 OA
ATOM     30  H   UNL     1      -0.470  12.754  16.975  0.00  0.00    +0.000 HD
ATOM     31  H   UNL     1      -2.196  12.819  16.941  0.00  0.00    +0.000 HD
ENDBRANCH  19  27
ENDBRANCH   3  19
TORSDOF 5
ENDMDL
MODEL 3
REMARK VINA RESULT:      -8.0      2.978      8.394
REMARK  Name = 
REMARK  7 active torsions:
REMARK  status: ('A' for Active; 'I' for Inactive)
REMARK    1  A    between atoms: C_1  and  O_2
REMARK    2  A    between atoms: O_2  and  C_3
REMARK    3  A    between atoms: C_14  and  C_15
REMARK    4  A    between atoms: N_17  and  C_18
REMARK    5  A    between atoms: C_18  and  C_19
REMARK    6  A    between atoms: C_18  and  C_20
REMARK    7  A    between atoms: C_18  and  C_23
REMARK                            x       y       z     vdW  Elec       q    Type
REMARK                         _______ _______ _______ _____ _____    ______ ____
ROOT
ATOM      1  C   UNL     1       1.387   8.997  18.745  0.00  0.00    +0.000 C 
ATOM      2  O   UNL     1       1.713   9.038  19.928  0.00  0.00    +0.000 OA
ATOM      3  N   UNL     1       0.423   9.806  18.180  0.00  0.00    +0.000 N 
ATOM      4  H   UNL     1       0.170   9.605  17.217  0.00  0.00    +0.000 HD
ENDROOT
BRANCH   1  16
ATOM      5  C   UNL     1       5.738   5.128  16.029  0.00  0.00    +0.000 A 
ATOM      6  C   UNL     1       5.305   3.816  16.156  0.00  0.00    +0.000 A 
ATOM      7  C   UNL     1       4.218   3.524  16.988  0.00  0.00    +0.000 A 
ATOM      8  C   UNL     1       3.534   4.546  17.656  0.00  0.00    +0.000 A 
ATOM      9  C   UNL     1       3.879   5.888  17.461  0.00  0.00    +0.000 A 
ATOM     10  C   UNL     1       5.040   6.135  16.696  0.00  0.00    +0.000 A 
ATOM     11  C   UNL     1       3.171   7.000  18.232  0.00  0.00    +0.000 C 
ATOM     12  C   UNL     1       2.828   6.437  19.600  0.00  0.00    +0.000 C 
ATOM     13  C   UNL     1       1.941   5.197  19.308  0.00  0.00    +0.000 C 
ATOM     14  O   UNL     1       2.609   4.146  18.590  0.00  0.00    +0.000 OA
ATOM     15  C   UNL     1       3.372   8.333  17.440  0.00  0.00    +0.000 C 
ATOM     16  C   UNL     1       2.016   7.958  17.849  0.00  0.00    +0.000 C 
BRANCH   5  18
ATOM     17  C   UNL     1       7.111   4.904  14.103  0.00  0.00    +0.000 C 
ATOM     18  O   UNL     1       6.814   5.577  15.318  0.00  0.00    +0.000 OA
ENDBRANCH   5  18
ENDBRANCH   1  16
BRANCH   3  19
ATOM     19  C   UNL     1      -0.571  10.674  18.875  0.00  0.00    +0.000 C 
ATOM     20  C   UNL     1      -0.893  10.078  20.260  0.00  0.00    +0.000 C 
BRANCH  19  21
ATOM     21  C   UNL     1      -1.842  10.721  17.966  0.00  0.00    +0.000 A 
ATOM     22  C   UNL     1      -1.964   9.999  16.763  0.00  0.00    +0.000 A 
ATOM     23  C   UNL     1      -3.115  10.089  15.974  0.00  0.00    +0.000 A 
ATOM     24  C   UNL     1      -4.174  10.904  16.375  0.00  0.00    +0.000 A 
ATOM     25  C   UNL     1      -4.093  11.617  17.567  0.00  0.00    +0.000 A 
ATOM     26  C   UNL     1      -2.941  11.523  18.354  0.00  0.00    +0.000 A 
ENDBRANCH  19  21
BRANCH  19  27
ATOM     27  C   UNL     1       0.001  12.132  19.071  0.00  0.00    +0.000 C 
ATOM     28  N   UNL     1       0.433  12.785  17.948  0.00  0.00    +0.000 N 
ATOM     29  O   UNL     1       0.124  12.699  20.155  0.00  0.00    +0.000 OA
ATOM     30  H   UNL     1       0.076  12.498  17.036  0.00  0.00    +0.000 HD
ATOM     31  H   UNL     1       0.678  13.759  18.053  0.00  0.00    +0.000 HD
ENDBRANCH  19  27
ENDBRANCH   3  19
TORSDOF 5
ENDMDL
MODEL 4
REMARK VINA RESULT:      -7.9      2.655      8.380
REMARK  Name = 
REMARK  7 active torsions:
REMARK  status: ('A' for Active; 'I' for Inactive)
REMARK    1  A    between atoms: C_1  and  O_2
REMARK    2  A    between atoms: O_2  and  C_3
REMARK    3  A    between atoms: C_14  and  C_15
REMARK    4  A    between atoms: N_17  and  C_18
REMARK    5  A    between atoms: C_18  and  C_19
REMARK    6  A    between atoms: C_18  and  C_20
REMARK    7  A    between atoms: C_18  and  C_23
REMARK                            x       y       z     vdW  Elec       q    Type
REMARK                         _______ _______ _______ _____ _____    ______ ____
ROOT
ATOM      1  C   UNL     1       1.358   8.874  19.122  0.00  0.00    +0.000 C 
ATOM      2  O   UNL     1       1.165   8.521  20.282  0.00  0.00    +0.000 OA
ATOM      3  N   UNL     1       1.030  10.120  18.628  0.00  0.00    +0.000 N 
ATOM      4  H   UNL     1       1.145  10.256  17.628  0.00  0.00    +0.000 HD
ENDROOT
BRANCH   1  16
ATOM      5  C   UNL     1       5.524   5.207  15.886  0.00  0.00    +0.000 A 
ATOM      6  C   UNL     1       5.142   3.880  16.017  0.00  0.00    +0.000 A 
ATOM      7  C   UNL     1       4.148   3.535  16.941  0.00  0.00    +0.000 A 
ATOM      8  C   UNL     1       3.506   4.518  17.701  0.00  0.00    +0.000 A 
ATOM      9  C   UNL     1       3.795   5.875  17.513  0.00  0.00    +0.000 A 
ATOM     10  C   UNL     1       4.869   6.175  16.647  0.00  0.00    +0.000 A 
ATOM     11  C   UNL     1       3.136   6.945  18.381  0.00  0.00    +0.000 C 
ATOM     12  C   UNL     1       2.944   6.336  19.759  0.00  0.00    +0.000 C 
ATOM     13  C   UNL     1       2.065   5.079  19.518  0.00  0.00    +0.000 C 
ATOM     14  O   UNL     1       2.688   4.067  18.709  0.00  0.00    +0.000 OA
ATOM     15  C   UNL     1       3.223   8.304  17.613  0.00  0.00    +0.000 C 
ATOM     16  C   UNL     1       1.925   7.878  18.139  0.00  0.00    +0.000 C 
BRANCH   5  18
ATOM     17  C   UNL     1       7.045   4.837  14.098  0.00  0.00    +0.000 C 
ATOM     18  O   UNL     1       6.513   5.706  15.088  0.00  0.00    +0.000 OA
ENDBRANCH   5  18
ENDBRANCH   1  16
BRANCH   3  19
ATOM     19  C   UNL     1       0.181  11.167  19.265  0.00  0.00    +0.000 C 
ATOM     20  C   UNL     1       0.153  10.947  20.791  0.00  0.00    +0.000 C 
BRANCH  19  21
ATOM     21  C   UNL     1      -1.247  11.028  18.645  0.00  0.00    +0.000 A 
ATOM     22  C   UNL     1      -2.351  11.800  19.057  0.00  0.00    +0.000 A 
ATOM     23  C   UNL     1      -3.615  11.626  18.483  0.00  0.00    +0.000 A 
ATOM     24  C   UNL     1      -3.801  10.675  17.480  0.00  0.00    +0.000 A 
ATOM     25  C   UNL     1      -2.727   9.910  17.037  0.00  0.00    +0.000 A 
ATOM     26  C   UNL     1      -1.465  10.087  17.611  0.00  0.00    +0.000 A 
ENDBRANCH  19  21
BRANCH  19  27
ATOM     27  C   UNL     1       0.754  12.607  18.972  0.00  0.00    +0.000 C 
ATOM     28  N   UNL     1       1.499  12.759  17.833  0.00  0.00    +0.000 N 
ATOM     29  O   UNL     1       0.615  13.583  19.708  0.00  0.00    +0.000 OA
ATOM     30  H   UNL     1       1.381  12.094  17.068  0.00  0.00    +0.000 HD
ATOM     31  H   UNL     1       1.758  13.701  17.578  0.00  0.00    +0.000 HD
ENDBRANCH  19  27
ENDBRANCH   3  19
TORSDOF 5
ENDMDL
MODEL 5
REMARK VINA RESULT:      -7.9      1.963      3.385
REMARK  Name = 
REMARK  7 active torsions:
REMARK  status: ('A' for Active; 'I' for Inactive)
REMARK    1  A    between atoms: C_1  and  O_2
REMARK    2  A    between atoms: O_2  and  C_3
REMARK    3  A    between atoms: C_14  and  C_15
REMARK    4  A    between atoms: N_17  and  C_18
REMARK    5  A    between atoms: C_18  and  C_19
REMARK    6  A    between atoms: C_18  and  C_20
REMARK    7  A    between atoms: C_18  and  C_23
REMARK                            x       y       z     vdW  Elec       q    Type
REMARK                         _______ _______ _______ _____ _____    ______ ____
ROOT
ATOM      1  C   UNL     1       2.089   4.677  19.795  0.00  0.00    +0.000 C 
ATOM      2  O   UNL     1       2.025   3.942  20.778  0.00  0.00    +0.000 OA
ATOM      3  N   UNL     1       2.855   4.409  18.679  0.00  0.00    +0.000 N 
ATOM      4  H   UNL     1       2.905   5.142  17.977  0.00  0.00    +0.000 HD
ENDROOT
BRANCH   1  16
ATOM      5  C   UNL     1       0.537  10.774  21.094  0.00  0.00    +0.000 A 
ATOM      6  C   UNL     1       0.410  11.464  19.897  0.00  0.00    +0.000 A 
ATOM      7  C   UNL     1       0.836  10.865  18.705  0.00  0.00    +0.000 A 
ATOM      8  C   UNL     1       1.343   9.561  18.702  0.00  0.00    +0.000 A 
ATOM      9  C   UNL     1       1.381   8.802  19.878  0.00  0.00    +0.000 A 
ATOM     10  C   UNL     1       1.038   9.473  21.072  0.00  0.00    +0.000 A 
ATOM     11  C   UNL     1       1.986   7.400  19.886  0.00  0.00    +0.000 C 
ATOM     12  C   UNL     1       3.127   7.407  18.883  0.00  0.00    +0.000 C 
ATOM     13  C   UNL     1       2.468   7.810  17.537  0.00  0.00    +0.000 C 
ATOM     14  O   UNL     1       1.906   9.133  17.524  0.00  0.00    +0.000 OA
ATOM     15  C   UNL     1       1.414   6.639  21.127  0.00  0.00    +0.000 C 
ATOM     16  C   UNL     1       1.348   5.991  19.815  0.00  0.00    +0.000 C 
BRANCH   5  18
ATOM     17  C   UNL     1      -1.119  11.136  22.759  0.00  0.00    +0.000 C 
ATOM     18  O   UNL     1       0.236  11.230  22.346  0.00  0.00    +0.000 OA
ENDBRANCH   5  18
ENDBRANCH   1  16
BRANCH   3  19
ATOM     19  C   UNL     1       3.918   3.376  18.520  0.00  0.00    +0.000 C 
ATOM     20  C   UNL     1       4.574   3.100  19.888  0.00  0.00    +0.000 C 
BRANCH  19  21
ATOM     21  C   UNL     1       4.952   3.947  17.497  0.00  0.00    +0.000 A 
ATOM     22  C   UNL     1       4.711   4.030  16.112  0.00  0.00    +0.000 A 
ATOM     23  C   UNL     1       5.677   4.531  15.233  0.00  0.00    +0.000 A 
ATOM     24  C   UNL     1       6.908   4.966  15.725  0.00  0.00    +0.000 A 
ATOM     25  C   UNL     1       7.171   4.916  17.090  0.00  0.00    +0.000 A 
ATOM     26  C   UNL     1       6.203   4.415  17.965  0.00  0.00    +0.000 A 
ENDBRANCH  19  21
BRANCH  19  27
ATOM     27  C   UNL     1       3.310   2.028  17.969  0.00  0.00    +0.000 C 
ATOM     28  N   UNL     1       4.031   0.886  18.189  0.00  0.00    +0.000 N 
ATOM     29  O   UNL     1       2.265   1.938  17.326  0.00  0.00    +0.000 OA
ATOM     30  H   UNL     1       4.707   0.863  18.954  0.00  0.00    +0.000 HD
ATOM     31  H   UNL     1       3.586   0.012  17.953  0.00  0.00    +0.000 HD
ENDBRANCH  19  27
ENDBRANCH   3  19
TORSDOF 5
ENDMDL
MODEL 6
REMARK VINA RESULT:      -7.8      2.450      8.202
REMARK  Name = 
REMARK  7 active torsions:
REMARK  status: ('A' for Active; 'I' for Inactive)
REMARK    1  A    between atoms: C_1  and  O_2
REMARK    2  A    between atoms: O_2  and  C_3
REMARK    3  A    between atoms: C_14  and  C_15
REMARK    4  A    between atoms: N_17  and  C_18
REMARK    5  A    between atoms: C_18  and  C_19
REMARK    6  A    between atoms: C_18  and  C_20
REMARK    7  A    between atoms: C_18  and  C_23
REMARK                            x       y       z     vdW  Elec       q    Type
REMARK                         _______ _______ _______ _____ _____    ______ ____
ROOT
ATOM      1  C   UNL     1       1.260   9.167  19.056  0.00  0.00    +0.000 C 
ATOM      2  O   UNL     1       0.792   8.801  20.132  0.00  0.00    +0.000 OA
ATOM      3  N   UNL     1       1.260  10.475  18.619  0.00  0.00    +0.000 N 
ATOM      4  H   UNL     1       1.583  10.635  17.669  0.00  0.00    +0.000 HD
ENDROOT
BRANCH   1  16
ATOM      5  C   UNL     1       5.377   5.327  15.961  0.00  0.00    +0.000 A 
ATOM      6  C   UNL     1       4.972   4.012  16.133  0.00  0.00    +0.000 A 
ATOM      7  C   UNL     1       3.969   3.713  17.065  0.00  0.00    +0.000 A 
ATOM      8  C   UNL     1       3.340   4.732  17.789  0.00  0.00    +0.000 A 
ATOM      9  C   UNL     1       3.653   6.077  17.558  0.00  0.00    +0.000 A 
ATOM     10  C   UNL     1       4.735   6.330  16.687  0.00  0.00    +0.000 A 
ATOM     11  C   UNL     1       3.008   7.185  18.387  0.00  0.00    +0.000 C 
ATOM     12  C   UNL     1       2.801   6.625  19.784  0.00  0.00    +0.000 C 
ATOM     13  C   UNL     1       1.902   5.375  19.580  0.00  0.00    +0.000 C 
ATOM     14  O   UNL     1       2.511   4.327  18.807  0.00  0.00    +0.000 OA
ATOM     15  C   UNL     1       3.121   8.516  17.575  0.00  0.00    +0.000 C 
ATOM     16  C   UNL     1       1.814   8.130  18.110  0.00  0.00    +0.000 C 
BRANCH   5  18
ATOM     17  C   UNL     1       6.977   4.842  14.273  0.00  0.00    +0.000 C 
ATOM     18  O   UNL     1       6.378   5.783  15.151  0.00  0.00    +0.000 OA
ENDBRANCH   5  18
ENDBRANCH   1  16
BRANCH   3  19
ATOM     19  C   UNL     1       0.507  11.632  19.181  0.00  0.00    +0.000 C 
ATOM     20  C   UNL     1      -0.903  11.679  18.558  0.00  0.00    +0.000 C 
BRANCH  19  21
ATOM     21  C   UNL     1       1.326  12.917  18.830  0.00  0.00    +0.000 A 
ATOM     22  C   UNL     1       2.624  12.885  18.285  0.00  0.00    +0.000 A 
ATOM     23  C   UNL     1       3.325  14.063  18.006  0.00  0.00    +0.000 A 
ATOM     24  C   UNL     1       2.738  15.302  18.264  0.00  0.00    +0.000 A 
ATOM     25  C   UNL     1       1.451  15.368  18.786  0.00  0.00    +0.000 A 
ATOM     26  C   UNL     1       0.752  14.189  19.062  0.00  0.00    +0.000 A 
ENDBRANCH  19  21
BRANCH  19  27
ATOM     27  C   UNL     1       0.365  11.500  20.747  0.00  0.00    +0.000 C 
ATOM     28  N   UNL     1      -0.869  11.157  21.231  0.00  0.00    +0.000 N 
ATOM     29  O   UNL     1       1.264  11.722  21.557  0.00  0.00    +0.000 OA
ATOM     30  H   UNL     1      -1.529  10.676  20.619  0.00  0.00    +0.000 HD
ATOM     31  H   UNL     1      -0.931  10.947  22.217  0.00  0.00    +0.000 HD
ENDBRANCH  19  27
ENDBRANCH   3  19
TORSDOF 5
ENDMDL
MODEL 7
REMARK VINA RESULT:      -7.7      2.541      8.359
REMARK  Name = 
REMARK  7 active torsions:
REMARK  status: ('A' for Active; 'I' for Inactive)
REMARK    1  A    between atoms: C_1  and  O_2
REMARK    2  A    between atoms: O_2  and  C_3
REMARK    3  A    between atoms: C_14  and  C_15
REMARK    4  A    between atoms: N_17  and  C_18
REMARK    5  A    between atoms: C_18  and  C_19
REMARK    6  A    between atoms: C_18  and  C_20
REMARK    7  A    between atoms: C_18  and  C_23
REMARK                            x       y       z     vdW  Elec       q    Type
REMARK                         _______ _______ _______ _____ _____    ______ ____
ROOT
ATOM      1  C   UNL     1       1.165   9.363  19.143  0.00  0.00    +0.000 C 
ATOM      2  O   UNL     1       0.545   9.064  20.161  0.00  0.00    +0.000 OA
ATOM      3  N   UNL     1       1.388  10.659  18.728  0.00  0.00    +0.000 N 
ATOM      4  H   UNL     1       1.825  10.775  17.817  0.00  0.00    +0.000 HD
ENDROOT
BRANCH   1  16
ATOM      5  C   UNL     1       5.093   5.294  16.096  0.00  0.00    +0.000 A 
ATOM      6  C   UNL     1       4.693   3.996  16.378  0.00  0.00    +0.000 A 
ATOM      7  C   UNL     1       3.741   3.768  17.380  0.00  0.00    +0.000 A 
ATOM      8  C   UNL     1       3.157   4.838  18.067  0.00  0.00    +0.000 A 
ATOM      9  C   UNL     1       3.461   6.162  17.729  0.00  0.00    +0.000 A 
ATOM     10  C   UNL     1       4.495   6.348  16.786  0.00  0.00    +0.000 A 
ATOM     11  C   UNL     1       2.867   7.328  18.515  0.00  0.00    +0.000 C 
ATOM     12  C   UNL     1       2.733   6.864  19.956  0.00  0.00    +0.000 C 
ATOM     13  C   UNL     1       1.820   5.610  19.885  0.00  0.00    +0.000 C 
ATOM     14  O   UNL     1       2.382   4.509  19.153  0.00  0.00    +0.000 OA
ATOM     15  C   UNL     1       2.940   8.601  17.610  0.00  0.00    +0.000 C 
ATOM     16  C   UNL     1       1.662   8.261  18.240  0.00  0.00    +0.000 C 
BRANCH   5  18
ATOM     17  C   UNL     1       7.129   4.793  14.978  0.00  0.00    +0.000 C 
ATOM     18  O   UNL     1       6.050   5.688  15.204  0.00  0.00    +0.000 OA
ENDBRANCH   5  18
ENDBRANCH   1  16
BRANCH   3  19
ATOM     19  C   UNL     1       0.750  11.909  19.230  0.00  0.00    +0.000 C 
ATOM     20  C   UNL     1       1.029  12.056  20.740  0.00  0.00    +0.000 C 
BRANCH  19  21
ATOM     21  C   UNL     1      -0.781  11.780  18.944  0.00  0.00    +0.000 A 
ATOM     22  C   UNL     1      -1.307  11.162  17.793  0.00  0.00    +0.000 A 
ATOM     23  C   UNL     1      -2.687  11.088  17.572  0.00  0.00    +0.000 A 
ATOM     24  C   UNL     1      -3.572  11.631  18.504  0.00  0.00    +0.000 A 
ATOM     25  C   UNL     1      -3.086  12.232  19.660  0.00  0.00    +0.000 A 
ATOM     26  C   UNL     1      -1.707  12.302  19.878  0.00  0.00    +0.000 A 
ENDBRANCH  19  21
BRANCH  19  27
ATOM     27  C   UNL     1       1.329  13.173  18.483  0.00  0.00    +0.000 C 
ATOM     28  N   UNL     1       2.315  12.950  17.560  0.00  0.00    +0.000 N 
ATOM     29  O   UNL     1       0.990  14.335  18.700  0.00  0.00    +0.000 OA
ATOM     30  H   UNL     1       2.401  12.026  17.136  0.00  0.00    +0.000 HD
ATOM     31  H   UNL     1       2.595  13.736  16.992  0.00  0.00    +0.000 HD
ENDBRANCH  19  27
ENDBRANCH   3  19
TORSDOF 5
ENDMDL
MODEL 8
REMARK VINA RESULT:      -7.7      2.580      8.032
REMARK  Name = 
REMARK  7 active torsions:
REMARK  status: ('A' for Active; 'I' for Inactive)
REMARK    1  A    between atoms: C_1  and  O_2
REMARK    2  A    between atoms: O_2  and  C_3
REMARK    3  A    between atoms: C_14  and  C_15
REMARK    4  A    between atoms: N_17  and  C_18
REMARK    5  A    between atoms: C_18  and  C_19
REMARK    6  A    between atoms: C_18  and  C_20
REMARK    7  A    between atoms: C_18  and  C_23
REMARK                            x       y       z     vdW  Elec       q    Type
REMARK                         _______ _______ _______ _____ _____    ______ ____
ROOT
ATOM      1  C   UNL     1       0.729   9.644  20.607  0.00  0.00    +0.000 C 
ATOM      2  O   UNL     1      -0.369   9.454  21.125  0.00  0.00    +0.000 OA
ATOM      3  N   UNL     1       1.087  10.810  19.963  0.00  0.00    +0.000 N 
ATOM      4  H   UNL     1       1.985  10.807  19.487  0.00  0.00    +0.000 HD
ENDROOT
BRANCH   1  16
ATOM      5  C   UNL     1       3.357   3.818  19.960  0.00  0.00    +0.000 A 
ATOM      6  C   UNL     1       4.418   3.906  19.071  0.00  0.00    +0.000 A 
ATOM      7  C   UNL     1       4.598   5.076  18.324  0.00  0.00    +0.000 A 
ATOM      8  C   UNL     1       3.748   6.174  18.499  0.00  0.00    +0.000 A 
ATOM      9  C   UNL     1       2.737   6.153  19.466  0.00  0.00    +0.000 A 
ATOM     10  C   UNL     1       2.523   4.923  20.127  0.00  0.00    +0.000 A 
ATOM     11  C   UNL     1       1.774   7.328  19.618  0.00  0.00    +0.000 C 
ATOM     12  C   UNL     1       1.561   7.906  18.230  0.00  0.00    +0.000 C 
ATOM     13  C   UNL     1       2.982   8.304  17.745  0.00  0.00    +0.000 C 
ATOM     14  O   UNL     1       3.887   7.198  17.592  0.00  0.00    +0.000 OA
ATOM     15  C   UNL     1       1.157   7.257  21.054  0.00  0.00    +0.000 C 
ATOM     16  C   UNL     1       1.739   8.523  20.603  0.00  0.00    +0.000 C 
BRANCH   5  18
ATOM     17  C   UNL     1       1.825   2.859  21.503  0.00  0.00    +0.000 C 
ATOM     18  O   UNL     1       2.998   2.736  20.713  0.00  0.00    +0.000 OA
ENDBRANCH   5  18
ENDBRANCH   1  16
BRANCH   3  19
ATOM     19  C   UNL     1       0.205  11.934  19.537  0.00  0.00    +0.000 C 
ATOM     20  C   UNL     1      -0.298  12.691  20.782  0.00  0.00    +0.000 C 
BRANCH  19  21
ATOM     21  C   UNL     1      -0.979  11.300  18.739  0.00  0.00    +0.000 A 
ATOM     22  C   UNL     1      -0.810  10.302  17.759  0.00  0.00    +0.000 A 
ATOM     23  C   UNL     1      -1.901   9.779  17.056  0.00  0.00    +0.000 A 
ATOM     24  C   UNL     1      -3.190  10.242  17.324  0.00  0.00    +0.000 A 
ATOM     25  C   UNL     1      -3.393  11.213  18.298  0.00  0.00    +0.000 A 
ATOM     26  C   UNL     1      -2.301  11.733  18.999  0.00  0.00    +0.000 A 
ENDBRANCH  19  21
BRANCH  19  27
ATOM     27  C   UNL     1       0.992  12.943  18.614  0.00  0.00    +0.000 C 
ATOM     28  N   UNL     1       2.045  12.439  17.898  0.00  0.00    +0.000 N 
ATOM     29  O   UNL     1       0.756  14.147  18.526  0.00  0.00    +0.000 OA
ATOM     30  H   UNL     1       2.079  11.438  17.701  0.00  0.00    +0.000 HD
ATOM     31  H   UNL     1       2.466  13.050  17.214  0.00  0.00    +0.000 HD
ENDBRANCH  19  27
ENDBRANCH   3  19
TORSDOF 5
ENDMDL
MODEL 9
REMARK VINA RESULT:      -7.7      1.845      3.232
REMARK  Name = 
REMARK  7 active torsions:
REMARK  status: ('A' for Active; 'I' for Inactive)
REMARK    1  A    between atoms: C_1  and  O_2
REMARK    2  A    between atoms: O_2  and  C_3
REMARK    3  A    between atoms: C_14  and  C_15
REMARK    4  A    between atoms: N_17  and  C_18
REMARK    5  A    between atoms: C_18  and  C_19
REMARK    6  A    between atoms: C_18  and  C_20
REMARK    7  A    between atoms: C_18  and  C_23
REMARK                            x       y       z     vdW  Elec       q    Type
REMARK                         _______ _______ _______ _____ _____    ______ ____
ROOT
ATOM      1  C   UNL     1       2.568   7.292  18.064  0.00  0.00    +0.000 C 
ATOM      2  O   UNL     1       1.648   6.781  17.431  0.00  0.00    +0.000 OA
ATOM      3  N   UNL     1       3.732   6.633  18.403  0.00  0.00    +0.000 N 
ATOM      4  H   UNL     1       4.372   7.131  19.016  0.00  0.00    +0.000 HD
ENDROOT
BRANCH   1  16
ATOM      5  C   UNL     1      -0.025  12.989  19.508  0.00  0.00    +0.000 A 
ATOM      6  C   UNL     1       0.110  13.206  20.872  0.00  0.00    +0.000 A 
ATOM      7  C   UNL     1       0.527  12.156  21.700  0.00  0.00    +0.000 A 
ATOM      8  C   UNL     1       0.852  10.906  21.162  0.00  0.00    +0.000 A 
ATOM      9  C   UNL     1       0.830  10.692  19.779  0.00  0.00    +0.000 A 
ATOM     10  C   UNL     1       0.310  11.740  18.988  0.00  0.00    +0.000 A 
ATOM     11  C   UNL     1       1.130   9.313  19.195  0.00  0.00    +0.000 C 
ATOM     12  C   UNL     1       0.604   8.291  20.187  0.00  0.00    +0.000 C 
ATOM     13  C   UNL     1       1.354   8.601  21.510  0.00  0.00    +0.000 C 
ATOM     14  O   UNL     1       1.066   9.894  22.066  0.00  0.00    +0.000 OA
ATOM     15  C   UNL     1       1.550   9.509  17.701  0.00  0.00    +0.000 C 
ATOM     16  C   UNL     1       2.410   8.704  18.572  0.00  0.00    +0.000 C 
BRANCH   5  18
ATOM     17  C   UNL     1      -0.165  15.245  18.776  0.00  0.00    +0.000 C 
ATOM     18  O   UNL     1      -0.480  13.875  18.573  0.00  0.00    +0.000 OA
ENDBRANCH   5  18
ENDBRANCH   1  16
BRANCH   3  19
ATOM     19  C   UNL     1       4.019   5.173  18.323  0.00  0.00    +0.000 C 
ATOM     20  C   UNL     1       4.196   4.765  16.846  0.00  0.00    +0.000 C 
BRANCH  19  21
ATOM     21  C   UNL     1       2.803   4.438  18.974  0.00  0.00    +0.000 A 
ATOM     22  C   UNL     1       2.364   4.678  20.290  0.00  0.00    +0.000 A 
ATOM     23  C   UNL     1       1.281   3.980  20.836  0.00  0.00    +0.000 A 
ATOM     24  C   UNL     1       0.610   3.026  20.071  0.00  0.00    +0.000 A 
ATOM     25  C   UNL     1       1.006   2.778  18.761  0.00  0.00    +0.000 A 
ATOM     26  C   UNL     1       2.088   3.478  18.219  0.00  0.00    +0.000 A 
ENDBRANCH  19  21
BRANCH  19  27
ATOM     27  C   UNL     1       5.341   4.818  19.108  0.00  0.00    +0.000 C 
ATOM     28  N   UNL     1       5.622   3.489  19.281  0.00  0.00    +0.000 N 
ATOM     29  O   UNL     1       6.106   5.643  19.606  0.00  0.00    +0.000 OA
ATOM     30  H   UNL     1       5.211   2.806  18.645  0.00  0.00    +0.000 HD
ATOM     31  H   UNL     1       6.526   3.261  19.668  0.00  0.00    +0.000 HD
ENDBRANCH  19  27
ENDBRANCH   3  19
TORSDOF 5
ENDMDL
