MODEL 1
REMARK VINA RESULT:      -8.1      0.000      0.000
REMARK  Name = 
REMARK  5 active torsions:
REMARK  status: ('A' for Active; 'I' for Inactive)
REMARK    1  A    between atoms: C_2  and  C_3
REMARK    2  A    between atoms: C_6  and  C_7
REMARK    3  A    between atoms: C_7  and  N_8
REMARK    4  A    between atoms: C_20  and  C_21
REMARK    5  A    between atoms: C_21  and  C_22
REMARK                            x       y       z     vdW  Elec       q    Type
REMARK                         _______ _______ _______ _____ _____    ______ ____
ROOT
ATOM      1  O   UNL     1       5.187   7.518  17.192  0.00  0.00    +0.000 OA
ATOM      2  C   UNL     1       4.285   6.815  17.639  0.00  0.00    +0.000 C 
ATOM      3  N   UNL     1       4.289   5.425  17.563  0.00  0.00    +0.000 N 
ATOM      4  C   UNL     1       5.449   4.731  17.035  0.00  0.00    +0.000 C 
ATOM      5  C   UNL     1       4.850   3.740  16.052  0.00  0.00    +0.000 C 
ATOM      6  C   UNL     1       3.540   3.313  16.731  0.00  0.00    +0.000 C 
ATOM      7  C   UNL     1       3.076   4.624  17.379  0.00  0.00    +0.000 C 
ENDROOT
BRANCH   2   8
ATOM      8  C   UNL     1       3.142   7.477  18.321  0.00  0.00    +0.000 A 
ATOM      9  C   UNL     1       2.490   8.551  17.706  0.00  0.00    +0.000 A 
ATOM     10  C   UNL     1       1.452   9.211  18.371  0.00  0.00    +0.000 A 
ATOM     11  C   UNL     1       1.067   8.811  19.659  0.00  0.00    +0.000 A 
ATOM     12  C   UNL     1       1.724   7.731  20.265  0.00  0.00    +0.000 A 
ATOM     13  C   UNL     1       2.772   7.089  19.612  0.00  0.00    +0.000 A 
BRANCH  11  14
ATOM     14  C   UNL     1      -0.048   9.510  20.401  0.00  0.00    +0.000 C 
BRANCH  14  15
ATOM     15  N   UNL     1      -0.222  10.868  19.951  0.00  0.00    +0.000 N 
ATOM     16  C   UNL     1      -1.129  11.265  19.008  0.00  0.00    +0.000 C 
ATOM     17  O   UNL     1      -1.903  10.549  18.389  0.00  0.00    +0.000 OA
ATOM     18  C   UNL     1      -1.017  12.769  18.840  0.00  0.00    +0.000 C 
ATOM     19  N   UNL     1       0.026  13.069  19.779  0.00  0.00    +0.000 N 
ATOM     20  C   UNL     1       0.480  11.938  20.422  0.00  0.00    +0.000 C 
ATOM     21  O   UNL     1       1.365  11.939  21.258  0.00  0.00    +0.000 OA
ATOM     22  H   UNL     1       0.406  13.981  19.994  0.00  0.00    +0.000 HD
ENDBRANCH  14  15
ENDBRANCH  11  14
ENDBRANCH   2   8
BRANCH   6  23
ATOM     23  C   UNL     1       3.750   2.184  17.762  0.00  0.00    +0.000 C 
BRANCH  23  24
ATOM     24  C   UNL     1       2.941   2.347  19.035  0.00  0.00    +0.000 A 
ATOM     25  C   UNL     1       1.537   2.301  19.012  0.00  0.00    +0.000 A 
ATOM     26  C   UNL     1       0.804   2.459  20.192  0.00  0.00    +0.000 A 
ATOM     27  C   UNL     1       1.469   2.644  21.397  0.00  0.00    +0.000 A 
ATOM     28  F   UNL     1       0.763   2.794  22.524  0.00  0.00    +0.000 F 
ATOM     29  C   UNL     1       2.856   2.669  21.446  0.00  0.00    +0.000 A 
ATOM     30  C   UNL     1       3.591   2.520  20.269  0.00  0.00    +0.000 A 
ENDBRANCH  23  24
ENDBRANCH   6  23
TORSDOF 5
ENDMDL
MODEL 2
REMARK VINA RESULT:      -8.0      0.647      1.465
REMARK  Name = 
REMARK  5 active torsions:
REMARK  status: ('A' for Active; 'I' for Inactive)
REMARK    1  A    between atoms: C_2  and  C_3
REMARK    2  A    between atoms: C_6  and  C_7
REMARK    3  A    between atoms: C_7  and  N_8
REMARK    4  A    between atoms: C_20  and  C_21
REMARK    5  A    between atoms: C_21  and  C_22
REMARK                            x       y       z     vdW  Elec       q    Type
REMARK                         _______ _______ _______ _____ _____    ______ ____
ROOT
ATOM      1  O   UNL     1       5.440   7.398  17.113  0.00  0.00    +0.000 OA
ATOM      2  C   UNL     1       4.507   6.720  17.536  0.00  0.00    +0.000 C 
ATOM      3  N   UNL     1       4.492   5.328  17.493  0.00  0.00    +0.000 N 
ATOM      4  C   UNL     1       5.663   4.604  17.036  0.00  0.00    +0.000 C 
ATOM      5  C   UNL     1       5.093   3.598  16.051  0.00  0.00    +0.000 C 
ATOM      6  C   UNL     1       3.748   3.207  16.679  0.00  0.00    +0.000 C 
ATOM      7  C   UNL     1       3.276   4.541  17.273  0.00  0.00    +0.000 C 
ENDROOT
BRANCH   2   8
ATOM      8  C   UNL     1       3.345   7.415  18.149  0.00  0.00    +0.000 A 
ATOM      9  C   UNL     1       2.742   8.487  17.481  0.00  0.00    +0.000 A 
ATOM     10  C   UNL     1       1.686   9.179  18.081  0.00  0.00    +0.000 A 
ATOM     11  C   UNL     1       1.234   8.813  19.358  0.00  0.00    +0.000 A 
ATOM     12  C   UNL     1       1.843   7.736  20.017  0.00  0.00    +0.000 A 
ATOM     13  C   UNL     1       2.908   7.062  19.428  0.00  0.00    +0.000 A 
BRANCH  11  14
ATOM     14  C   UNL     1       0.098   9.547  20.031  0.00  0.00    +0.000 C 
BRANCH  14  15
ATOM     15  N   UNL     1      -0.276  10.736  19.308  0.00  0.00    +0.000 N 
ATOM     16  C   UNL     1       0.269  11.973  19.511  0.00  0.00    +0.000 C 
ATOM     17  O   UNL     1       1.120  12.272  20.336  0.00  0.00    +0.000 OA
ATOM     18  C   UNL     1      -0.371  12.943  18.534  0.00  0.00    +0.000 C 
ATOM     19  N   UNL     1      -1.276  12.072  17.842  0.00  0.00    +0.000 N 
ATOM     20  C   UNL     1      -1.205  10.778  18.312  0.00  0.00    +0.000 C 
ATOM     21  O   UNL     1      -1.883   9.861  17.884  0.00  0.00    +0.000 OA
ATOM     22  H   UNL     1      -1.899  12.320  17.085  0.00  0.00    +0.000 HD
ENDBRANCH  14  15
ENDBRANCH  11  14
ENDBRANCH   2   8
BRANCH   6  23
ATOM     23  C   UNL     1       3.892   2.102  17.746  0.00  0.00    +0.000 C 
BRANCH  23  24
ATOM     24  C   UNL     1       3.039   2.315  18.982  0.00  0.00    +0.000 A 
ATOM     25  C   UNL     1       1.637   2.293  18.907  0.00  0.00    +0.000 A 
ATOM     26  C   UNL     1       0.862   2.497  20.053  0.00  0.00    +0.000 A 
ATOM     27  C   UNL     1       1.485   2.705  21.276  0.00  0.00    +0.000 A 
ATOM     28  F   UNL     1       0.740   2.900  22.372  0.00  0.00    +0.000 F 
ATOM     29  C   UNL     1       2.870   2.708  21.378  0.00  0.00    +0.000 A 
ATOM     30  C   UNL     1       3.646   2.513  20.234  0.00  0.00    +0.000 A 
ENDBRANCH  23  24
ENDBRANCH   6  23
TORSDOF 5
ENDMDL
MODEL 3
REMARK VINA RESULT:      -8.0      3.322      8.771
REMARK  Name = 
REMARK  5 active torsions:
REMARK  status: ('A' for Active; 'I' for Inactive)
REMARK    1  A    between atoms: C_2  and  C_3
REMARK    2  A    between atoms: C_6  and  C_7
REMARK    3  A    between atoms: C_7  and  N_8
REMARK    4  A    between atoms: C_20  and  C_21
REMARK    5  A    between atoms: C_21  and  C_22
REMARK                            x       y       z     vdW  Elec       q    Type
REMARK                         _______ _______ _______ _____ _____    ______ ____
ROOT
ATOM      1  O   UNL     1       1.956   9.630  22.391  0.00  0.00    +0.000 OA
ATOM      2  C   UNL     1       1.347   9.441  21.341  0.00  0.00    +0.000 C 
ATOM      3  N   UNL     1       0.404  10.330  20.834  0.00  0.00    +0.000 N 
ATOM      4  C   UNL     1       0.181  11.605  21.491  0.00  0.00    +0.000 C 
ATOM      5  C   UNL     1      -1.331  11.689  21.594  0.00  0.00    +0.000 C 
ATOM      6  C   UNL     1      -1.814  11.037  20.290  0.00  0.00    +0.000 C 
ATOM      7  C   UNL     1      -0.794   9.905  20.104  0.00  0.00    +0.000 C 
ENDROOT
BRANCH   2   8
ATOM      8  C   UNL     1       1.649   8.215  20.556  0.00  0.00    +0.000 A 
ATOM      9  C   UNL     1       2.063   8.326  19.224  0.00  0.00    +0.000 A 
ATOM     10  C   UNL     1       2.293   7.173  18.466  0.00  0.00    +0.000 A 
ATOM     11  C   UNL     1       2.097   5.903  19.031  0.00  0.00    +0.000 A 
ATOM     12  C   UNL     1       1.685   5.805  20.366  0.00  0.00    +0.000 A 
ATOM     13  C   UNL     1       1.436   6.952  21.113  0.00  0.00    +0.000 A 
BRANCH  11  14
ATOM     14  C   UNL     1       2.333   4.642  18.232  0.00  0.00    +0.000 C 
BRANCH  14  15
ATOM     15  N   UNL     1       3.330   3.800  18.842  0.00  0.00    +0.000 N 
ATOM     16  C   UNL     1       3.060   2.661  19.549  0.00  0.00    +0.000 C 
ATOM     17  O   UNL     1       1.956   2.197  19.795  0.00  0.00    +0.000 OA
ATOM     18  C   UNL     1       4.376   2.053  19.998  0.00  0.00    +0.000 C 
ATOM     19  N   UNL     1       5.310   2.997  19.452  0.00  0.00    +0.000 N 
ATOM     20  C   UNL     1       4.674   4.016  18.776  0.00  0.00    +0.000 C 
ATOM     21  O   UNL     1       5.255   4.938  18.234  0.00  0.00    +0.000 OA
ATOM     22  H   UNL     1       6.318   2.957  19.512  0.00  0.00    +0.000 HD
ENDBRANCH  14  15
ENDBRANCH  11  14
ENDBRANCH   2   8
BRANCH   6  23
ATOM     23  C   UNL     1      -1.826  12.024  19.104  0.00  0.00    +0.000 C 
BRANCH  23  24
ATOM     24  C   UNL     1      -2.518  11.496  17.862  0.00  0.00    +0.000 A 
ATOM     25  C   UNL     1      -1.818  10.740  16.908  0.00  0.00    +0.000 A 
ATOM     26  C   UNL     1      -2.466  10.264  15.765  0.00  0.00    +0.000 A 
ATOM     27  C   UNL     1      -3.818  10.526  15.581  0.00  0.00    +0.000 A 
ATOM     28  F   UNL     1      -4.436  10.068  14.485  0.00  0.00    +0.000 F 
ATOM     29  C   UNL     1      -4.536  11.252  16.522  0.00  0.00    +0.000 A 
ATOM     30  C   UNL     1      -3.888  11.735  17.661  0.00  0.00    +0.000 A 
ENDBRANCH  23  24
ENDBRANCH   6  23
TORSDOF 5
ENDMDL
MODEL 4
REMARK VINA RESULT:      -7.9      4.053      9.659
REMARK  Name = 
REMARK  5 active torsions:
REMARK  status: ('A' for Active; 'I' for Inactive)
REMARK    1  A    between atoms: C_2  and  C_3
REMARK    2  A    between atoms: C_6  and  C_7
REMARK    3  A    between atoms: C_7  and  N_8
REMARK    4  A    between atoms: C_20  and  C_21
REMARK    5  A    between atoms: C_21  and  C_22
REMARK                            x       y       z     vdW  Elec       q    Type
REMARK                         _______ _______ _______ _____ _____    ______ ____
ROOT
ATOM      1  O   UNL     1      -0.249   8.458  21.506  0.00  0.00    +0.000 OA
ATOM      2  C   UNL     1       0.575   9.019  20.788  0.00  0.00    +0.000 C 
ATOM      3  N   UNL     1       0.730  10.401  20.737  0.00  0.00    +0.000 N 
ATOM      4  C   UNL     1      -0.023  11.250  21.642  0.00  0.00    +0.000 C 
ATOM      5  C   UNL     1      -0.584  12.327  20.731  0.00  0.00    +0.000 C 
ATOM      6  C   UNL     1       0.542  12.552  19.711  0.00  0.00    +0.000 C 
ATOM      7  C   UNL     1       1.082  11.129  19.515  0.00  0.00    +0.000 C 
ENDROOT
BRANCH   2   8
ATOM      8  C   UNL     1       1.472   8.182  19.949  0.00  0.00    +0.000 A 
ATOM      9  C   UNL     1       1.770   8.575  18.640  0.00  0.00    +0.000 A 
ATOM     10  C   UNL     1       2.567   7.761  17.830  0.00  0.00    +0.000 A 
ATOM     11  C   UNL     1       3.061   6.541  18.319  0.00  0.00    +0.000 A 
ATOM     12  C   UNL     1       2.759   6.158  19.632  0.00  0.00    +0.000 A 
ATOM     13  C   UNL     1       1.947   6.959  20.430  0.00  0.00    +0.000 A 
BRANCH  11  14
ATOM     14  C   UNL     1       3.920   5.640  17.463  0.00  0.00    +0.000 C 
BRANCH  14  15
ATOM     15  N   UNL     1       4.041   4.320  18.027  0.00  0.00    +0.000 N 
ATOM     16  C   UNL     1       3.185   3.284  17.772  0.00  0.00    +0.000 C 
ATOM     17  O   UNL     1       2.190   3.314  17.063  0.00  0.00    +0.000 OA
ATOM     18  C   UNL     1       3.673   2.064  18.532  0.00  0.00    +0.000 C 
ATOM     19  N   UNL     1       4.836   2.596  19.181  0.00  0.00    +0.000 N 
ATOM     20  C   UNL     1       5.035   3.925  18.871  0.00  0.00    +0.000 C 
ATOM     21  O   UNL     1       5.953   4.595  19.308  0.00  0.00    +0.000 OA
ATOM     22  H   UNL     1       5.475   2.099  19.787  0.00  0.00    +0.000 HD
ENDBRANCH  14  15
ENDBRANCH  11  14
ENDBRANCH   2   8
BRANCH   6  23
ATOM     23  C   UNL     1       1.620  13.529  20.226  0.00  0.00    +0.000 C 
BRANCH  23  24
ATOM     24  C   UNL     1       2.024  14.595  19.224  0.00  0.00    +0.000 A 
ATOM     25  C   UNL     1       3.113  14.401  18.360  0.00  0.00    +0.000 A 
ATOM     26  C   UNL     1       3.478  15.393  17.446  0.00  0.00    +0.000 A 
ATOM     27  C   UNL     1       2.746  16.572  17.381  0.00  0.00    +0.000 A 
ATOM     28  F   UNL     1       3.098  17.521  16.504  0.00  0.00    +0.000 F 
ATOM     29  C   UNL     1       1.651  16.776  18.211  0.00  0.00    +0.000 A 
ATOM     30  C   UNL     1       1.290  15.789  19.130  0.00  0.00    +0.000 A 
ENDBRANCH  23  24
ENDBRANCH   6  23
TORSDOF 5
ENDMDL
MODEL 5
REMARK VINA RESULT:      -7.9      3.107      4.914
REMARK  Name = 
REMARK  5 active torsions:
REMARK  status: ('A' for Active; 'I' for Inactive)
REMARK    1  A    between atoms: C_2  and  C_3
REMARK    2  A    between atoms: C_6  and  C_7
REMARK    3  A    between atoms: C_7  and  N_8
REMARK    4  A    between atoms: C_20  and  C_21
REMARK    5  A    between atoms: C_21  and  C_22
REMARK                            x       y       z     vdW  Elec       q    Type
REMARK                         _______ _______ _______ _____ _____    ______ ____
ROOT
ATOM      1  O   UNL     1       1.887   5.250  21.188  0.00  0.00    +0.000 OA
ATOM      2  C   UNL     1       2.301   5.684  20.116  0.00  0.00    +0.000 C 
ATOM      3  N   UNL     1       3.032   4.917  19.212  0.00  0.00    +0.000 N 
ATOM      4  C   UNL     1       3.240   3.503  19.462  0.00  0.00    +0.000 C 
ATOM      5  C   UNL     1       4.727   3.318  19.218  0.00  0.00    +0.000 C 
ATOM      6  C   UNL     1       5.019   4.271  18.050  0.00  0.00    +0.000 C 
ATOM      7  C   UNL     1       4.106   5.462  18.378  0.00  0.00    +0.000 C 
ENDROOT
BRANCH   2   8
ATOM      8  C   UNL     1       1.986   7.089  19.749  0.00  0.00    +0.000 A 
ATOM      9  C   UNL     1       1.423   7.948  20.700  0.00  0.00    +0.000 A 
ATOM     10  C   UNL     1       1.072   9.253  20.341  0.00  0.00    +0.000 A 
ATOM     11  C   UNL     1       1.270   9.705  19.028  0.00  0.00    +0.000 A 
ATOM     12  C   UNL     1       1.837   8.837  18.084  0.00  0.00    +0.000 A 
ATOM     13  C   UNL     1       2.165   7.531  18.436  0.00  0.00    +0.000 A 
BRANCH  11  14
ATOM     14  C   UNL     1       0.895  11.108  18.613  0.00  0.00    +0.000 C 
BRANCH  14  15
ATOM     15  N   UNL     1      -0.506  11.373  18.819  0.00  0.00    +0.000 N 
ATOM     16  C   UNL     1      -1.006  12.223  19.766  0.00  0.00    +0.000 C 
ATOM     17  O   UNL     1      -0.364  12.862  20.588  0.00  0.00    +0.000 OA
ATOM     18  C   UNL     1      -2.518  12.245  19.639  0.00  0.00    +0.000 C 
ATOM     19  N   UNL     1      -2.711  11.328  18.552  0.00  0.00    +0.000 N 
ATOM     20  C   UNL     1      -1.515  10.827  18.084  0.00  0.00    +0.000 C 
ATOM     21  O   UNL     1      -1.424  10.027  17.171  0.00  0.00    +0.000 OA
ATOM     22  H   UNL     1      -3.591  11.061  18.132  0.00  0.00    +0.000 HD
ENDBRANCH  14  15
ENDBRANCH  11  14
ENDBRANCH   2   8
BRANCH   6  23
ATOM     23  C   UNL     1       4.700   3.641  16.678  0.00  0.00    +0.000 C 
BRANCH  23  24
ATOM     24  C   UNL     1       5.627   4.083  15.561  0.00  0.00    +0.000 A 
ATOM     25  C   UNL     1       5.410   3.672  14.235  0.00  0.00    +0.000 A 
ATOM     26  C   UNL     1       6.275   4.082  13.216  0.00  0.00    +0.000 A 
ATOM     27  C   UNL     1       7.345   4.915  13.515  0.00  0.00    +0.000 A 
ATOM     28  F   UNL     1       8.171   5.305  12.536  0.00  0.00    +0.000 F 
ATOM     29  C   UNL     1       7.565   5.351  14.814  0.00  0.00    +0.000 A 
ATOM     30  C   UNL     1       6.708   4.937  15.836  0.00  0.00    +0.000 A 
ENDBRANCH  23  24
ENDBRANCH   6  23
TORSDOF 5
ENDMDL
MODEL 6
REMARK VINA RESULT:      -7.8      3.110      4.771
REMARK  Name = 
REMARK  5 active torsions:
REMARK  status: ('A' for Active; 'I' for Inactive)
REMARK    1  A    between atoms: C_2  and  C_3
REMARK    2  A    between atoms: C_6  and  C_7
REMARK    3  A    between atoms: C_7  and  N_8
REMARK    4  A    between atoms: C_20  and  C_21
REMARK    5  A    between atoms: C_21  and  C_22
REMARK                            x       y       z     vdW  Elec       q    Type
REMARK                         _______ _______ _______ _____ _____    ______ ____
ROOT
ATOM      1  O   UNL     1       1.949   5.393  21.187  0.00  0.00    +0.000 OA
ATOM      2  C   UNL     1       2.330   5.817  20.099  0.00  0.00    +0.000 C 
ATOM      3  N   UNL     1       3.039   5.045  19.182  0.00  0.00    +0.000 N 
ATOM      4  C   UNL     1       3.262   3.634  19.441  0.00  0.00    +0.000 C 
ATOM      5  C   UNL     1       4.743   3.454  19.157  0.00  0.00    +0.000 C 
ATOM      6  C   UNL     1       4.996   4.397  17.972  0.00  0.00    +0.000 C 
ATOM      7  C   UNL     1       4.087   5.586  18.312  0.00  0.00    +0.000 C 
ENDROOT
BRANCH   2   8
ATOM      8  C   UNL     1       1.997   7.217  19.726  0.00  0.00    +0.000 A 
ATOM      9  C   UNL     1       1.421   8.072  20.673  0.00  0.00    +0.000 A 
ATOM     10  C   UNL     1       1.055   9.371  20.309  0.00  0.00    +0.000 A 
ATOM     11  C   UNL     1       1.248   9.820  18.994  0.00  0.00    +0.000 A 
ATOM     12  C   UNL     1       1.828   8.957  18.055  0.00  0.00    +0.000 A 
ATOM     13  C   UNL     1       2.173   7.657  18.412  0.00  0.00    +0.000 A 
BRANCH  11  14
ATOM     14  C   UNL     1       0.856  11.217  18.574  0.00  0.00    +0.000 C 
BRANCH  14  15
ATOM     15  N   UNL     1      -0.549  11.464  18.777  0.00  0.00    +0.000 N 
ATOM     16  C   UNL     1      -1.554  10.869  18.066  0.00  0.00    +0.000 C 
ATOM     17  O   UNL     1      -1.428  10.071  17.148  0.00  0.00    +0.000 OA
ATOM     18  C   UNL     1      -2.882  11.372  18.602  0.00  0.00    +0.000 C 
ATOM     19  N   UNL     1      -2.436  12.266  19.632  0.00  0.00    +0.000 N 
ATOM     20  C   UNL     1      -1.061  12.306  19.719  0.00  0.00    +0.000 C 
ATOM     21  O   UNL     1      -0.449  12.997  20.513  0.00  0.00    +0.000 OA
ATOM     22  H   UNL     1      -3.016  12.811  20.256  0.00  0.00    +0.000 HD
ENDBRANCH  14  15
ENDBRANCH  11  14
ENDBRANCH   2   8
BRANCH   6  23
ATOM     23  C   UNL     1       4.642   3.750  16.616  0.00  0.00    +0.000 C 
BRANCH  23  24
ATOM     24  C   UNL     1       5.572   4.137  15.481  0.00  0.00    +0.000 A 
ATOM     25  C   UNL     1       5.376   3.640  14.183  0.00  0.00    +0.000 A 
ATOM     26  C   UNL     1       6.244   3.999  13.147  0.00  0.00    +0.000 A 
ATOM     27  C   UNL     1       7.297   4.868  13.402  0.00  0.00    +0.000 A 
ATOM     28  F   UNL     1       8.126   5.211  12.408  0.00  0.00    +0.000 F 
ATOM     29  C   UNL     1       7.496   5.390  14.673  0.00  0.00    +0.000 A 
ATOM     30  C   UNL     1       6.636   5.026  15.711  0.00  0.00    +0.000 A 
ENDBRANCH  23  24
ENDBRANCH   6  23
TORSDOF 5
ENDMDL
MODEL 7
REMARK VINA RESULT:      -7.8      4.039      9.615
REMARK  Name = 
REMARK  5 active torsions:
REMARK  status: ('A' for Active; 'I' for Inactive)
REMARK    1  A    between atoms: C_2  and  C_3
REMARK    2  A    between atoms: C_6  and  C_7
REMARK    3  A    between atoms: C_7  and  N_8
REMARK    4  A    between atoms: C_20  and  C_21
REMARK    5  A    between atoms: C_21  and  C_22
REMARK                            x       y       z     vdW  Elec       q    Type
REMARK                         _______ _______ _______ _____ _____    ______ ____
ROOT
ATOM      1  O   UNL     1      -0.170   8.491  21.498  0.00  0.00    +0.000 OA
ATOM      2  C   UNL     1       0.658   9.034  20.772  0.00  0.00    +0.000 C 
ATOM      3  N   UNL     1       0.822  10.414  20.696  0.00  0.00    +0.000 N 
ATOM      4  C   UNL     1       0.071  11.284  21.583  0.00  0.00    +0.000 C 
ATOM      5  C   UNL     1      -0.481  12.348  20.651  0.00  0.00    +0.000 C 
ATOM      6  C   UNL     1       0.648  12.547  19.629  0.00  0.00    +0.000 C 
ATOM      7  C   UNL     1       1.180  11.117  19.461  0.00  0.00    +0.000 C 
ENDROOT
BRANCH   2   8
ATOM      8  C   UNL     1       1.552   8.176  19.950  0.00  0.00    +0.000 A 
ATOM      9  C   UNL     1       1.955   8.605  18.680  0.00  0.00    +0.000 A 
ATOM     10  C   UNL     1       2.749   7.774  17.883  0.00  0.00    +0.000 A 
ATOM     11  C   UNL     1       3.134   6.506  18.344  0.00  0.00    +0.000 A 
ATOM     12  C   UNL     1       2.727   6.088  19.617  0.00  0.00    +0.000 A 
ATOM     13  C   UNL     1       1.919   6.906  20.402  0.00  0.00    +0.000 A 
BRANCH  11  14
ATOM     14  C   UNL     1       3.987   5.588  17.500  0.00  0.00    +0.000 C 
BRANCH  14  15
ATOM     15  N   UNL     1       5.357   5.567  17.946  0.00  0.00    +0.000 N 
ATOM     16  C   UNL     1       6.315   6.461  17.557  0.00  0.00    +0.000 C 
ATOM     17  O   UNL     1       6.178   7.384  16.767  0.00  0.00    +0.000 OA
ATOM     18  C   UNL     1       7.610   6.115  18.270  0.00  0.00    +0.000 C 
ATOM     19  N   UNL     1       7.199   4.974  19.036  0.00  0.00    +0.000 N 
ATOM     20  C   UNL     1       5.871   4.668  18.831  0.00  0.00    +0.000 C 
ATOM     21  O   UNL     1       5.297   3.736  19.367  0.00  0.00    +0.000 OA
ATOM     22  H   UNL     1       7.769   4.434  19.674  0.00  0.00    +0.000 HD
ENDBRANCH  14  15
ENDBRANCH  11  14
ENDBRANCH   2   8
BRANCH   6  23
ATOM     23  C   UNL     1       1.731  13.527  20.129  0.00  0.00    +0.000 C 
BRANCH  23  24
ATOM     24  C   UNL     1       2.056  14.644  19.155  0.00  0.00    +0.000 A 
ATOM     25  C   UNL     1       1.275  15.809  19.103  0.00  0.00    +0.000 A 
ATOM     26  C   UNL     1       1.582  16.828  18.197  0.00  0.00    +0.000 A 
ATOM     27  C   UNL     1       2.678  16.694  17.355  0.00  0.00    +0.000 A 
ATOM     28  F   UNL     1       2.969  17.672  16.488  0.00  0.00    +0.000 F 
ATOM     29  C   UNL     1       3.478  15.560  17.405  0.00  0.00    +0.000 A 
ATOM     30  C   UNL     1       3.169  14.537  18.303  0.00  0.00    +0.000 A 
ENDBRANCH  23  24
ENDBRANCH   6  23
TORSDOF 5
ENDMDL
MODEL 8
REMARK VINA RESULT:      -7.8      4.688      9.352
REMARK  Name = 
REMARK  5 active torsions:
REMARK  status: ('A' for Active; 'I' for Inactive)
REMARK    1  A    between atoms: C_2  and  C_3
REMARK    2  A    between atoms: C_6  and  C_7
REMARK    3  A    between atoms: C_7  and  N_8
REMARK    4  A    between atoms: C_20  and  C_21
REMARK    5  A    between atoms: C_21  and  C_22
REMARK                            x       y       z     vdW  Elec       q    Type
REMARK                         _______ _______ _______ _____ _____    ______ ____
ROOT
ATOM      1  O   UNL     1      -1.075  10.676  19.246  0.00  0.00    +0.000 OA
ATOM      2  C   UNL     1       0.150  10.750  19.307  0.00  0.00    +0.000 C 
ATOM      3  N   UNL     1       0.839  11.956  19.399  0.00  0.00    +0.000 N 
ATOM      4  C   UNL     1       0.107  13.202  19.543  0.00  0.00    +0.000 C 
ATOM      5  C   UNL     1       0.754  14.111  18.514  0.00  0.00    +0.000 C 
ATOM      6  C   UNL     1       2.234  13.707  18.561  0.00  0.00    +0.000 C 
ATOM      7  C   UNL     1       2.142  12.190  18.772  0.00  0.00    +0.000 C 
ENDROOT
BRANCH   2   8
ATOM      8  C   UNL     1       0.938   9.490  19.311  0.00  0.00    +0.000 A 
ATOM      9  C   UNL     1       1.481   9.005  18.116  0.00  0.00    +0.000 A 
ATOM     10  C   UNL     1       2.174   7.790  18.107  0.00  0.00    +0.000 A 
ATOM     11  C   UNL     1       2.318   7.047  19.289  0.00  0.00    +0.000 A 
ATOM     12  C   UNL     1       1.772   7.544  20.480  0.00  0.00    +0.000 A 
ATOM     13  C   UNL     1       1.064   8.742  20.484  0.00  0.00    +0.000 A 
BRANCH  11  14
ATOM     14  C   UNL     1       3.058   5.730  19.305  0.00  0.00    +0.000 C 
BRANCH  14  15
ATOM     15  N   UNL     1       2.164   4.615  19.493  0.00  0.00    +0.000 N 
ATOM     16  C   UNL     1       1.468   3.999  18.491  0.00  0.00    +0.000 C 
ATOM     17  O   UNL     1       1.468   4.300  17.306  0.00  0.00    +0.000 OA
ATOM     18  C   UNL     1       0.668   2.859  19.095  0.00  0.00    +0.000 C 
ATOM     19  N   UNL     1       1.032   2.977  20.478  0.00  0.00    +0.000 N 
ATOM     20  C   UNL     1       1.913   4.016  20.691  0.00  0.00    +0.000 C 
ATOM     21  O   UNL     1       2.359   4.316  21.784  0.00  0.00    +0.000 OA
ATOM     22  H   UNL     1       0.723   2.388  21.240  0.00  0.00    +0.000 HD
ENDBRANCH  14  15
ENDBRANCH  11  14
ENDBRANCH   2   8
BRANCH   6  23
ATOM     23  C   UNL     1       3.005  14.417  19.694  0.00  0.00    +0.000 C 
BRANCH  23  24
ATOM     24  C   UNL     1       4.453  14.725  19.363  0.00  0.00    +0.000 A 
ATOM     25  C   UNL     1       4.944  14.581  18.055  0.00  0.00    +0.000 A 
ATOM     26  C   UNL     1       6.282  14.863  17.765  0.00  0.00    +0.000 A 
ATOM     27  C   UNL     1       7.127  15.307  18.774  0.00  0.00    +0.000 A 
ATOM     28  F   UNL     1       8.407  15.576  18.492  0.00  0.00    +0.000 F 
ATOM     29  C   UNL     1       6.657  15.479  20.069  0.00  0.00    +0.000 A 
ATOM     30  C   UNL     1       5.323  15.190  20.364  0.00  0.00    +0.000 A 
ENDBRANCH  23  24
ENDBRANCH   6  23
TORSDOF 5
ENDMDL
MODEL 9
REMARK VINA RESULT:      -7.8      0.181      1.282
REMARK  Name = 
REMARK  5 active torsions:
REMARK  status: ('A' for Active; 'I' for Inactive)
REMARK    1  A    between atoms: C_2  and  C_3
REMARK    2  A    between atoms: C_6  and  C_7
REMARK    3  A    between atoms: C_7  and  N_8
REMARK    4  A    between atoms: C_20  and  C_21
REMARK    5  A    between atoms: C_21  and  C_22
REMARK                            x       y       z     vdW  Elec       q    Type
REMARK                         _______ _______ _______ _____ _____    ______ ____
ROOT
ATOM      1  O   UNL     1       5.400   7.375  17.325  0.00  0.00    +0.000 OA
ATOM      2  C   UNL     1       4.449   6.710  17.729  0.00  0.00    +0.000 C 
ATOM      3  N   UNL     1       4.374   5.326  17.602  0.00  0.00    +0.000 N 
ATOM      4  C   UNL     1       5.503   4.584  17.072  0.00  0.00    +0.000 C 
ATOM      5  C   UNL     1       4.870   3.666  16.042  0.00  0.00    +0.000 C 
ATOM      6  C   UNL     1       3.523   3.292  16.677  0.00  0.00    +0.000 C 
ATOM      7  C   UNL     1       3.121   4.605  17.364  0.00  0.00    +0.000 C 
ENDROOT
BRANCH   2   8
ATOM      8  C   UNL     1       3.331   7.413  18.412  0.00  0.00    +0.000 A 
ATOM      9  C   UNL     1       2.870   6.951  19.649  0.00  0.00    +0.000 A 
ATOM     10  C   UNL     1       1.782   7.576  20.266  0.00  0.00    +0.000 A 
ATOM     11  C   UNL     1       1.139   8.657  19.645  0.00  0.00    +0.000 A 
ATOM     12  C   UNL     1       1.611   9.113  18.406  0.00  0.00    +0.000 A 
ATOM     13  C   UNL     1       2.680   8.477  17.783  0.00  0.00    +0.000 A 
BRANCH  11  14
ATOM     14  C   UNL     1      -0.042   9.346  20.287  0.00  0.00    +0.000 C 
BRANCH  14  15
ATOM     15  N   UNL     1      -0.190  10.702  19.823  0.00  0.00    +0.000 N 
ATOM     16  C   UNL     1      -1.023  11.092  18.812  0.00  0.00    +0.000 C 
ATOM     17  O   UNL     1      -1.742  10.370  18.136  0.00  0.00    +0.000 OA
ATOM     18  C   UNL     1      -0.908  12.597  18.651  0.00  0.00    +0.000 C 
ATOM     19  N   UNL     1       0.056  12.905  19.668  0.00  0.00    +0.000 N 
ATOM     20  C   UNL     1       0.466  11.777  20.346  0.00  0.00    +0.000 C 
ATOM     21  O   UNL     1       1.285  11.785  21.248  0.00  0.00    +0.000 OA
ATOM     22  H   UNL     1       0.413  13.819  19.910  0.00  0.00    +0.000 HD
ENDBRANCH  14  15
ENDBRANCH  11  14
ENDBRANCH   2   8
BRANCH   6  23
ATOM     23  C   UNL     1       3.643   2.117  17.671  0.00  0.00    +0.000 C 
BRANCH  23  24
ATOM     24  C   UNL     1       2.892   2.324  18.973  0.00  0.00    +0.000 A 
ATOM     25  C   UNL     1       3.578   2.505  20.184  0.00  0.00    +0.000 A 
ATOM     26  C   UNL     1       2.874   2.689  21.377  0.00  0.00    +0.000 A 
ATOM     27  C   UNL     1       1.485   2.710  21.361  0.00  0.00    +0.000 A 
ATOM     28  F   UNL     1       0.814   2.886  22.506  0.00  0.00    +0.000 F 
ATOM     29  C   UNL     1       0.786   2.555  20.171  0.00  0.00    +0.000 A 
ATOM     30  C   UNL     1       1.487   2.364  18.979  0.00  0.00    +0.000 A 
ENDBRANCH  23  24
ENDBRANCH   6  23
TORSDOF 5
ENDMDL
