MODEL 1
REMARK VINA RESULT:      -7.8      0.000      0.000
REMARK  Name = 
REMARK  4 active torsions:
REMARK  status: ('A' for Active; 'I' for Inactive)
REMARK    1  A    between atoms: C_1  and  C_2
REMARK    2  A    between atoms: C_8  and  N_9
REMARK    3  A    between atoms: C_10  and  C_12
REMARK    4  A    between atoms: N_14  and  C_15
REMARK                            x       y       z     vdW  Elec       q    Type
REMARK                         _______ _______ _______ _____ _____    ______ ____
ROOT
ATOM      1  C   UNL     1      -1.571  10.930  17.983  0.00  0.00    +0.000 A 
ATOM      2  N   UNL     1      -0.813   9.824  17.797  0.00  0.00    +0.000 NA
ATOM      3  N   UNL     1       0.285  10.002  18.602  0.00  0.00    +0.000 N 
ATOM      4  C   UNL     1       0.295  11.266  19.160  0.00  0.00    +0.000 A 
ATOM      5  C   UNL     1      -0.883  11.876  18.783  0.00  0.00    +0.000 A 
ATOM      6  C   UNL     1      -1.252  13.267  19.178  0.00  0.00    +0.000 C 
ATOM      7  C   UNL     1      -0.024  14.050  19.678  0.00  0.00    +0.000 C 
ATOM      8  C   UNL     1       0.864  13.205  20.602  0.00  0.00    +0.000 C 
ATOM      9  C   UNL     1       1.408  11.958  19.882  0.00  0.00    +0.000 C 
ENDROOT
BRANCH   3  10
ATOM     10  C   UNL     1       1.226   8.948  18.774  0.00  0.00    +0.000 A 
ATOM     11  C   UNL     1       1.278   8.257  19.994  0.00  0.00    +0.000 A 
ATOM     12  C   UNL     1       2.193   7.210  20.169  0.00  0.00    +0.000 A 
ATOM     13  C   UNL     1       3.071   6.868  19.145  0.00  0.00    +0.000 A 
ATOM     14  C   UNL     1       3.032   7.574  17.949  0.00  0.00    +0.000 A 
ATOM     15  F   UNL     1       3.895   7.267  16.971  0.00  0.00    +0.000 F 
ATOM     16  C   UNL     1       2.124   8.609  17.756  0.00  0.00    +0.000 A 
ENDBRANCH   3  10
BRANCH   1  18
ATOM     17  N   UNL     1      -3.967  11.096  18.292  0.00  0.00    +0.000 N 
ATOM     18  C   UNL     1      -2.916  11.095  17.393  0.00  0.00    +0.000 C 
ATOM     19  O   UNL     1      -3.100  11.228  16.184  0.00  0.00    +0.000 OA
ATOM     20  H   UNL     1      -3.698  11.028  19.271  0.00  0.00    +0.000 HD
BRANCH  17  28
ATOM     21  C   UNL     1      -7.915   8.596  20.598  0.00  0.00    +0.000 C 
ATOM     22  C   UNL     1      -7.402   9.970  20.793  0.00  0.00    +0.000 A 
ATOM     23  N   UNL     1      -7.552  10.715  21.869  0.00  0.00    +0.000 NA
ATOM     24  N   UNL     1      -7.002  11.951  21.620  0.00  0.00    +0.000 NA
ATOM     25  C   UNL     1      -6.527  11.942  20.395  0.00  0.00    +0.000 A 
ATOM     26  N   UNL     1      -6.723  10.697  19.855  0.00  0.00    +0.000 N 
ATOM     27  C   UNL     1      -6.359  10.326  18.504  0.00  0.00    +0.000 C 
ATOM     28  C   UNL     1      -5.353  11.317  17.870  0.00  0.00    +0.000 C 
ATOM     29  C   UNL     1      -5.813  12.758  18.154  0.00  0.00    +0.000 C 
ATOM     30  C   UNL     1      -5.865  13.044  19.658  0.00  0.00    +0.000 C 
ENDBRANCH  17  28
ENDBRANCH   1  18
TORSDOF 3
ENDMDL
MODEL 2
REMARK VINA RESULT:      -7.5      4.742      7.554
REMARK  Name = 
REMARK  4 active torsions:
REMARK  status: ('A' for Active; 'I' for Inactive)
REMARK    1  A    between atoms: C_1  and  C_2
REMARK    2  A    between atoms: C_8  and  N_9
REMARK    3  A    between atoms: C_10  and  C_12
REMARK    4  A    between atoms: N_14  and  C_15
REMARK                            x       y       z     vdW  Elec       q    Type
REMARK                         _______ _______ _______ _____ _____    ______ ____
ROOT
ATOM      1  C   UNL     1       2.222   6.746  20.025  0.00  0.00    +0.000 A 
ATOM      2  N   UNL     1       3.389   6.979  19.380  0.00  0.00    +0.000 NA
ATOM      3  N   UNL     1       3.698   5.794  18.758  0.00  0.00    +0.000 N 
ATOM      4  C   UNL     1       2.826   4.791  19.134  0.00  0.00    +0.000 A 
ATOM      5  C   UNL     1       1.871   5.376  19.939  0.00  0.00    +0.000 A 
ATOM      6  C   UNL     1       0.746   4.620  20.562  0.00  0.00    +0.000 C 
ATOM      7  C   UNL     1       1.012   3.103  20.543  0.00  0.00    +0.000 C 
ATOM      8  C   UNL     1       1.596   2.636  19.203  0.00  0.00    +0.000 C 
ATOM      9  C   UNL     1       2.942   3.318  18.901  0.00  0.00    +0.000 C 
ENDROOT
BRANCH   3  10
ATOM     10  C   UNL     1       4.794   5.725  17.854  0.00  0.00    +0.000 A 
ATOM     11  C   UNL     1       4.682   6.305  16.581  0.00  0.00    +0.000 A 
ATOM     12  C   UNL     1       5.759   6.253  15.687  0.00  0.00    +0.000 A 
ATOM     13  C   UNL     1       6.936   5.603  16.047  0.00  0.00    +0.000 A 
ATOM     14  C   UNL     1       7.032   5.007  17.297  0.00  0.00    +0.000 A 
ATOM     15  F   UNL     1       8.153   4.355  17.636  0.00  0.00    +0.000 F 
ATOM     16  C   UNL     1       5.975   5.059  18.200  0.00  0.00    +0.000 A 
ENDBRANCH   3  10
BRANCH   1  18
ATOM     17  N   UNL     1       0.979   8.822  19.930  0.00  0.00    +0.000 N 
ATOM     18  C   UNL     1       1.464   7.803  20.728  0.00  0.00    +0.000 C 
ATOM     19  O   UNL     1       1.267   7.784  21.942  0.00  0.00    +0.000 OA
ATOM     20  H   UNL     1       1.158   8.714  18.934  0.00  0.00    +0.000 HD
BRANCH  17  28
ATOM     21  C   UNL     1       3.036  13.475  21.059  0.00  0.00    +0.000 C 
ATOM     22  C   UNL     1       2.269  13.023  19.876  0.00  0.00    +0.000 A 
ATOM     23  N   UNL     1       2.296  13.564  18.675  0.00  0.00    +0.000 NA
ATOM     24  N   UNL     1       1.384  12.905  17.884  0.00  0.00    +0.000 NA
ATOM     25  C   UNL     1       0.813  11.974  18.616  0.00  0.00    +0.000 A 
ATOM     26  N   UNL     1       1.374  11.990  19.867  0.00  0.00    +0.000 N 
ATOM     27  C   UNL     1       0.970  11.126  20.955  0.00  0.00    +0.000 C 
ATOM     28  C   UNL     1       0.151   9.905  20.467  0.00  0.00    +0.000 C 
ATOM     29  C   UNL     1      -0.904  10.376  19.449  0.00  0.00    +0.000 C 
ATOM     30  C   UNL     1      -0.251  11.021  18.223  0.00  0.00    +0.000 C 
ENDBRANCH  17  28
ENDBRANCH   1  18
TORSDOF 3
ENDMDL
MODEL 3
REMARK VINA RESULT:      -7.5      4.716      7.522
REMARK  Name = 
REMARK  4 active torsions:
REMARK  status: ('A' for Active; 'I' for Inactive)
REMARK    1  A    between atoms: C_1  and  C_2
REMARK    2  A    between atoms: C_8  and  N_9
REMARK    3  A    between atoms: C_10  and  C_12
REMARK    4  A    between atoms: N_14  and  C_15
REMARK                            x       y       z     vdW  Elec       q    Type
REMARK                         _______ _______ _______ _____ _____    ______ ____
ROOT
ATOM      1  C   UNL     1       2.269   6.741  19.955  0.00  0.00    +0.000 A 
ATOM      2  N   UNL     1       3.412   7.021  19.286  0.00  0.00    +0.000 NA
ATOM      3  N   UNL     1       3.758   5.849  18.660  0.00  0.00    +0.000 N 
ATOM      4  C   UNL     1       2.936   4.811  19.056  0.00  0.00    +0.000 A 
ATOM      5  C   UNL     1       1.974   5.357  19.879  0.00  0.00    +0.000 A 
ATOM      6  C   UNL     1       0.894   4.557  20.526  0.00  0.00    +0.000 C 
ATOM      7  C   UNL     1       1.224   3.053  20.506  0.00  0.00    +0.000 C 
ATOM      8  C   UNL     1       1.800   2.606  19.155  0.00  0.00    +0.000 C 
ATOM      9  C   UNL     1       3.110   3.343  18.824  0.00  0.00    +0.000 C 
ENDROOT
BRANCH   3  10
ATOM     10  C   UNL     1       4.838   5.822  17.735  0.00  0.00    +0.000 A 
ATOM     11  C   UNL     1       6.098   6.300  18.125  0.00  0.00    +0.000 A 
ATOM     12  C   UNL     1       7.171   6.268  17.226  0.00  0.00    +0.000 A 
ATOM     13  C   UNL     1       6.988   5.787  15.933  0.00  0.00    +0.000 A 
ATOM     14  C   UNL     1       5.732   5.340  15.543  0.00  0.00    +0.000 A 
ATOM     15  F   UNL     1       5.543   4.904  14.291  0.00  0.00    +0.000 F 
ATOM     16  C   UNL     1       4.658   5.356  16.428  0.00  0.00    +0.000 A 
ENDBRANCH   3  10
BRANCH   1  18
ATOM     17  N   UNL     1       1.048   8.832  19.901  0.00  0.00    +0.000 N 
ATOM     18  C   UNL     1       1.481   7.768  20.670  0.00  0.00    +0.000 C 
ATOM     19  O   UNL     1       1.217   7.687  21.869  0.00  0.00    +0.000 OA
ATOM     20  H   UNL     1       1.281   8.775  18.912  0.00  0.00    +0.000 HD
BRANCH  17  28
ATOM     21  C   UNL     1       3.017  13.513  21.075  0.00  0.00    +0.000 C 
ATOM     22  C   UNL     1       2.258  13.058  19.888  0.00  0.00    +0.000 A 
ATOM     23  N   UNL     1       2.274  13.611  18.692  0.00  0.00    +0.000 NA
ATOM     24  N   UNL     1       1.374  12.941  17.895  0.00  0.00    +0.000 NA
ATOM     25  C   UNL     1       0.822  11.993  18.618  0.00  0.00    +0.000 A 
ATOM     26  N   UNL     1       1.383  12.008  19.869  0.00  0.00    +0.000 N 
ATOM     27  C   UNL     1       0.996  11.126  20.949  0.00  0.00    +0.000 C 
ATOM     28  C   UNL     1       0.200   9.895  20.449  0.00  0.00    +0.000 C 
ATOM     29  C   UNL     1      -0.864  10.355  19.436  0.00  0.00    +0.000 C 
ATOM     30  C   UNL     1      -0.224  11.024  18.216  0.00  0.00    +0.000 C 
ENDBRANCH  17  28
ENDBRANCH   1  18
TORSDOF 3
ENDMDL
MODEL 4
REMARK VINA RESULT:      -7.4      3.534      7.729
REMARK  Name = 
REMARK  4 active torsions:
REMARK  status: ('A' for Active; 'I' for Inactive)
REMARK    1  A    between atoms: C_1  and  C_2
REMARK    2  A    between atoms: C_8  and  N_9
REMARK    3  A    between atoms: C_10  and  C_12
REMARK    4  A    between atoms: N_14  and  C_15
REMARK                            x       y       z     vdW  Elec       q    Type
REMARK                         _______ _______ _______ _____ _____    ______ ____
ROOT
ATOM      1  C   UNL     1      -0.065   9.717  20.152  0.00  0.00    +0.000 A 
ATOM      2  N   UNL     1      -0.840   9.463  19.071  0.00  0.00    +0.000 NA
ATOM      3  N   UNL     1      -1.645  10.569  18.940  0.00  0.00    +0.000 N 
ATOM      4  C   UNL     1      -1.488  11.430  20.009  0.00  0.00    +0.000 A 
ATOM      5  C   UNL     1      -0.481  10.909  20.794  0.00  0.00    +0.000 A 
ATOM      6  C   UNL     1      -0.014  11.545  22.061  0.00  0.00    +0.000 C 
ATOM      7  C   UNL     1      -1.034  12.574  22.580  0.00  0.00    +0.000 C 
ATOM      8  C   UNL     1      -1.600  13.447  21.451  0.00  0.00    +0.000 C 
ATOM      9  C   UNL     1      -2.333  12.604  20.393  0.00  0.00    +0.000 C 
ENDROOT
BRANCH   3  10
ATOM     10  C   UNL     1      -2.487  10.710  17.802  0.00  0.00    +0.000 A 
ATOM     11  C   UNL     1      -3.770  11.259  17.952  0.00  0.00    +0.000 A 
ATOM     12  C   UNL     1      -4.603  11.413  16.837  0.00  0.00    +0.000 A 
ATOM     13  C   UNL     1      -4.173  11.000  15.579  0.00  0.00    +0.000 A 
ATOM     14  C   UNL     1      -2.913  10.433  15.441  0.00  0.00    +0.000 A 
ATOM     15  F   UNL     1      -2.507  10.008  14.237  0.00  0.00    +0.000 F 
ATOM     16  C   UNL     1      -2.070  10.282  16.537  0.00  0.00    +0.000 A 
ENDBRANCH   3  10
BRANCH   1  18
ATOM     17  N   UNL     1       1.547   7.996  19.600  0.00  0.00    +0.000 N 
ATOM     18  C   UNL     1       1.039   8.831  20.578  0.00  0.00    +0.000 C 
ATOM     19  O   UNL     1       1.488   8.831  21.723  0.00  0.00    +0.000 OA
ATOM     20  H   UNL     1       1.135   8.111  18.676  0.00  0.00    +0.000 HD
BRANCH  17  28
ATOM     21  C   UNL     1       0.840   2.969  20.781  0.00  0.00    +0.000 C 
ATOM     22  C   UNL     1       1.193   3.616  19.497  0.00  0.00    +0.000 A 
ATOM     23  N   UNL     1       0.996   3.119  18.292  0.00  0.00    +0.000 NA
ATOM     24  N   UNL     1       1.535   3.989  17.372  0.00  0.00    +0.000 NA
ATOM     25  C   UNL     1       2.055   5.001  18.031  0.00  0.00    +0.000 A 
ATOM     26  N   UNL     1       1.822   4.823  19.370  0.00  0.00    +0.000 N 
ATOM     27  C   UNL     1       2.282   5.723  20.406  0.00  0.00    +0.000 C 
ATOM     28  C   UNL     1       2.687   7.109  19.847  0.00  0.00    +0.000 C 
ATOM     29  C   UNL     1       3.545   6.916  18.584  0.00  0.00    +0.000 C 
ATOM     30  C   UNL     1       2.771   6.179  17.488  0.00  0.00    +0.000 C 
ENDBRANCH  17  28
ENDBRANCH   1  18
TORSDOF 3
ENDMDL
MODEL 5
REMARK VINA RESULT:      -7.4      4.103      6.286
REMARK  Name = 
REMARK  4 active torsions:
REMARK  status: ('A' for Active; 'I' for Inactive)
REMARK    1  A    between atoms: C_1  and  C_2
REMARK    2  A    between atoms: C_8  and  N_9
REMARK    3  A    between atoms: C_10  and  C_12
REMARK    4  A    between atoms: N_14  and  C_15
REMARK                            x       y       z     vdW  Elec       q    Type
REMARK                         _______ _______ _______ _____ _____    ______ ____
ROOT
ATOM      1  C   UNL     1       1.066  14.529  19.334  0.00  0.00    +0.000 A 
ATOM      2  N   UNL     1       2.388  14.275  19.192  0.00  0.00    +0.000 NA
ATOM      3  N   UNL     1       2.922  15.428  18.671  0.00  0.00    +0.000 N 
ATOM      4  C   UNL     1       1.930  16.333  18.344  0.00  0.00    +0.000 A 
ATOM      5  C   UNL     1       0.736  15.783  18.763  0.00  0.00    +0.000 A 
ATOM      6  C   UNL     1      -0.585  16.451  18.583  0.00  0.00    +0.000 C 
ATOM      7  C   UNL     1      -0.503  17.582  17.541  0.00  0.00    +0.000 C 
ATOM      8  C   UNL     1       0.765  18.430  17.707  0.00  0.00    +0.000 C 
ATOM      9  C   UNL     1       2.040  17.587  17.535  0.00  0.00    +0.000 C 
ENDROOT
BRANCH   3  10
ATOM     10  C   UNL     1       4.331  15.569  18.537  0.00  0.00    +0.000 A 
ATOM     11  C   UNL     1       4.960  16.733  19.007  0.00  0.00    +0.000 A 
ATOM     12  C   UNL     1       6.348  16.877  18.890  0.00  0.00    +0.000 A 
ATOM     13  C   UNL     1       7.107  15.879  18.285  0.00  0.00    +0.000 A 
ATOM     14  C   UNL     1       6.476  14.742  17.798  0.00  0.00    +0.000 A 
ATOM     15  F   UNL     1       7.199  13.793  17.189  0.00  0.00    +0.000 F 
ATOM     16  C   UNL     1       5.099  14.580  17.915  0.00  0.00    +0.000 A 
ENDBRANCH   3  10
BRANCH   1  18
ATOM     17  N   UNL     1      -0.595  12.779  19.128  0.00  0.00    +0.000 N 
ATOM     18  C   UNL     1       0.130  13.588  19.984  0.00  0.00    +0.000 C 
ATOM     19  O   UNL     1      -0.001  13.516  21.205  0.00  0.00    +0.000 OA
ATOM     20  H   UNL     1      -0.374  12.887  18.140  0.00  0.00    +0.000 HD
BRANCH  17  28
ATOM     21  C   UNL     1      -5.336  12.179  17.047  0.00  0.00    +0.000 C 
ATOM     22  C   UNL     1      -4.081  11.427  16.817  0.00  0.00    +0.000 A 
ATOM     23  N   UNL     1      -3.778  10.724  15.745  0.00  0.00    +0.000 NA
ATOM     24  N   UNL     1      -2.562  10.115  15.957  0.00  0.00    +0.000 NA
ATOM     25  C   UNL     1      -2.144  10.455  17.156  0.00  0.00    +0.000 A 
ATOM     26  N   UNL     1      -3.056  11.315  17.714  0.00  0.00    +0.000 N 
ATOM     27  C   UNL     1      -2.946  11.870  19.046  0.00  0.00    +0.000 C 
ATOM     28  C   UNL     1      -1.513  11.749  19.620  0.00  0.00    +0.000 C 
ATOM     29  C   UNL     1      -0.977  10.331  19.351  0.00  0.00    +0.000 C 
ATOM     30  C   UNL     1      -0.905  10.035  17.851  0.00  0.00    +0.000 C 
ENDBRANCH  17  28
ENDBRANCH   1  18
TORSDOF 3
ENDMDL
MODEL 6
REMARK VINA RESULT:      -7.4      3.699      7.978
REMARK  Name = 
REMARK  4 active torsions:
REMARK  status: ('A' for Active; 'I' for Inactive)
REMARK    1  A    between atoms: C_1  and  C_2
REMARK    2  A    between atoms: C_8  and  N_9
REMARK    3  A    between atoms: C_10  and  C_12
REMARK    4  A    between atoms: N_14  and  C_15
REMARK                            x       y       z     vdW  Elec       q    Type
REMARK                         _______ _______ _______ _____ _____    ______ ____
ROOT
ATOM      1  C   UNL     1       0.684   9.283  18.769  0.00  0.00    +0.000 A 
ATOM      2  N   UNL     1      -0.285   9.259  17.824  0.00  0.00    +0.000 NA
ATOM      3  N   UNL     1      -1.187  10.220  18.209  0.00  0.00    +0.000 N 
ATOM      4  C   UNL     1      -0.872  10.728  19.456  0.00  0.00    +0.000 A 
ATOM      5  C   UNL     1       0.321  10.148  19.831  0.00  0.00    +0.000 A 
ATOM      6  C   UNL     1       1.000  10.430  21.130  0.00  0.00    +0.000 C 
ATOM      7  C   UNL     1       0.036  11.090  22.133  0.00  0.00    +0.000 C 
ATOM      8  C   UNL     1      -0.832  12.171  21.475  0.00  0.00    +0.000 C 
ATOM      9  C   UNL     1      -1.706  11.591  20.349  0.00  0.00    +0.000 C 
ENDROOT
BRANCH   3  10
ATOM     10  C   UNL     1      -2.265  10.575  17.353  0.00  0.00    +0.000 A 
ATOM     11  C   UNL     1      -3.359  11.284  17.872  0.00  0.00    +0.000 A 
ATOM     12  C   UNL     1      -4.422  11.649  17.035  0.00  0.00    +0.000 A 
ATOM     13  C   UNL     1      -4.410  11.287  15.691  0.00  0.00    +0.000 A 
ATOM     14  C   UNL     1      -3.337  10.562  15.188  0.00  0.00    +0.000 A 
ATOM     15  F   UNL     1      -3.336  10.187  13.902  0.00  0.00    +0.000 F 
ATOM     16  C   UNL     1      -2.270  10.201  16.005  0.00  0.00    +0.000 A 
ENDBRANCH   3  10
BRANCH   1  18
ATOM     17  N   UNL     1       1.901   7.266  19.330  0.00  0.00    +0.000 N 
ATOM     18  C   UNL     1       1.924   8.483  18.674  0.00  0.00    +0.000 C 
ATOM     19  O   UNL     1       2.914   8.863  18.051  0.00  0.00    +0.000 OA
ATOM     20  H   UNL     1       1.016   7.030  19.774  0.00  0.00    +0.000 HD
BRANCH  17  28
ATOM     21  C   UNL     1       1.750   2.716  21.868  0.00  0.00    +0.000 C 
ATOM     22  C   UNL     1       1.505   3.032  20.442  0.00  0.00    +0.000 A 
ATOM     23  N   UNL     1       0.794   2.316  19.595  0.00  0.00    +0.000 NA
ATOM     24  N   UNL     1       0.879   2.905  18.354  0.00  0.00    +0.000 NA
ATOM     25  C   UNL     1       1.642   3.969  18.464  0.00  0.00    +0.000 A 
ATOM     26  N   UNL     1       2.023   4.106  19.774  0.00  0.00    +0.000 N 
ATOM     27  C   UNL     1       2.900   5.147  20.265  0.00  0.00    +0.000 C 
ATOM     28  C   UNL     1       3.027   6.329  19.273  0.00  0.00    +0.000 C 
ATOM     29  C   UNL     1       3.239   5.778  17.852  0.00  0.00    +0.000 C 
ATOM     30  C   UNL     1       2.055   4.917  17.403  0.00  0.00    +0.000 C 
ENDBRANCH  17  28
ENDBRANCH   1  18
TORSDOF 3
ENDMDL
MODEL 7
REMARK VINA RESULT:      -7.4      2.483      4.044
REMARK  Name = 
REMARK  4 active torsions:
REMARK  status: ('A' for Active; 'I' for Inactive)
REMARK    1  A    between atoms: C_1  and  C_2
REMARK    2  A    between atoms: C_8  and  N_9
REMARK    3  A    between atoms: C_10  and  C_12
REMARK    4  A    between atoms: N_14  and  C_15
REMARK                            x       y       z     vdW  Elec       q    Type
REMARK                         _______ _______ _______ _____ _____    ______ ____
ROOT
ATOM      1  C   UNL     1      -1.406  11.982  18.217  0.00  0.00    +0.000 A 
ATOM      2  N   UNL     1      -0.799  13.174  18.002  0.00  0.00    +0.000 NA
ATOM      3  N   UNL     1       0.330  13.148  18.784  0.00  0.00    +0.000 N 
ATOM      4  C   UNL     1       0.349  12.030  19.595  0.00  0.00    +0.000 A 
ATOM      5  C   UNL     1      -0.746  11.267  19.248  0.00  0.00    +0.000 A 
ATOM      6  C   UNL     1      -1.089   9.972  19.904  0.00  0.00    +0.000 C 
ATOM      7  C   UNL     1      -0.345   9.810  21.243  0.00  0.00    +0.000 C 
ATOM      8  C   UNL     1       1.121  10.252  21.146  0.00  0.00    +0.000 C 
ATOM      9  C   UNL     1       1.243  11.737  20.759  0.00  0.00    +0.000 C 
ENDROOT
BRANCH   3  10
ATOM     10  C   UNL     1       1.293  14.189  18.684  0.00  0.00    +0.000 A 
ATOM     11  C   UNL     1       0.962  15.485  19.109  0.00  0.00    +0.000 A 
ATOM     12  C   UNL     1       1.907  16.515  19.026  0.00  0.00    +0.000 A 
ATOM     13  C   UNL     1       3.170  16.266  18.498  0.00  0.00    +0.000 A 
ATOM     14  C   UNL     1       3.484  14.988  18.054  0.00  0.00    +0.000 A 
ATOM     15  F   UNL     1       4.689  14.750  17.519  0.00  0.00    +0.000 F 
ATOM     16  C   UNL     1       2.560  13.951  18.139  0.00  0.00    +0.000 A 
ENDBRANCH   3  10
BRANCH   1  18
ATOM     17  N   UNL     1      -3.818  11.890  18.028  0.00  0.00    +0.000 N 
ATOM     18  C   UNL     1      -2.602  11.540  17.470  0.00  0.00    +0.000 C 
ATOM     19  O   UNL     1      -2.533  10.906  16.418  0.00  0.00    +0.000 OA
ATOM     20  H   UNL     1      -3.760  12.455  18.873  0.00  0.00    +0.000 HD
BRANCH  17  28
ATOM     21  C   UNL     1      -7.381   8.872  20.343  0.00  0.00    +0.000 C 
ATOM     22  C   UNL     1      -7.293  10.346  20.232  0.00  0.00    +0.000 A 
ATOM     23  N   UNL     1      -7.854  11.224  21.038  0.00  0.00    +0.000 NA
ATOM     24  N   UNL     1      -7.602  12.485  20.547  0.00  0.00    +0.000 NA
ATOM     25  C   UNL     1      -6.893  12.355  19.448  0.00  0.00    +0.000 A 
ATOM     26  N   UNL     1      -6.643  11.023  19.239  0.00  0.00    +0.000 N 
ATOM     27  C   UNL     1      -5.919  10.497  18.102  0.00  0.00    +0.000 C 
ATOM     28  C   UNL     1      -5.093  11.585  17.372  0.00  0.00    +0.000 C 
ATOM     29  C   UNL     1      -5.959  12.844  17.193  0.00  0.00    +0.000 C 
ATOM     30  C   UNL     1      -6.399  13.418  18.543  0.00  0.00    +0.000 C 
ENDBRANCH  17  28
ENDBRANCH   1  18
TORSDOF 3
ENDMDL
MODEL 8
REMARK VINA RESULT:      -7.3      3.896      7.926
REMARK  Name = 
REMARK  4 active torsions:
REMARK  status: ('A' for Active; 'I' for Inactive)
REMARK    1  A    between atoms: C_1  and  C_2
REMARK    2  A    between atoms: C_8  and  N_9
REMARK    3  A    between atoms: C_10  and  C_12
REMARK    4  A    between atoms: N_14  and  C_15
REMARK                            x       y       z     vdW  Elec       q    Type
REMARK                         _______ _______ _______ _____ _____    ______ ____
ROOT
ATOM      1  C   UNL     1       0.036   9.613  20.147  0.00  0.00    +0.000 A 
ATOM      2  N   UNL     1      -0.714   9.373  19.046  0.00  0.00    +0.000 NA
ATOM      3  N   UNL     1      -1.556  10.453  18.941  0.00  0.00    +0.000 N 
ATOM      4  C   UNL     1      -1.446  11.279  20.044  0.00  0.00    +0.000 A 
ATOM      5  C   UNL     1      -0.433  10.766  20.826  0.00  0.00    +0.000 A 
ATOM      6  C   UNL     1      -0.007  11.370  22.121  0.00  0.00    +0.000 C 
ATOM      7  C   UNL     1      -1.071  12.343  22.662  0.00  0.00    +0.000 C 
ATOM      8  C   UNL     1      -1.652  13.236  21.557  0.00  0.00    +0.000 C 
ATOM      9  C   UNL     1      -2.338  12.407  20.457  0.00  0.00    +0.000 C 
ENDROOT
BRANCH   3  10
ATOM     10  C   UNL     1      -2.386  10.607  17.797  0.00  0.00    +0.000 A 
ATOM     11  C   UNL     1      -2.050   9.949  16.603  0.00  0.00    +0.000 A 
ATOM     12  C   UNL     1      -2.866  10.084  15.473  0.00  0.00    +0.000 A 
ATOM     13  C   UNL     1      -4.000  10.891  15.520  0.00  0.00    +0.000 A 
ATOM     14  C   UNL     1      -4.312  11.561  16.696  0.00  0.00    +0.000 A 
ATOM     15  F   UNL     1      -5.385  12.361  16.736  0.00  0.00    +0.000 F 
ATOM     16  C   UNL     1      -3.517  11.429  17.829  0.00  0.00    +0.000 A 
ENDBRANCH   3  10
BRANCH   1  18
ATOM     17  N   UNL     1       1.611   7.857  19.603  0.00  0.00    +0.000 N 
ATOM     18  C   UNL     1       1.165   8.752  20.557  0.00  0.00    +0.000 C 
ATOM     19  O   UNL     1       1.684   8.822  21.671  0.00  0.00    +0.000 OA
ATOM     20  H   UNL     1       1.143   7.916  18.702  0.00  0.00    +0.000 HD
BRANCH  17  28
ATOM     21  C   UNL     1       0.982   2.906  21.107  0.00  0.00    +0.000 C 
ATOM     22  C   UNL     1       1.258   3.478  19.770  0.00  0.00    +0.000 A 
ATOM     23  N   UNL     1       0.993   2.914  18.609  0.00  0.00    +0.000 NA
ATOM     24  N   UNL     1       1.477   3.729  17.611  0.00  0.00    +0.000 NA
ATOM     25  C   UNL     1       2.032   4.776  18.180  0.00  0.00    +0.000 A 
ATOM     26  N   UNL     1       1.878   4.675  19.538  0.00  0.00    +0.000 N 
ATOM     27  C   UNL     1       2.396   5.631  20.493  0.00  0.00    +0.000 C 
ATOM     28  C   UNL     1       2.765   6.983  19.834  0.00  0.00    +0.000 C 
ATOM     29  C   UNL     1       3.549   6.717  18.536  0.00  0.00    +0.000 C 
ATOM     30  C   UNL     1       2.713   5.920  17.530  0.00  0.00    +0.000 C 
ENDBRANCH  17  28
ENDBRANCH   1  18
TORSDOF 3
ENDMDL
MODEL 9
REMARK VINA RESULT:      -7.3      2.824      4.260
REMARK  Name = 
REMARK  4 active torsions:
REMARK  status: ('A' for Active; 'I' for Inactive)
REMARK    1  A    between atoms: C_1  and  C_2
REMARK    2  A    between atoms: C_8  and  N_9
REMARK    3  A    between atoms: C_10  and  C_12
REMARK    4  A    between atoms: N_14  and  C_15
REMARK                            x       y       z     vdW  Elec       q    Type
REMARK                         _______ _______ _______ _____ _____    ______ ____
ROOT
ATOM      1  C   UNL     1      -1.423  12.007  18.198  0.00  0.00    +0.000 A 
ATOM      2  N   UNL     1      -0.765  13.172  17.992  0.00  0.00    +0.000 NA
ATOM      3  N   UNL     1       0.370  13.083  18.761  0.00  0.00    +0.000 N 
ATOM      4  C   UNL     1       0.346  11.954  19.556  0.00  0.00    +0.000 A 
ATOM      5  C   UNL     1      -0.787  11.248  19.211  0.00  0.00    +0.000 A 
ATOM      6  C   UNL     1      -1.183   9.961  19.854  0.00  0.00    +0.000 C 
ATOM      7  C   UNL     1      -0.433   9.745  21.181  0.00  0.00    +0.000 C 
ATOM      8  C   UNL     1       1.051  10.121  21.074  0.00  0.00    +0.000 C 
ATOM      9  C   UNL     1       1.238  11.603  20.706  0.00  0.00    +0.000 C 
ENDROOT
BRANCH   3  10
ATOM     10  C   UNL     1       1.380  14.080  18.665  0.00  0.00    +0.000 A 
ATOM     11  C   UNL     1       2.659  13.730  18.207  0.00  0.00    +0.000 A 
ATOM     12  C   UNL     1       3.658  14.706  18.097  0.00  0.00    +0.000 A 
ATOM     13  C   UNL     1       3.395  16.022  18.466  0.00  0.00    +0.000 A 
ATOM     14  C   UNL     1       2.135  16.358  18.944  0.00  0.00    +0.000 A 
ATOM     15  F   UNL     1       1.886  17.617  19.327  0.00  0.00    +0.000 F 
ATOM     16  C   UNL     1       1.129  15.402  19.049  0.00  0.00    +0.000 A 
ENDBRANCH   3  10
BRANCH   1  18
ATOM     17  N   UNL     1      -3.841  11.914  18.096  0.00  0.00    +0.000 N 
ATOM     18  C   UNL     1      -2.648  11.632  17.458  0.00  0.00    +0.000 C 
ATOM     19  O   UNL     1      -2.617  11.107  16.346  0.00  0.00    +0.000 OA
ATOM     20  H   UNL     1      -3.752  12.391  18.990  0.00  0.00    +0.000 HD
BRANCH  17  28
ATOM     21  C   UNL     1      -7.307   8.675  20.254  0.00  0.00    +0.000 C 
ATOM     22  C   UNL     1      -7.226  10.153  20.279  0.00  0.00    +0.000 A 
ATOM     23  N   UNL     1      -7.757  10.949  21.184  0.00  0.00    +0.000 NA
ATOM     24  N   UNL     1      -7.526  12.251  20.803  0.00  0.00    +0.000 NA
ATOM     25  C   UNL     1      -6.860  12.228  19.670  0.00  0.00    +0.000 A 
ATOM     26  N   UNL     1      -6.616  10.923  19.328  0.00  0.00    +0.000 N 
ATOM     27  C   UNL     1      -5.935  10.509  18.120  0.00  0.00    +0.000 C 
ATOM     28  C   UNL     1      -5.140  11.664  17.464  0.00  0.00    +0.000 C 
ATOM     29  C   UNL     1      -6.015  12.931  17.437  0.00  0.00    +0.000 C 
ATOM     30  C   UNL     1      -6.402  13.374  18.851  0.00  0.00    +0.000 C 
ENDBRANCH  17  28
ENDBRANCH   1  18
TORSDOF 3
ENDMDL
