MODEL 1
REMARK VINA RESULT:      -8.6      0.000      0.000
REMARK  Name = 
REMARK  3 active torsions:
REMARK  status: ('A' for Active; 'I' for Inactive)
REMARK    1  A    between atoms: C_2  and  C_21
REMARK    2  A    between atoms: N_3  and  C_4
REMARK    3  A    between atoms: C_7  and  C_8
REMARK                            x       y       z     vdW  Elec       q    Type
REMARK                         _______ _______ _______ _____ _____    ______ ____
ROOT
ATOM      1  C   UNL     1       7.757   8.137  17.813  0.00  0.00    +0.000 A 
ATOM      2  C   UNL     1       8.086   6.993  18.540  0.00  0.00    +0.000 A 
ATOM      3  C   UNL     1       7.222   5.889  18.568  0.00  0.00    +0.000 A 
ATOM      4  C   UNL     1       6.004   5.906  17.880  0.00  0.00    +0.000 A 
ATOM      5  C   UNL     1       5.630   7.098  17.248  0.00  0.00    +0.000 A 
ATOM      6  C   UNL     1       6.504   8.193  17.195  0.00  0.00    +0.000 A 
ENDROOT
BRANCH   4   7
ATOM      7  C   UNL     1       5.155   4.708  17.891  0.00  0.00    +0.000 A 
ATOM      8  N   UNL     1       5.124   3.821  16.913  0.00  0.00    +0.000 NA
ATOM      9  N   UNL     1       4.268   2.818  17.257  0.00  0.00    +0.000 NA
ATOM     10  C   UNL     1       3.744   3.090  18.436  0.00  0.00    +0.000 A 
ATOM     11  N   UNL     1       4.220   4.323  18.841  0.00  0.00    +0.000 N 
ATOM     12  C   UNL     1       3.801   5.085  19.995  0.00  0.00    +0.000 C 
ATOM     13  C   UNL     1       2.402   5.682  19.909  0.00  0.00    +0.000 C 
ATOM     14  C   UNL     1       1.258   4.713  19.635  0.00  0.00    +0.000 C 
ATOM     15  C   UNL     1       1.172   3.530  20.593  0.00  0.00    +0.000 C 
ATOM     16  C   UNL     1       2.278   2.472  20.505  0.00  0.00    +0.000 C 
ATOM     17  C   UNL     1       2.781   2.155  19.104  0.00  0.00    +0.000 C 
ENDBRANCH   4   7
BRANCH   1  20
ATOM     18  O   UNL     1       8.842   9.933  19.873  0.00  0.00    +0.000 OA
ATOM     19  C   UNL     1       9.068  10.076  18.674  0.00  0.00    +0.000 C 
ATOM     20  N   UNL     1       8.613   9.253  17.662  0.00  0.00    +0.000 N 
ATOM     21  H   UNL     1       9.004   9.380  16.739  0.00  0.00    +0.000 HD
BRANCH  19  22
ATOM     22  C   UNL     1       9.983  11.195  18.243  0.00  0.00    +0.000 A 
ATOM     23  C   UNL     1       9.386  12.461  17.838  0.00  0.00    +0.000 A 
ATOM     24  C   UNL     1      10.129  13.475  17.374  0.00  0.00    +0.000 A 
ATOM     25  C   UNL     1      11.601  13.314  17.276  0.00  0.00    +0.000 A 
ATOM     26  O   UNL     1      12.317  14.217  16.861  0.00  0.00    +0.000 OA
ATOM     27  N   UNL     1      12.095  12.094  17.672  0.00  0.00    +0.000 N 
ATOM     28  C   UNL     1      11.315  11.054  18.128  0.00  0.00    +0.000 A 
ATOM     29  H   UNL     1      13.097  11.984  17.579  0.00  0.00    +0.000 HD
ENDBRANCH  19  22
ENDBRANCH   1  20
TORSDOF 3
ENDMDL
MODEL 2
REMARK VINA RESULT:      -8.5      1.062      1.591
REMARK  Name = 
REMARK  3 active torsions:
REMARK  status: ('A' for Active; 'I' for Inactive)
REMARK    1  A    between atoms: C_2  and  C_21
REMARK    2  A    between atoms: N_3  and  C_4
REMARK    3  A    between atoms: C_7  and  C_8
REMARK                            x       y       z     vdW  Elec       q    Type
REMARK                         _______ _______ _______ _____ _____    ______ ____
ROOT
ATOM      1  C   UNL     1       7.716   8.178  17.820  0.00  0.00    +0.000 A 
ATOM      2  C   UNL     1       6.466   7.881  17.275  0.00  0.00    +0.000 A 
ATOM      3  C   UNL     1       5.788   6.709  17.636  0.00  0.00    +0.000 A 
ATOM      4  C   UNL     1       6.345   5.800  18.542  0.00  0.00    +0.000 A 
ATOM      5  C   UNL     1       7.646   6.048  18.994  0.00  0.00    +0.000 A 
ATOM      6  C   UNL     1       8.315   7.232  18.658  0.00  0.00    +0.000 A 
ENDROOT
BRANCH   4   7
ATOM      7  C   UNL     1       5.575   4.613  18.934  0.00  0.00    +0.000 A 
ATOM      8  N   UNL     1       5.989   3.374  18.745  0.00  0.00    +0.000 NA
ATOM      9  N   UNL     1       5.061   2.517  19.257  0.00  0.00    +0.000 NA
ATOM     10  C   UNL     1       4.056   3.219  19.742  0.00  0.00    +0.000 A 
ATOM     11  N   UNL     1       4.303   4.554  19.486  0.00  0.00    +0.000 N 
ATOM     12  C   UNL     1       3.407   5.666  19.704  0.00  0.00    +0.000 C 
ATOM     13  C   UNL     1       2.212   5.735  18.763  0.00  0.00    +0.000 C 
ATOM     14  C   UNL     1       1.313   4.506  18.704  0.00  0.00    +0.000 C 
ATOM     15  C   UNL     1       0.784   4.030  20.053  0.00  0.00    +0.000 C 
ATOM     16  C   UNL     1       1.795   3.420  21.031  0.00  0.00    +0.000 C 
ATOM     17  C   UNL     1       2.883   2.559  20.406  0.00  0.00    +0.000 C 
ENDBRANCH   4   7
BRANCH   1  20
ATOM     18  O   UNL     1       9.031   9.977  19.740  0.00  0.00    +0.000 OA
ATOM     19  C   UNL     1       8.997  10.196  18.531  0.00  0.00    +0.000 C 
ATOM     20  N   UNL     1       8.421   9.380  17.577  0.00  0.00    +0.000 N 
ATOM     21  H   UNL     1       8.604   9.588  16.606  0.00  0.00    +0.000 HD
BRANCH  19  22
ATOM     22  C   UNL     1       9.701  11.420  18.003  0.00  0.00    +0.000 A 
ATOM     23  C   UNL     1      11.157  11.466  18.069  0.00  0.00    +0.000 A 
ATOM     24  C   UNL     1      11.847  12.548  17.686  0.00  0.00    +0.000 A 
ATOM     25  C   UNL     1      11.117  13.735  17.174  0.00  0.00    +0.000 A 
ATOM     26  O   UNL     1      11.710  14.742  16.811  0.00  0.00    +0.000 OA
ATOM     27  N   UNL     1       9.747  13.623  17.143  0.00  0.00    +0.000 N 
ATOM     28  C   UNL     1       9.051  12.510  17.559  0.00  0.00    +0.000 A 
ATOM     29  H   UNL     1       9.257  14.446  16.815  0.00  0.00    +0.000 HD
ENDBRANCH  19  22
ENDBRANCH   1  20
TORSDOF 3
ENDMDL
MODEL 3
REMARK VINA RESULT:      -8.3      6.512      9.094
REMARK  Name = 
REMARK  3 active torsions:
REMARK  status: ('A' for Active; 'I' for Inactive)
REMARK    1  A    between atoms: C_2  and  C_21
REMARK    2  A    between atoms: N_3  and  C_4
REMARK    3  A    between atoms: C_7  and  C_8
REMARK                            x       y       z     vdW  Elec       q    Type
REMARK                         _______ _______ _______ _____ _____    ______ ____
ROOT
ATOM      1  C   UNL     1       0.295   9.839  20.504  0.00  0.00    +0.000 A 
ATOM      2  C   UNL     1       0.682   9.965  19.169  0.00  0.00    +0.000 A 
ATOM      3  C   UNL     1       1.519   9.011  18.573  0.00  0.00    +0.000 A 
ATOM      4  C   UNL     1       1.998   7.915  19.299  0.00  0.00    +0.000 A 
ATOM      5  C   UNL     1       1.699   7.858  20.665  0.00  0.00    +0.000 A 
ATOM      6  C   UNL     1       0.840   8.794  21.256  0.00  0.00    +0.000 A 
ENDROOT
BRANCH   4   7
ATOM      7  C   UNL     1       2.827   6.911  18.620  0.00  0.00    +0.000 A 
ATOM      8  N   UNL     1       3.561   7.165  17.552  0.00  0.00    +0.000 NA
ATOM      9  N   UNL     1       4.233   6.032  17.200  0.00  0.00    +0.000 NA
ATOM     10  C   UNL     1       3.900   5.065  18.032  0.00  0.00    +0.000 A 
ATOM     11  N   UNL     1       2.947   5.558  18.903  0.00  0.00    +0.000 N 
ATOM     12  C   UNL     1       2.190   4.813  19.883  0.00  0.00    +0.000 C 
ATOM     13  C   UNL     1       1.142   3.864  19.314  0.00  0.00    +0.000 C 
ATOM     14  C   UNL     1       1.630   2.824  18.313  0.00  0.00    +0.000 C 
ATOM     15  C   UNL     1       2.790   1.959  18.795  0.00  0.00    +0.000 C 
ATOM     16  C   UNL     1       4.152   2.641  18.967  0.00  0.00    +0.000 C 
ATOM     17  C   UNL     1       4.501   3.694  17.926  0.00  0.00    +0.000 C 
ENDBRANCH   4   7
BRANCH   1  20
ATOM     18  O   UNL     1       0.774  12.498  21.666  0.00  0.00    +0.000 OA
ATOM     19  C   UNL     1      -0.320  11.939  21.699  0.00  0.00    +0.000 C 
ATOM     20  N   UNL     1      -0.616  10.707  21.149  0.00  0.00    +0.000 N 
ATOM     21  H   UNL     1      -1.588  10.434  21.100  0.00  0.00    +0.000 HD
BRANCH  19  22
ATOM     22  C   UNL     1      -1.481  12.671  22.324  0.00  0.00    +0.000 A 
ATOM     23  C   UNL     1      -2.397  11.921  23.176  0.00  0.00    +0.000 A 
ATOM     24  C   UNL     1      -3.490  12.486  23.705  0.00  0.00    +0.000 A 
ATOM     25  C   UNL     1      -3.779  13.915  23.427  0.00  0.00    +0.000 A 
ATOM     26  O   UNL     1      -4.766  14.470  23.895  0.00  0.00    +0.000 OA
ATOM     27  N   UNL     1      -2.876  14.559  22.615  0.00  0.00    +0.000 N 
ATOM     28  C   UNL     1      -1.768  13.958  22.062  0.00  0.00    +0.000 A 
ATOM     29  H   UNL     1      -3.095  15.527  22.412  0.00  0.00    +0.000 HD
ENDBRANCH  19  22
ENDBRANCH   1  20
TORSDOF 3
ENDMDL
MODEL 4
REMARK VINA RESULT:      -8.2      5.919      8.646
REMARK  Name = 
REMARK  3 active torsions:
REMARK  status: ('A' for Active; 'I' for Inactive)
REMARK    1  A    between atoms: C_2  and  C_21
REMARK    2  A    between atoms: N_3  and  C_4
REMARK    3  A    between atoms: C_7  and  C_8
REMARK                            x       y       z     vdW  Elec       q    Type
REMARK                         _______ _______ _______ _____ _____    ______ ____
ROOT
ATOM      1  C   UNL     1       1.272   9.224  19.712  0.00  0.00    +0.000 A 
ATOM      2  C   UNL     1       1.675   9.212  18.376  0.00  0.00    +0.000 A 
ATOM      3  C   UNL     1       2.266   8.071  17.817  0.00  0.00    +0.000 A 
ATOM      4  C   UNL     1       2.477   6.917  18.581  0.00  0.00    +0.000 A 
ATOM      5  C   UNL     1       2.175   6.977  19.946  0.00  0.00    +0.000 A 
ATOM      6  C   UNL     1       1.559   8.107  20.501  0.00  0.00    +0.000 A 
ENDROOT
BRANCH   4   7
ATOM      7  C   UNL     1       3.048   5.726  17.940  0.00  0.00    +0.000 A 
ATOM      8  N   UNL     1       2.551   4.510  18.076  0.00  0.00    +0.000 NA
ATOM      9  N   UNL     1       3.289   3.646  17.322  0.00  0.00    +0.000 NA
ATOM     10  C   UNL     1       4.261   4.317  16.736  0.00  0.00    +0.000 A 
ATOM     11  N   UNL     1       4.194   5.630  17.163  0.00  0.00    +0.000 N 
ATOM     12  C   UNL     1       5.146   6.684  16.899  0.00  0.00    +0.000 C 
ATOM     13  C   UNL     1       6.485   6.548  17.612  0.00  0.00    +0.000 C 
ATOM     14  C   UNL     1       7.254   5.252  17.384  0.00  0.00    +0.000 C 
ATOM     15  C   UNL     1       7.496   4.894  15.922  0.00  0.00    +0.000 C 
ATOM     16  C   UNL     1       6.277   4.484  15.087  0.00  0.00    +0.000 C 
ATOM     17  C   UNL     1       5.231   3.648  15.809  0.00  0.00    +0.000 C 
ENDBRANCH   4   7
BRANCH   1  20
ATOM     18  O   UNL     1      -1.428  10.255  19.168  0.00  0.00    +0.000 OA
ATOM     19  C   UNL     1      -0.676  10.754  20.001  0.00  0.00    +0.000 C 
ATOM     20  N   UNL     1       0.589  10.302  20.323  0.00  0.00    +0.000 N 
ATOM     21  H   UNL     1       1.038  10.696  21.138  0.00  0.00    +0.000 HD
BRANCH  19  22
ATOM     22  C   UNL     1      -1.178  11.920  20.816  0.00  0.00    +0.000 A 
ATOM     23  C   UNL     1      -1.078  11.847  22.268  0.00  0.00    +0.000 A 
ATOM     24  C   UNL     1      -1.568  12.811  23.059  0.00  0.00    +0.000 A 
ATOM     25  C   UNL     1      -2.227  13.991  22.446  0.00  0.00    +0.000 A 
ATOM     26  O   UNL     1      -2.685  14.895  23.133  0.00  0.00    +0.000 OA
ATOM     27  N   UNL     1      -2.288  13.993  21.073  0.00  0.00    +0.000 N 
ATOM     28  C   UNL     1      -1.797  12.984  20.275  0.00  0.00    +0.000 A 
ATOM     29  H   UNL     1      -2.761  14.791  20.665  0.00  0.00    +0.000 HD
ENDBRANCH  19  22
ENDBRANCH   1  20
TORSDOF 3
ENDMDL
MODEL 5
REMARK VINA RESULT:      -8.2      6.179     10.194
REMARK  Name = 
REMARK  3 active torsions:
REMARK  status: ('A' for Active; 'I' for Inactive)
REMARK    1  A    between atoms: C_2  and  C_21
REMARK    2  A    between atoms: N_3  and  C_4
REMARK    3  A    between atoms: C_7  and  C_8
REMARK                            x       y       z     vdW  Elec       q    Type
REMARK                         _______ _______ _______ _____ _____    ______ ____
ROOT
ATOM      1  C   UNL     1       2.083   7.840  19.375  0.00  0.00    +0.000 A 
ATOM      2  C   UNL     1       2.161   8.512  18.155  0.00  0.00    +0.000 A 
ATOM      3  C   UNL     1       1.601   9.788  18.003  0.00  0.00    +0.000 A 
ATOM      4  C   UNL     1       0.940  10.419  19.063  0.00  0.00    +0.000 A 
ATOM      5  C   UNL     1       0.767   9.692  20.246  0.00  0.00    +0.000 A 
ATOM      6  C   UNL     1       1.350   8.428  20.410  0.00  0.00    +0.000 A 
ENDROOT
BRANCH   4   7
ATOM      7  C   UNL     1       0.417  11.778  18.877  0.00  0.00    +0.000 A 
ATOM      8  N   UNL     1      -0.770  12.044  18.365  0.00  0.00    +0.000 NA
ATOM      9  N   UNL     1      -0.959  13.394  18.369  0.00  0.00    +0.000 NA
ATOM     10  C   UNL     1       0.119  13.973  18.860  0.00  0.00    +0.000 A 
ATOM     11  N   UNL     1       1.052  12.988  19.122  0.00  0.00    +0.000 N 
ATOM     12  C   UNL     1       2.427  13.172  19.526  0.00  0.00    +0.000 C 
ATOM     13  C   UNL     1       3.354  13.727  18.452  0.00  0.00    +0.000 C 
ATOM     14  C   UNL     1       2.947  15.048  17.811  0.00  0.00    +0.000 C 
ATOM     15  C   UNL     1       2.681  16.185  18.793  0.00  0.00    +0.000 C 
ATOM     16  C   UNL     1       1.437  16.070  19.682  0.00  0.00    +0.000 C 
ATOM     17  C   UNL     1       0.208  15.461  19.025  0.00  0.00    +0.000 C 
ENDBRANCH   4   7
BRANCH   1  20
ATOM     18  O   UNL     1       1.858   5.317  17.880  0.00  0.00    +0.000 OA
ATOM     19  C   UNL     1       2.531   5.433  18.902  0.00  0.00    +0.000 C 
ATOM     20  N   UNL     1       2.700   6.593  19.633  0.00  0.00    +0.000 N 
ATOM     21  H   UNL     1       3.406   6.598  20.355  0.00  0.00    +0.000 HD
BRANCH  19  22
ATOM     22  C   UNL     1       3.314   4.238  19.386  0.00  0.00    +0.000 A 
ATOM     23  C   UNL     1       2.747   3.422  20.452  0.00  0.00    +0.000 A 
ATOM     24  C   UNL     1       3.416   2.389  20.982  0.00  0.00    +0.000 A 
ATOM     25  C   UNL     1       4.769   2.058  20.470  0.00  0.00    +0.000 A 
ATOM     26  O   UNL     1       5.413   1.121  20.925  0.00  0.00    +0.000 OA
ATOM     27  N   UNL     1       5.242   2.871  19.468  0.00  0.00    +0.000 N 
ATOM     28  C   UNL     1       4.550   3.941  18.947  0.00  0.00    +0.000 A 
ATOM     29  H   UNL     1       6.176   2.652  19.141  0.00  0.00    +0.000 HD
ENDBRANCH  19  22
ENDBRANCH   1  20
TORSDOF 3
ENDMDL
MODEL 6
REMARK VINA RESULT:      -8.2      6.496      8.994
REMARK  Name = 
REMARK  3 active torsions:
REMARK  status: ('A' for Active; 'I' for Inactive)
REMARK    1  A    between atoms: C_2  and  C_21
REMARK    2  A    between atoms: N_3  and  C_4
REMARK    3  A    between atoms: C_7  and  C_8
REMARK                            x       y       z     vdW  Elec       q    Type
REMARK                         _______ _______ _______ _____ _____    ______ ____
ROOT
ATOM      1  C   UNL     1       0.354   9.859  20.563  0.00  0.00    +0.000 A 
ATOM      2  C   UNL     1       0.814   8.706  21.200  0.00  0.00    +0.000 A 
ATOM      3  C   UNL     1       1.630   7.790  20.522  0.00  0.00    +0.000 A 
ATOM      4  C   UNL     1       1.998   7.998  19.188  0.00  0.00    +0.000 A 
ATOM      5  C   UNL     1       1.440   9.095  18.523  0.00  0.00    +0.000 A 
ATOM      6  C   UNL     1       0.647  10.028  19.206  0.00  0.00    +0.000 A 
ENDROOT
BRANCH   4   7
ATOM      7  C   UNL     1       2.899   7.041  18.534  0.00  0.00    +0.000 A 
ATOM      8  N   UNL     1       3.685   7.348  17.519  0.00  0.00    +0.000 NA
ATOM      9  N   UNL     1       4.416   6.248  17.179  0.00  0.00    +0.000 NA
ATOM     10  C   UNL     1       4.069   5.248  17.965  0.00  0.00    +0.000 A 
ATOM     11  N   UNL     1       3.050   5.685  18.790  0.00  0.00    +0.000 N 
ATOM     12  C   UNL     1       2.263   4.888  19.703  0.00  0.00    +0.000 C 
ATOM     13  C   UNL     1       1.283   3.922  19.049  0.00  0.00    +0.000 C 
ATOM     14  C   UNL     1       1.865   2.926  18.053  0.00  0.00    +0.000 C 
ATOM     15  C   UNL     1       3.024   2.088  18.581  0.00  0.00    +0.000 C 
ATOM     16  C   UNL     1       4.349   2.809  18.850  0.00  0.00    +0.000 C 
ATOM     17  C   UNL     1       4.722   3.902  17.859  0.00  0.00    +0.000 C 
ENDBRANCH   4   7
BRANCH   1  20
ATOM     18  O   UNL     1      -0.108  10.286  23.435  0.00  0.00    +0.000 OA
ATOM     19  C   UNL     1      -0.596  11.003  22.564  0.00  0.00    +0.000 C 
ATOM     20  N   UNL     1      -0.395  10.873  21.204  0.00  0.00    +0.000 N 
ATOM     21  H   UNL     1      -0.716  11.621  20.606  0.00  0.00    +0.000 HD
BRANCH  19  22
ATOM     22  C   UNL     1      -1.432  12.184  22.990  0.00  0.00    +0.000 A 
ATOM     23  C   UNL     1      -2.814  11.948  23.389  0.00  0.00    +0.000 A 
ATOM     24  C   UNL     1      -3.637  12.955  23.709  0.00  0.00    +0.000 A 
ATOM     25  C   UNL     1      -3.133  14.350  23.667  0.00  0.00    +0.000 A 
ATOM     26  O   UNL     1      -3.852  15.298  23.956  0.00  0.00    +0.000 OA
ATOM     27  N   UNL     1      -1.823  14.498  23.280  0.00  0.00    +0.000 N 
ATOM     28  C   UNL     1      -0.995  13.454  22.934  0.00  0.00    +0.000 A 
ATOM     29  H   UNL     1      -1.495  15.456  23.230  0.00  0.00    +0.000 HD
ENDBRANCH  19  22
ENDBRANCH   1  20
TORSDOF 3
ENDMDL
MODEL 7
REMARK VINA RESULT:      -8.1      5.822      8.544
REMARK  Name = 
REMARK  3 active torsions:
REMARK  status: ('A' for Active; 'I' for Inactive)
REMARK    1  A    between atoms: C_2  and  C_21
REMARK    2  A    between atoms: N_3  and  C_4
REMARK    3  A    between atoms: C_7  and  C_8
REMARK                            x       y       z     vdW  Elec       q    Type
REMARK                         _______ _______ _______ _____ _____    ______ ____
ROOT
ATOM      1  C   UNL     1       1.283   9.267  19.884  0.00  0.00    +0.000 A 
ATOM      2  C   UNL     1       1.587   9.250  18.522  0.00  0.00    +0.000 A 
ATOM      3  C   UNL     1       2.131   8.106  17.924  0.00  0.00    +0.000 A 
ATOM      4  C   UNL     1       2.395   6.954  18.672  0.00  0.00    +0.000 A 
ATOM      5  C   UNL     1       2.195   7.017  20.056  0.00  0.00    +0.000 A 
ATOM      6  C   UNL     1       1.625   8.150  20.653  0.00  0.00    +0.000 A 
ENDROOT
BRANCH   4   7
ATOM      7  C   UNL     1       2.913   5.759  17.994  0.00  0.00    +0.000 A 
ATOM      8  N   UNL     1       2.265   4.610  17.933  0.00  0.00    +0.000 NA
ATOM      9  N   UNL     1       3.002   3.728  17.201  0.00  0.00    +0.000 NA
ATOM     10  C   UNL     1       4.120   4.316  16.826  0.00  0.00    +0.000 A 
ATOM     11  N   UNL     1       4.143   5.584  17.375  0.00  0.00    +0.000 N 
ATOM     12  C   UNL     1       5.238   6.526  17.355  0.00  0.00    +0.000 C 
ATOM     13  C   UNL     1       6.433   6.157  18.225  0.00  0.00    +0.000 C 
ATOM     14  C   UNL     1       7.073   4.797  17.970  0.00  0.00    +0.000 C 
ATOM     15  C   UNL     1       7.485   4.540  16.524  0.00  0.00    +0.000 C 
ATOM     16  C   UNL     1       6.364   4.365  15.493  0.00  0.00    +0.000 C 
ATOM     17  C   UNL     1       5.134   3.610  15.974  0.00  0.00    +0.000 C 
ENDBRANCH   4   7
BRANCH   1  20
ATOM     18  O   UNL     1      -0.501   9.226  22.222  0.00  0.00    +0.000 OA
ATOM     19  C   UNL     1      -0.202  10.258  21.625  0.00  0.00    +0.000 C 
ATOM     20  N   UNL     1       0.651  10.348  20.542  0.00  0.00    +0.000 N 
ATOM     21  H   UNL     1       0.944  11.268  20.247  0.00  0.00    +0.000 HD
BRANCH  19  22
ATOM     22  C   UNL     1      -0.736  11.569  22.145  0.00  0.00    +0.000 A 
ATOM     23  C   UNL     1      -1.883  11.543  23.045  0.00  0.00    +0.000 A 
ATOM     24  C   UNL     1      -2.457  12.669  23.489  0.00  0.00    +0.000 A 
ATOM     25  C   UNL     1      -1.912  13.982  23.061  0.00  0.00    +0.000 A 
ATOM     26  O   UNL     1      -2.406  15.034  23.447  0.00  0.00    +0.000 OA
ATOM     27  N   UNL     1      -0.834  13.931  22.211  0.00  0.00    +0.000 N 
ATOM     28  C   UNL     1      -0.268  12.764  21.747  0.00  0.00    +0.000 A 
ATOM     29  H   UNL     1      -0.485  14.832  21.905  0.00  0.00    +0.000 HD
ENDBRANCH  19  22
ENDBRANCH   1  20
TORSDOF 3
ENDMDL
MODEL 8
REMARK VINA RESULT:      -8.1      5.624      8.309
REMARK  Name = 
REMARK  3 active torsions:
REMARK  status: ('A' for Active; 'I' for Inactive)
REMARK    1  A    between atoms: C_2  and  C_21
REMARK    2  A    between atoms: N_3  and  C_4
REMARK    3  A    between atoms: C_7  and  C_8
REMARK                            x       y       z     vdW  Elec       q    Type
REMARK                         _______ _______ _______ _____ _____    ______ ____
ROOT
ATOM      1  C   UNL     1       1.409   8.692  20.234  0.00  0.00    +0.000 A 
ATOM      2  C   UNL     1       1.530   7.425  20.806  0.00  0.00    +0.000 A 
ATOM      3  C   UNL     1       2.081   6.361  20.079  0.00  0.00    +0.000 A 
ATOM      4  C   UNL     1       2.514   6.533  18.760  0.00  0.00    +0.000 A 
ATOM      5  C   UNL     1       2.284   7.775  18.157  0.00  0.00    +0.000 A 
ATOM      6  C   UNL     1       1.760   8.848  18.890  0.00  0.00    +0.000 A 
ENDROOT
BRANCH   4   7
ATOM      7  C   UNL     1       3.136   5.405  18.055  0.00  0.00    +0.000 A 
ATOM      8  N   UNL     1       2.814   4.142  18.263  0.00  0.00    +0.000 NA
ATOM      9  N   UNL     1       3.546   3.357  17.422  0.00  0.00    +0.000 NA
ATOM     10  C   UNL     1       4.343   4.127  16.708  0.00  0.00    +0.000 A 
ATOM     11  N   UNL     1       4.173   5.431  17.133  0.00  0.00    +0.000 N 
ATOM     12  C   UNL     1       4.946   6.586  16.739  0.00  0.00    +0.000 C 
ATOM     13  C   UNL     1       6.375   6.628  17.267  0.00  0.00    +0.000 C 
ATOM     14  C   UNL     1       7.259   5.429  16.945  0.00  0.00    +0.000 C 
ATOM     15  C   UNL     1       7.347   5.071  15.465  0.00  0.00    +0.000 C 
ATOM     16  C   UNL     1       6.088   4.500  14.803  0.00  0.00    +0.000 C 
ATOM     17  C   UNL     1       5.257   3.559  15.662  0.00  0.00    +0.000 C 
ENDBRANCH   4   7
BRANCH   1  20
ATOM     18  O   UNL     1      -0.993  10.317  19.745  0.00  0.00    +0.000 OA
ATOM     19  C   UNL     1      -0.180  10.572  20.631  0.00  0.00    +0.000 C 
ATOM     20  N   UNL     1       0.949   9.834  20.930  0.00  0.00    +0.000 N 
ATOM     21  H   UNL     1       1.443  10.053  21.783  0.00  0.00    +0.000 HD
BRANCH  19  22
ATOM     22  C   UNL     1      -0.452  11.744  21.540  0.00  0.00    +0.000 A 
ATOM     23  C   UNL     1      -1.491  11.610  22.554  0.00  0.00    +0.000 A 
ATOM     24  C   UNL     1      -1.838  12.632  23.348  0.00  0.00    +0.000 A 
ATOM     25  C   UNL     1      -1.145  13.937  23.201  0.00  0.00    +0.000 A 
ATOM     26  O   UNL     1      -1.430  14.894  23.909  0.00  0.00    +0.000 OA
ATOM     27  N   UNL     1      -0.180  13.992  22.224  0.00  0.00    +0.000 N 
ATOM     28  C   UNL     1       0.151  12.938  21.402  0.00  0.00    +0.000 A 
ATOM     29  H   UNL     1       0.270  14.893  22.115  0.00  0.00    +0.000 HD
ENDBRANCH  19  22
ENDBRANCH   1  20
TORSDOF 3
ENDMDL
MODEL 9
REMARK VINA RESULT:      -8.0      5.687      8.408
REMARK  Name = 
REMARK  3 active torsions:
REMARK  status: ('A' for Active; 'I' for Inactive)
REMARK    1  A    between atoms: C_2  and  C_21
REMARK    2  A    between atoms: N_3  and  C_4
REMARK    3  A    between atoms: C_7  and  C_8
REMARK                            x       y       z     vdW  Elec       q    Type
REMARK                         _______ _______ _______ _____ _____    ______ ____
ROOT
ATOM      1  C   UNL     1       1.215   8.963  20.049  0.00  0.00    +0.000 A 
ATOM      2  C   UNL     1       1.493   9.047  18.684  0.00  0.00    +0.000 A 
ATOM      3  C   UNL     1       2.100   7.979  18.010  0.00  0.00    +0.000 A 
ATOM      4  C   UNL     1       2.453   6.805  18.684  0.00  0.00    +0.000 A 
ATOM      5  C   UNL     1       2.276   6.774  20.072  0.00  0.00    +0.000 A 
ATOM      6  C   UNL     1       1.644   7.828  20.744  0.00  0.00    +0.000 A 
ENDROOT
BRANCH   4   7
ATOM      7  C   UNL     1       3.036   5.690  17.928  0.00  0.00    +0.000 A 
ATOM      8  N   UNL     1       2.555   4.460  17.945  0.00  0.00    +0.000 NA
ATOM      9  N   UNL     1       3.301   3.684  17.108  0.00  0.00    +0.000 NA
ATOM     10  C   UNL     1       4.262   4.421  16.588  0.00  0.00    +0.000 A 
ATOM     11  N   UNL     1       4.180   5.685  17.142  0.00  0.00    +0.000 N 
ATOM     12  C   UNL     1       5.117   6.773  16.980  0.00  0.00    +0.000 C 
ATOM     13  C   UNL     1       6.461   6.585  17.671  0.00  0.00    +0.000 C 
ATOM     14  C   UNL     1       7.246   5.327  17.315  0.00  0.00    +0.000 C 
ATOM     15  C   UNL     1       7.485   5.118  15.824  0.00  0.00    +0.000 C 
ATOM     16  C   UNL     1       6.268   4.776  14.956  0.00  0.00    +0.000 C 
ATOM     17  C   UNL     1       5.236   3.859  15.596  0.00  0.00    +0.000 C 
ENDBRANCH   4   7
BRANCH   1  20
ATOM     18  O   UNL     1       1.667  11.869  20.104  0.00  0.00    +0.000 OA
ATOM     19  C   UNL     1       0.806  11.312  20.781  0.00  0.00    +0.000 C 
ATOM     20  N   UNL     1       0.525   9.959  20.780  0.00  0.00    +0.000 N 
ATOM     21  H   UNL     1      -0.312   9.650  21.253  0.00  0.00    +0.000 HD
BRANCH  19  22
ATOM     22  C   UNL     1      -0.091  12.163  21.644  0.00  0.00    +0.000 A 
ATOM     23  C   UNL     1      -1.153  11.508  22.398  0.00  0.00    +0.000 A 
ATOM     24  C   UNL     1      -2.033  12.206  23.128  0.00  0.00    +0.000 A 
ATOM     25  C   UNL     1      -1.926  13.686  23.181  0.00  0.00    +0.000 A 
ATOM     26  O   UNL     1      -2.708  14.360  23.839  0.00  0.00    +0.000 OA
ATOM     27  N   UNL     1      -0.904  14.235  22.445  0.00  0.00    +0.000 N 
ATOM     28  C   UNL     1      -0.019  13.505  21.683  0.00  0.00    +0.000 A 
ATOM     29  H   UNL     1      -0.853  15.246  22.467  0.00  0.00    +0.000 HD
ENDBRANCH  19  22
ENDBRANCH   1  20
TORSDOF 3
ENDMDL
