MODEL 1
REMARK VINA RESULT:      -7.7      0.000      0.000
REMARK  Name = 
REMARK  4 active torsions:
REMARK  status: ('A' for Active; 'I' for Inactive)
REMARK    1  A    between atoms: C_1  and  C_2
REMARK    2  A    between atoms: C_2  and  C_3
REMARK    3  A    between atoms: C_7  and  N_8
REMARK    4  A    between atoms: C_16  and  C_17
REMARK                            x       y       z     vdW  Elec       q    Type
REMARK                         _______ _______ _______ _____ _____    ______ ____
ROOT
ATOM      1  N   UNL     1       3.254   6.239  20.128  0.00  0.00    +0.000 N 
ATOM      2  C   UNL     1       4.450   6.042  19.271  0.00  0.00    +0.000 C 
ATOM      3  C   UNL     1       4.094   4.791  18.520  0.00  0.00    +0.000 A 
ATOM      4  C   UNL     1       3.220   4.058  19.333  0.00  0.00    +0.000 A 
ATOM      5  C   UNL     1       2.565   2.918  18.907  0.00  0.00    +0.000 A 
ATOM      6  C   UNL     1       2.792   2.532  17.594  0.00  0.00    +0.000 A 
ATOM      7  F   UNL     1       2.113   1.494  17.092  0.00  0.00    +0.000 F 
ATOM      8  C   UNL     1       3.645   3.262  16.749  0.00  0.00    +0.000 A 
ATOM      9  C   UNL     1       4.321   4.413  17.197  0.00  0.00    +0.000 A 
ATOM     10  C   UNL     1       2.808   4.929  20.460  0.00  0.00    +0.000 C 
ATOM     11  O   UNL     1       2.054   4.583  21.346  0.00  0.00    +0.000 OA
ENDROOT
BRANCH   1  16
ATOM     12  C   UNL     1       1.010   9.127  19.878  0.00  0.00    +0.000 A 
ATOM     13  C   UNL     1       1.514   9.630  18.665  0.00  0.00    +0.000 A 
ATOM     14  C   UNL     1       2.219   8.815  17.778  0.00  0.00    +0.000 A 
ATOM     15  C   UNL     1       2.542   7.513  18.137  0.00  0.00    +0.000 A 
ATOM     16  C   UNL     1       2.280   7.083  19.444  0.00  0.00    +0.000 A 
ATOM     17  C   UNL     1       1.384   7.820  20.232  0.00  0.00    +0.000 A 
BRANCH  12  19
ATOM     18  C   UNL     1      -0.710  10.992  20.133  0.00  0.00    +0.000 C 
ATOM     19  C   UNL     1       0.208  10.010  20.823  0.00  0.00    +0.000 C 
ATOM     20  C   UNL     1       0.238   9.723  22.229  0.00  0.00    +0.000 C 
ATOM     21  N   UNL     1       0.966  10.681  21.868  0.00  0.00    +0.000 NA
ENDBRANCH  12  19
ENDBRANCH   1  16
BRANCH   9  22
ATOM     22  C   UNL     1       5.111   5.234  16.204  0.00  0.00    +0.000 C 
ATOM     23  F   UNL     1       4.621   6.488  16.006  0.00  0.00    +0.000 F 
ATOM     24  F   UNL     1       6.399   5.401  16.597  0.00  0.00    +0.000 F 
ATOM     25  F   UNL     1       5.157   4.646  14.977  0.00  0.00    +0.000 F 
ENDBRANCH   9  22
TORSDOF 3
ENDMDL
MODEL 2
REMARK VINA RESULT:      -7.7      1.966      2.859
REMARK  Name = 
REMARK  4 active torsions:
REMARK  status: ('A' for Active; 'I' for Inactive)
REMARK    1  A    between atoms: C_1  and  C_2
REMARK    2  A    between atoms: C_2  and  C_3
REMARK    3  A    between atoms: C_7  and  N_8
REMARK    4  A    between atoms: C_16  and  C_17
REMARK                            x       y       z     vdW  Elec       q    Type
REMARK                         _______ _______ _______ _____ _____    ______ ____
ROOT
ATOM      1  N   UNL     1       3.724   5.087  19.333  0.00  0.00    +0.000 N 
ATOM      2  C   UNL     1       5.119   5.583  19.444  0.00  0.00    +0.000 C 
ATOM      3  C   UNL     1       5.709   5.152  18.132  0.00  0.00    +0.000 A 
ATOM      4  C   UNL     1       4.999   4.018  17.715  0.00  0.00    +0.000 A 
ATOM      5  C   UNL     1       5.167   3.434  16.474  0.00  0.00    +0.000 A 
ATOM      6  C   UNL     1       6.072   4.048  15.621  0.00  0.00    +0.000 A 
ATOM      7  F   UNL     1       6.208   3.590  14.371  0.00  0.00    +0.000 F 
ATOM      8  C   UNL     1       6.780   5.200  16.004  0.00  0.00    +0.000 A 
ATOM      9  C   UNL     1       6.615   5.780  17.278  0.00  0.00    +0.000 A 
ATOM     10  C   UNL     1       3.812   3.877  18.591  0.00  0.00    +0.000 C 
ATOM     11  O   UNL     1       2.995   2.984  18.489  0.00  0.00    +0.000 OA
ENDROOT
BRANCH   1  16
ATOM     12  C   UNL     1       1.876   8.251  19.427  0.00  0.00    +0.000 A 
ATOM     13  C   UNL     1       2.440   8.813  18.268  0.00  0.00    +0.000 A 
ATOM     14  C   UNL     1       3.034   8.015  17.289  0.00  0.00    +0.000 A 
ATOM     15  C   UNL     1       3.184   6.651  17.501  0.00  0.00    +0.000 A 
ATOM     16  C   UNL     1       2.868   6.119  18.758  0.00  0.00    +0.000 A 
ATOM     17  C   UNL     1       2.076   6.876  19.633  0.00  0.00    +0.000 A 
BRANCH  12  19
ATOM     18  C   UNL     1       1.232   8.559  21.875  0.00  0.00    +0.000 C 
ATOM     19  C   UNL     1       1.195   9.122  20.473  0.00  0.00    +0.000 C 
ATOM     20  C   UNL     1       0.763  10.439  20.101  0.00  0.00    +0.000 C 
ATOM     21  N   UNL     1      -0.149   9.575  20.151  0.00  0.00    +0.000 NA
ENDBRANCH  12  19
ENDBRANCH   1  16
BRANCH   9  22
ATOM     22  C   UNL     1       7.295   7.095  17.580  0.00  0.00    +0.000 C 
ATOM     23  F   UNL     1       8.140   7.521  16.602  0.00  0.00    +0.000 F 
ATOM     24  F   UNL     1       6.399   8.099  17.755  0.00  0.00    +0.000 F 
ATOM     25  F   UNL     1       8.034   7.037  18.722  0.00  0.00    +0.000 F 
ENDBRANCH   9  22
TORSDOF 3
ENDMDL
MODEL 3
REMARK VINA RESULT:      -7.6      2.496      4.146
REMARK  Name = 
REMARK  4 active torsions:
REMARK  status: ('A' for Active; 'I' for Inactive)
REMARK    1  A    between atoms: C_1  and  C_2
REMARK    2  A    between atoms: C_2  and  C_3
REMARK    3  A    between atoms: C_7  and  N_8
REMARK    4  A    between atoms: C_16  and  C_17
REMARK                            x       y       z     vdW  Elec       q    Type
REMARK                         _______ _______ _______ _____ _____    ______ ____
ROOT
ATOM      1  N   UNL     1       4.043   3.050  18.870  0.00  0.00    +0.000 N 
ATOM      2  C   UNL     1       5.512   3.262  18.903  0.00  0.00    +0.000 C 
ATOM      3  C   UNL     1       5.699   4.315  17.849  0.00  0.00    +0.000 A 
ATOM      4  C   UNL     1       4.653   4.166  16.929  0.00  0.00    +0.000 A 
ATOM      5  C   UNL     1       4.414   5.059  15.901  0.00  0.00    +0.000 A 
ATOM      6  C   UNL     1       5.259   6.157  15.831  0.00  0.00    +0.000 A 
ATOM      7  F   UNL     1       5.021   7.107  14.920  0.00  0.00    +0.000 F 
ATOM      8  C   UNL     1       6.302   6.344  16.755  0.00  0.00    +0.000 A 
ATOM      9  C   UNL     1       6.548   5.420  17.789  0.00  0.00    +0.000 A 
ATOM     10  C   UNL     1       3.667   3.223  17.509  0.00  0.00    +0.000 C 
ATOM     11  O   UNL     1       2.644   2.880  16.952  0.00  0.00    +0.000 OA
ENDROOT
BRANCH   1  16
ATOM     12  C   UNL     1       2.285   6.119  19.834  0.00  0.00    +0.000 A 
ATOM     13  C   UNL     1       1.184   5.498  20.451  0.00  0.00    +0.000 A 
ATOM     14  C   UNL     1       1.258   4.184  20.915  0.00  0.00    +0.000 A 
ATOM     15  C   UNL     1       2.391   3.421  20.666  0.00  0.00    +0.000 A 
ATOM     16  C   UNL     1       3.386   3.935  19.825  0.00  0.00    +0.000 A 
ATOM     17  C   UNL     1       3.402   5.312  19.560  0.00  0.00    +0.000 A 
BRANCH  12  19
ATOM     18  C   UNL     1       1.507   8.498  20.321  0.00  0.00    +0.000 C 
ATOM     19  C   UNL     1       2.212   7.564  19.364  0.00  0.00    +0.000 C 
ATOM     20  C   UNL     1       2.953   7.950  18.198  0.00  0.00    +0.000 C 
ATOM     21  N   UNL     1       1.723   7.773  18.010  0.00  0.00    +0.000 NA
ENDBRANCH  12  19
ENDBRANCH   1  16
BRANCH   9  22
ATOM     22  C   UNL     1       7.590   5.747  18.833  0.00  0.00    +0.000 C 
ATOM     23  F   UNL     1       8.192   6.955  18.657  0.00  0.00    +0.000 F 
ATOM     24  F   UNL     1       7.061   5.779  20.082  0.00  0.00    +0.000 F 
ATOM     25  F   UNL     1       8.590   4.824  18.864  0.00  0.00    +0.000 F 
ENDBRANCH   9  22
TORSDOF 3
ENDMDL
MODEL 4
REMARK VINA RESULT:      -7.6      2.014      2.831
REMARK  Name = 
REMARK  4 active torsions:
REMARK  status: ('A' for Active; 'I' for Inactive)
REMARK    1  A    between atoms: C_1  and  C_2
REMARK    2  A    between atoms: C_2  and  C_3
REMARK    3  A    between atoms: C_7  and  N_8
REMARK    4  A    between atoms: C_16  and  C_17
REMARK                            x       y       z     vdW  Elec       q    Type
REMARK                         _______ _______ _______ _____ _____    ______ ____
ROOT
ATOM      1  N   UNL     1       3.800   5.030  19.243  0.00  0.00    +0.000 N 
ATOM      2  C   UNL     1       5.188   5.539  19.381  0.00  0.00    +0.000 C 
ATOM      3  C   UNL     1       5.796   5.152  18.064  0.00  0.00    +0.000 A 
ATOM      4  C   UNL     1       5.103   4.022  17.608  0.00  0.00    +0.000 A 
ATOM      5  C   UNL     1       5.289   3.474  16.353  0.00  0.00    +0.000 A 
ATOM      6  C   UNL     1       6.195   4.122  15.526  0.00  0.00    +0.000 A 
ATOM      7  F   UNL     1       6.348   3.700  14.266  0.00  0.00    +0.000 F 
ATOM      8  C   UNL     1       6.886   5.271  15.949  0.00  0.00    +0.000 A 
ATOM      9  C   UNL     1       6.702   5.813  17.236  0.00  0.00    +0.000 A 
ATOM     10  C   UNL     1       3.909   3.842  18.468  0.00  0.00    +0.000 C 
ATOM     11  O   UNL     1       3.104   2.943  18.334  0.00  0.00    +0.000 OA
ENDROOT
BRANCH   1  16
ATOM     12  C   UNL     1       1.809   8.102  19.443  0.00  0.00    +0.000 A 
ATOM     13  C   UNL     1       2.422   8.772  18.369  0.00  0.00    +0.000 A 
ATOM     14  C   UNL     1       3.112   8.075  17.377  0.00  0.00    +0.000 A 
ATOM     15  C   UNL     1       3.310   6.706  17.498  0.00  0.00    +0.000 A 
ATOM     16  C   UNL     1       2.937   6.068  18.689  0.00  0.00    +0.000 A 
ATOM     17  C   UNL     1       2.058   6.724  19.561  0.00  0.00    +0.000 A 
BRANCH  12  19
ATOM     18  C   UNL     1       0.669  10.280  20.117  0.00  0.00    +0.000 C 
ATOM     19  C   UNL     1       1.025   8.863  20.502  0.00  0.00    +0.000 C 
ATOM     20  C   UNL     1       0.538   8.150  21.647  0.00  0.00    +0.000 C 
ATOM     21  N   UNL     1       1.573   8.833  21.849  0.00  0.00    +0.000 NA
ENDBRANCH  12  19
ENDBRANCH   1  16
BRANCH   9  22
ATOM     22  C   UNL     1       7.364   7.127  17.582  0.00  0.00    +0.000 C 
ATOM     23  F   UNL     1       8.111   7.090  18.718  0.00  0.00    +0.000 F 
ATOM     24  F   UNL     1       8.205   7.542  16.602  0.00  0.00    +0.000 F 
ATOM     25  F   UNL     1       6.455   8.126  17.756  0.00  0.00    +0.000 F 
ENDBRANCH   9  22
TORSDOF 3
ENDMDL
MODEL 5
REMARK VINA RESULT:      -7.4      2.798      3.936
REMARK  Name = 
REMARK  4 active torsions:
REMARK  status: ('A' for Active; 'I' for Inactive)
REMARK    1  A    between atoms: C_1  and  C_2
REMARK    2  A    between atoms: C_2  and  C_3
REMARK    3  A    between atoms: C_7  and  N_8
REMARK    4  A    between atoms: C_16  and  C_17
REMARK                            x       y       z     vdW  Elec       q    Type
REMARK                         _______ _______ _______ _____ _____    ______ ____
ROOT
ATOM      1  N   UNL     1       2.694   6.206  17.567  0.00  0.00    +0.000 N 
ATOM      2  C   UNL     1       1.707   5.117  17.775  0.00  0.00    +0.000 C 
ATOM      3  C   UNL     1       2.516   4.099  18.525  0.00  0.00    +0.000 A 
ATOM      4  C   UNL     1       3.854   4.282  18.151  0.00  0.00    +0.000 A 
ATOM      5  C   UNL     1       4.907   3.620  18.754  0.00  0.00    +0.000 A 
ATOM      6  C   UNL     1       4.581   2.763  19.794  0.00  0.00    +0.000 A 
ATOM      7  F   UNL     1       5.561   2.167  20.483  0.00  0.00    +0.000 F 
ATOM      8  C   UNL     1       3.250   2.578  20.206  0.00  0.00    +0.000 A 
ATOM      9  C   UNL     1       2.181   3.244  19.574  0.00  0.00    +0.000 A 
ATOM     10  C   UNL     1       3.945   5.551  17.391  0.00  0.00    +0.000 C 
ATOM     11  O   UNL     1       4.975   5.991  16.922  0.00  0.00    +0.000 OA
ENDROOT
BRANCH   1  16
ATOM     12  C   UNL     1       1.293   9.095  19.337  0.00  0.00    +0.000 A 
ATOM     13  C   UNL     1       1.084   8.454  20.571  0.00  0.00    +0.000 A 
ATOM     14  C   UNL     1       1.783   7.296  20.915  0.00  0.00    +0.000 A 
ATOM     15  C   UNL     1       2.616   6.684  19.987  0.00  0.00    +0.000 A 
ATOM     16  C   UNL     1       2.631   7.159  18.669  0.00  0.00    +0.000 A 
ATOM     17  C   UNL     1       2.111   8.434  18.404  0.00  0.00    +0.000 A 
BRANCH  12  19
ATOM     18  C   UNL     1      -0.533  10.210  17.950  0.00  0.00    +0.000 C 
ATOM     19  C   UNL     1       0.558  10.379  18.982  0.00  0.00    +0.000 C 
ATOM     20  C   UNL     1       0.813  11.558  19.758  0.00  0.00    +0.000 C 
ATOM     21  N   UNL     1       1.394  11.521  18.644  0.00  0.00    +0.000 NA
ENDBRANCH  12  19
ENDBRANCH   1  16
BRANCH   9  22
ATOM     22  C   UNL     1       0.791   3.115  20.152  0.00  0.00    +0.000 C 
ATOM     23  F   UNL     1       0.170   4.305  20.375  0.00  0.00    +0.000 F 
ATOM     24  F   UNL     1      -0.035   2.419  19.331  0.00  0.00    +0.000 F 
ATOM     25  F   UNL     1       0.792   2.457  21.343  0.00  0.00    +0.000 F 
ENDBRANCH   9  22
TORSDOF 3
ENDMDL
MODEL 6
REMARK VINA RESULT:      -7.2      2.371      4.159
REMARK  Name = 
REMARK  4 active torsions:
REMARK  status: ('A' for Active; 'I' for Inactive)
REMARK    1  A    between atoms: C_1  and  C_2
REMARK    2  A    between atoms: C_2  and  C_3
REMARK    3  A    between atoms: C_7  and  N_8
REMARK    4  A    between atoms: C_16  and  C_17
REMARK                            x       y       z     vdW  Elec       q    Type
REMARK                         _______ _______ _______ _____ _____    ______ ____
ROOT
ATOM      1  N   UNL     1       4.088   2.987  18.811  0.00  0.00    +0.000 N 
ATOM      2  C   UNL     1       5.554   3.217  18.826  0.00  0.00    +0.000 C 
ATOM      3  C   UNL     1       5.706   4.332  17.832  0.00  0.00    +0.000 A 
ATOM      4  C   UNL     1       4.641   4.223  16.927  0.00  0.00    +0.000 A 
ATOM      5  C   UNL     1       4.370   5.171  15.959  0.00  0.00    +0.000 A 
ATOM      6  C   UNL     1       5.200   6.283  15.935  0.00  0.00    +0.000 A 
ATOM      7  F   UNL     1       4.931   7.282  15.086  0.00  0.00    +0.000 F 
ATOM      8  C   UNL     1       6.260   6.430  16.846  0.00  0.00    +0.000 A 
ATOM      9  C   UNL     1       6.540   5.450  17.819  0.00  0.00    +0.000 A 
ATOM     10  C   UNL     1       3.681   3.235  17.471  0.00  0.00    +0.000 C 
ATOM     11  O   UNL     1       2.650   2.912  16.916  0.00  0.00    +0.000 OA
ENDROOT
BRANCH   1  16
ATOM     12  C   UNL     1       2.184   5.900  19.965  0.00  0.00    +0.000 A 
ATOM     13  C   UNL     1       1.183   5.190  20.649  0.00  0.00    +0.000 A 
ATOM     14  C   UNL     1       1.389   3.878  21.080  0.00  0.00    +0.000 A 
ATOM     15  C   UNL     1       2.553   3.206  20.732  0.00  0.00    +0.000 A 
ATOM     16  C   UNL     1       3.441   3.807  19.830  0.00  0.00    +0.000 A 
ATOM     17  C   UNL     1       3.335   5.185  19.592  0.00  0.00    +0.000 A 
BRANCH  12  19
ATOM     18  C   UNL     1       2.692   7.728  18.261  0.00  0.00    +0.000 C 
ATOM     19  C   UNL     1       1.969   7.343  19.531  0.00  0.00    +0.000 C 
ATOM     20  C   UNL     1       0.990   8.133  20.221  0.00  0.00    +0.000 C 
ATOM     21  N   UNL     1       2.181   8.355  20.554  0.00  0.00    +0.000 NA
ENDBRANCH  12  19
ENDBRANCH   1  16
BRANCH   9  22
ATOM     22  C   UNL     1       7.600   5.729  18.859  0.00  0.00    +0.000 C 
ATOM     23  F   UNL     1       8.601   4.808  18.892  0.00  0.00    +0.000 F 
ATOM     24  F   UNL     1       8.208   6.925  18.652  0.00  0.00    +0.000 F 
ATOM     25  F   UNL     1       7.082   5.774  20.117  0.00  0.00    +0.000 F 
ENDBRANCH   9  22
TORSDOF 3
ENDMDL
MODEL 7
REMARK VINA RESULT:      -7.1      5.000      7.539
REMARK  Name = 
REMARK  4 active torsions:
REMARK  status: ('A' for Active; 'I' for Inactive)
REMARK    1  A    between atoms: C_1  and  C_2
REMARK    2  A    between atoms: C_2  and  C_3
REMARK    3  A    between atoms: C_7  and  N_8
REMARK    4  A    between atoms: C_16  and  C_17
REMARK                            x       y       z     vdW  Elec       q    Type
REMARK                         _______ _______ _______ _____ _____    ______ ____
ROOT
ATOM      1  N   UNL     1      -1.528  12.485  18.902  0.00  0.00    +0.000 N 
ATOM      2  C   UNL     1      -0.145  12.066  18.564  0.00  0.00    +0.000 C 
ATOM      3  C   UNL     1       0.190  11.146  19.702  0.00  0.00    +0.000 A 
ATOM      4  C   UNL     1      -0.571  11.562  20.803  0.00  0.00    +0.000 A 
ATOM      5  C   UNL     1      -0.635  10.855  21.990  0.00  0.00    +0.000 A 
ATOM      6  C   UNL     1       0.082   9.669  22.040  0.00  0.00    +0.000 A 
ATOM      7  F   UNL     1      -0.018   8.891  23.124  0.00  0.00    +0.000 F 
ATOM      8  C   UNL     1       0.834   9.216  20.942  0.00  0.00    +0.000 A 
ATOM      9  C   UNL     1       0.907   9.951  19.743  0.00  0.00    +0.000 A 
ATOM     10  C   UNL     1      -1.566  12.548  20.322  0.00  0.00    +0.000 C 
ATOM     11  O   UNL     1      -2.376  13.102  21.038  0.00  0.00    +0.000 OA
ENDROOT
BRANCH   1  16
ATOM     12  C   UNL     1      -4.839  11.605  17.597  0.00  0.00    +0.000 A 
ATOM     13  C   UNL     1      -4.413  11.176  16.328  0.00  0.00    +0.000 A 
ATOM     14  C   UNL     1      -3.095  10.777  16.100  0.00  0.00    +0.000 A 
ATOM     15  C   UNL     1      -2.145  10.912  17.103  0.00  0.00    +0.000 A 
ATOM     16  C   UNL     1      -2.492  11.582  18.283  0.00  0.00    +0.000 A 
ATOM     17  C   UNL     1      -3.849  11.768  18.581  0.00  0.00    +0.000 A 
BRANCH  12  19
ATOM     18  C   UNL     1      -6.772  13.160  17.010  0.00  0.00    +0.000 C 
ATOM     19  C   UNL     1      -6.286  12.002  17.850  0.00  0.00    +0.000 C 
ATOM     20  C   UNL     1      -7.097  11.162  18.684  0.00  0.00    +0.000 C 
ATOM     21  N   UNL     1      -6.660  12.200  19.241  0.00  0.00    +0.000 NA
ENDBRANCH  12  19
ENDBRANCH   1  16
BRANCH   9  22
ATOM     22  C   UNL     1       1.614   9.345  18.553  0.00  0.00    +0.000 C 
ATOM     23  F   UNL     1       2.311   8.212  18.839  0.00  0.00    +0.000 F 
ATOM     24  F   UNL     1       0.745   9.003  17.568  0.00  0.00    +0.000 F 
ATOM     25  F   UNL     1       2.506  10.209  17.994  0.00  0.00    +0.000 F 
ENDBRANCH   9  22
TORSDOF 3
ENDMDL
MODEL 8
REMARK VINA RESULT:      -7.1      6.288      8.483
REMARK  Name = 
REMARK  4 active torsions:
REMARK  status: ('A' for Active; 'I' for Inactive)
REMARK    1  A    between atoms: C_1  and  C_2
REMARK    2  A    between atoms: C_2  and  C_3
REMARK    3  A    between atoms: C_7  and  N_8
REMARK    4  A    between atoms: C_16  and  C_17
REMARK                            x       y       z     vdW  Elec       q    Type
REMARK                         _______ _______ _______ _____ _____    ______ ____
ROOT
ATOM      1  N   UNL     1      -0.197  11.385  18.550  0.00  0.00    +0.000 N 
ATOM      2  C   UNL     1       0.559  10.654  19.598  0.00  0.00    +0.000 C 
ATOM      3  C   UNL     1       0.035  11.281  20.857  0.00  0.00    +0.000 A 
ATOM      4  C   UNL     1      -0.369  12.582  20.530  0.00  0.00    +0.000 A 
ATOM      5  C   UNL     1      -1.043  13.409  21.409  0.00  0.00    +0.000 A 
ATOM      6  C   UNL     1      -1.339  12.875  22.655  0.00  0.00    +0.000 A 
ATOM      7  F   UNL     1      -2.075  13.589  23.514  0.00  0.00    +0.000 F 
ATOM      8  C   UNL     1      -0.967  11.564  23.000  0.00  0.00    +0.000 A 
ATOM      9  C   UNL     1      -0.265  10.734  22.104  0.00  0.00    +0.000 A 
ATOM     10  C   UNL     1      -0.358  12.706  19.054  0.00  0.00    +0.000 C 
ATOM     11  O   UNL     1      -0.654  13.719  18.453  0.00  0.00    +0.000 OA
ENDROOT
BRANCH   1  16
ATOM     12  C   UNL     1      -3.820  11.159  18.040  0.00  0.00    +0.000 A 
ATOM     13  C   UNL     1      -3.776  10.580  16.760  0.00  0.00    +0.000 A 
ATOM     14  C   UNL     1      -2.644   9.898  16.309  0.00  0.00    +0.000 A 
ATOM     15  C   UNL     1      -1.489   9.882  17.080  0.00  0.00    +0.000 A 
ATOM     16  C   UNL     1      -1.431  10.675  18.233  0.00  0.00    +0.000 A 
ATOM     17  C   UNL     1      -2.626  11.162  18.781  0.00  0.00    +0.000 A 
BRANCH  12  19
ATOM     18  C   UNL     1      -4.849  12.740  19.755  0.00  0.00    +0.000 C 
ATOM     19  C   UNL     1      -5.070  11.868  18.541  0.00  0.00    +0.000 C 
ATOM     20  C   UNL     1      -6.262  11.810  17.745  0.00  0.00    +0.000 C 
ATOM     21  N   UNL     1      -6.245  11.032  18.732  0.00  0.00    +0.000 NA
ENDBRANCH  12  19
ENDBRANCH   1  16
BRANCH   9  22
ATOM     22  C   UNL     1      -0.019   9.291  22.479  0.00  0.00    +0.000 C 
ATOM     23  F   UNL     1       1.230   8.845  22.177  0.00  0.00    +0.000 F 
ATOM     24  F   UNL     1      -0.171   9.082  23.811  0.00  0.00    +0.000 F 
ATOM     25  F   UNL     1      -0.886   8.446  21.857  0.00  0.00    +0.000 F 
ENDBRANCH   9  22
TORSDOF 3
ENDMDL
MODEL 9
REMARK VINA RESULT:      -7.1      4.940      7.545
REMARK  Name = 
REMARK  4 active torsions:
REMARK  status: ('A' for Active; 'I' for Inactive)
REMARK    1  A    between atoms: C_1  and  C_2
REMARK    2  A    between atoms: C_2  and  C_3
REMARK    3  A    between atoms: C_7  and  N_8
REMARK    4  A    between atoms: C_16  and  C_17
REMARK                            x       y       z     vdW  Elec       q    Type
REMARK                         _______ _______ _______ _____ _____    ______ ____
ROOT
ATOM      1  N   UNL     1      -1.392  12.480  18.877  0.00  0.00    +0.000 N 
ATOM      2  C   UNL     1      -0.032  11.987  18.541  0.00  0.00    +0.000 C 
ATOM      3  C   UNL     1       0.276  11.097  19.710  0.00  0.00    +0.000 A 
ATOM      4  C   UNL     1      -0.453  11.586  20.802  0.00  0.00    +0.000 A 
ATOM      5  C   UNL     1      -0.533  10.928  22.015  0.00  0.00    +0.000 A 
ATOM      6  C   UNL     1       0.131   9.714  22.103  0.00  0.00    +0.000 A 
ATOM      7  F   UNL     1       0.011   8.982  23.216  0.00  0.00    +0.000 F 
ATOM      8  C   UNL     1       0.849   9.188  21.015  0.00  0.00    +0.000 A 
ATOM      9  C   UNL     1       0.940   9.873  19.788  0.00  0.00    +0.000 A 
ATOM     10  C   UNL     1      -1.410  12.597  20.295  0.00  0.00    +0.000 C 
ATOM     11  O   UNL     1      -2.185  13.213  20.998  0.00  0.00    +0.000 OA
ENDROOT
BRANCH   1  16
ATOM     12  C   UNL     1      -4.774  11.674  17.716  0.00  0.00    +0.000 A 
ATOM     13  C   UNL     1      -4.413  11.231  16.432  0.00  0.00    +0.000 A 
ATOM     14  C   UNL     1      -3.115  10.800  16.151  0.00  0.00    +0.000 A 
ATOM     15  C   UNL     1      -2.120  10.915  17.113  0.00  0.00    +0.000 A 
ATOM     16  C   UNL     1      -2.402  11.598  18.303  0.00  0.00    +0.000 A 
ATOM     17  C   UNL     1      -3.741  11.817  18.657  0.00  0.00    +0.000 A 
BRANCH  12  19
ATOM     18  C   UNL     1      -7.095  10.995  18.526  0.00  0.00    +0.000 C 
ATOM     19  C   UNL     1      -6.200  12.106  18.027  0.00  0.00    +0.000 C 
ATOM     20  C   UNL     1      -6.517  13.505  18.010  0.00  0.00    +0.000 C 
ATOM     21  N   UNL     1      -6.877  12.868  16.989  0.00  0.00    +0.000 NA
ENDBRANCH  12  19
ENDBRANCH   1  16
BRANCH   9  22
ATOM     22  C   UNL     1       1.605   9.193  18.614  0.00  0.00    +0.000 C 
ATOM     23  F   UNL     1       2.580   9.935  18.021  0.00  0.00    +0.000 F 
ATOM     24  F   UNL     1       2.200   8.028  18.975  0.00  0.00    +0.000 F 
ATOM     25  F   UNL     1       0.715   8.881  17.632  0.00  0.00    +0.000 F 
ENDBRANCH   9  22
TORSDOF 3
ENDMDL
