MODEL 1
REMARK VINA RESULT:      -9.0      0.000      0.000
REMARK  Name = 
REMARK  5 active torsions:
REMARK  status: ('A' for Active; 'I' for Inactive)
REMARK    1  A    between atoms: C_4  and  C_5
REMARK    2  A    between atoms: C_4  and  C_12
REMARK    3  A    between atoms: C_5  and  C_6
REMARK    4  A    between atoms: N_20  and  C_21
REMARK    5  A    between atoms: C_21  and  C_22
REMARK                            x       y       z     vdW  Elec       q    Type
REMARK                         _______ _______ _______ _____ _____    ______ ____
ROOT
ATOM      1  O   UNL     1       6.943   5.368  19.976  0.00  0.00    +0.000 OA
ATOM      2  C   UNL     1       6.191   5.577  19.040  0.00  0.00    +0.000 C 
ATOM      3  N   UNL     1       4.835   5.409  19.127  0.00  0.00    +0.000 N 
ATOM      4  C   UNL     1       4.116   5.917  17.967  0.00  0.00    +0.000 C 
ATOM      5  C   UNL     1       5.344   6.451  17.174  0.00  0.00    +0.000 C 
ATOM      6  O   UNL     1       5.290   7.098  16.135  0.00  0.00    +0.000 OA
ATOM      7  N   UNL     1       6.496   6.107  17.831  0.00  0.00    +0.000 N 
ATOM      8  H   UNL     1       4.389   5.161  20.001  0.00  0.00    +0.000 HD
ENDROOT
BRANCH   4   9
ATOM      9  C   UNL     1       3.157   7.053  18.357  0.00  0.00    +0.000 A 
ATOM     10  C   UNL     1       2.828   8.082  17.449  0.00  0.00    +0.000 A 
ATOM     11  C   UNL     1       1.967   9.125  17.808  0.00  0.00    +0.000 A 
ATOM     12  C   UNL     1       1.407   9.167  19.080  0.00  0.00    +0.000 A 
ATOM     13  C   UNL     1       1.699   8.157  19.988  0.00  0.00    +0.000 A 
ATOM     14  C   UNL     1       2.549   7.106  19.623  0.00  0.00    +0.000 A 
ENDBRANCH   4   9
BRANCH   4  15
ATOM     15  C   UNL     1       3.513   4.744  17.138  0.00  0.00    +0.000 C 
BRANCH  15  16
ATOM     16  C   UNL     1       2.742   3.702  17.929  0.00  0.00    +0.000 A 
ATOM     17  C   UNL     1       1.413   3.933  18.314  0.00  0.00    +0.000 A 
ATOM     18  C   UNL     1       0.718   2.993  19.078  0.00  0.00    +0.000 A 
ATOM     19  C   UNL     1       1.340   1.805  19.458  0.00  0.00    +0.000 A 
ATOM     20  C   UNL     1       2.645   1.547  19.054  0.00  0.00    +0.000 A 
ATOM     21  C   UNL     1       3.335   2.481  18.280  0.00  0.00    +0.000 A 
ENDBRANCH  15  16
ENDBRANCH   4  15
BRANCH   7  22
ATOM     22  C   UNL     1       7.798   6.654  17.526  0.00  0.00    +0.000 C 
BRANCH  22  23
ATOM     23  C   UNL     1       7.984   8.105  17.831  0.00  0.00    +0.000 A 
ATOM     24  N   UNL     1       7.618   9.212  17.202  0.00  0.00    +0.000 NA
ATOM     25  C   UNL     1       8.230  10.223  17.934  0.00  0.00    +0.000 A 
ATOM     26  C   UNL     1       8.270  11.615  17.764  0.00  0.00    +0.000 A 
ATOM     27  C   UNL     1       9.047  12.374  18.661  0.00  0.00    +0.000 A 
ATOM     28  C   UNL     1       9.744  11.769  19.714  0.00  0.00    +0.000 A 
ATOM     29  C   UNL     1       9.684  10.386  19.915  0.00  0.00    +0.000 A 
ATOM     30  C   UNL     1       8.926   9.671  18.994  0.00  0.00    +0.000 A 
ATOM     31  O   UNL     1       8.757   8.323  18.949  0.00  0.00    +0.000 OA
ENDBRANCH  22  23
ENDBRANCH   7  22
TORSDOF 5
ENDMDL
MODEL 2
REMARK VINA RESULT:      -8.9      0.044      1.242
REMARK  Name = 
REMARK  5 active torsions:
REMARK  status: ('A' for Active; 'I' for Inactive)
REMARK    1  A    between atoms: C_4  and  C_5
REMARK    2  A    between atoms: C_4  and  C_12
REMARK    3  A    between atoms: C_5  and  C_6
REMARK    4  A    between atoms: N_20  and  C_21
REMARK    5  A    between atoms: C_21  and  C_22
REMARK                            x       y       z     vdW  Elec       q    Type
REMARK                         _______ _______ _______ _____ _____    ______ ____
ROOT
ATOM      1  O   UNL     1       6.940   5.366  19.977  0.00  0.00    +0.000 OA
ATOM      2  C   UNL     1       6.186   5.576  19.042  0.00  0.00    +0.000 C 
ATOM      3  N   UNL     1       4.830   5.412  19.131  0.00  0.00    +0.000 N 
ATOM      4  C   UNL     1       4.111   5.921  17.971  0.00  0.00    +0.000 C 
ATOM      5  C   UNL     1       5.340   6.450  17.176  0.00  0.00    +0.000 C 
ATOM      6  O   UNL     1       5.286   7.096  16.136  0.00  0.00    +0.000 OA
ATOM      7  N   UNL     1       6.492   6.104  17.831  0.00  0.00    +0.000 N 
ATOM      8  H   UNL     1       4.385   5.167  20.006  0.00  0.00    +0.000 HD
ENDROOT
BRANCH   4   9
ATOM      9  C   UNL     1       3.156   7.060  18.361  0.00  0.00    +0.000 A 
ATOM     10  C   UNL     1       2.550   7.109  19.635  0.00  0.00    +0.000 A 
ATOM     11  C   UNL     1       1.668   8.137  19.985  0.00  0.00    +0.000 A 
ATOM     12  C   UNL     1       1.370   9.146  19.077  0.00  0.00    +0.000 A 
ATOM     13  C   UNL     1       1.966   9.133  17.822  0.00  0.00    +0.000 A 
ATOM     14  C   UNL     1       2.860   8.113  17.477  0.00  0.00    +0.000 A 
ENDBRANCH   4   9
BRANCH   4  15
ATOM     15  C   UNL     1       3.504   4.748  17.145  0.00  0.00    +0.000 C 
BRANCH  15  16
ATOM     16  C   UNL     1       2.728   3.711  17.938  0.00  0.00    +0.000 A 
ATOM     17  C   UNL     1       3.343   2.521  18.355  0.00  0.00    +0.000 A 
ATOM     18  C   UNL     1       2.618   1.549  19.048  0.00  0.00    +0.000 A 
ATOM     19  C   UNL     1       1.272   1.757  19.340  0.00  0.00    +0.000 A 
ATOM     20  C   UNL     1       0.659   2.948  18.963  0.00  0.00    +0.000 A 
ATOM     21  C   UNL     1       1.386   3.924  18.283  0.00  0.00    +0.000 A 
ENDBRANCH  15  16
ENDBRANCH   4  15
BRANCH   7  22
ATOM     22  C   UNL     1       7.795   6.647  17.524  0.00  0.00    +0.000 C 
BRANCH  22  23
ATOM     23  C   UNL     1       7.986   8.097  17.830  0.00  0.00    +0.000 A 
ATOM     24  N   UNL     1       7.627   9.206  17.200  0.00  0.00    +0.000 NA
ATOM     25  C   UNL     1       8.241  10.214  17.934  0.00  0.00    +0.000 A 
ATOM     26  C   UNL     1       8.288  11.605  17.765  0.00  0.00    +0.000 A 
ATOM     27  C   UNL     1       9.065  12.361  18.664  0.00  0.00    +0.000 A 
ATOM     28  C   UNL     1       9.757  11.752  19.719  0.00  0.00    +0.000 A 
ATOM     29  C   UNL     1       9.691  10.369  19.919  0.00  0.00    +0.000 A 
ATOM     30  C   UNL     1       8.932   9.658  18.996  0.00  0.00    +0.000 A 
ATOM     31  O   UNL     1       8.757   8.311  18.950  0.00  0.00    +0.000 OA
ENDBRANCH  22  23
ENDBRANCH   7  22
TORSDOF 5
ENDMDL
MODEL 3
REMARK VINA RESULT:      -8.8      2.940      4.707
REMARK  Name = 
REMARK  5 active torsions:
REMARK  status: ('A' for Active; 'I' for Inactive)
REMARK    1  A    between atoms: C_4  and  C_5
REMARK    2  A    between atoms: C_4  and  C_12
REMARK    3  A    between atoms: C_5  and  C_6
REMARK    4  A    between atoms: N_20  and  C_21
REMARK    5  A    between atoms: C_21  and  C_22
REMARK                            x       y       z     vdW  Elec       q    Type
REMARK                         _______ _______ _______ _____ _____    ______ ____
ROOT
ATOM      1  O   UNL     1       5.647   5.328  19.866  0.00  0.00    +0.000 OA
ATOM      2  C   UNL     1       4.772   5.742  19.126  0.00  0.00    +0.000 C 
ATOM      3  N   UNL     1       3.463   5.850  19.514  0.00  0.00    +0.000 N 
ATOM      4  C   UNL     1       2.635   6.563  18.551  0.00  0.00    +0.000 C 
ATOM      5  C   UNL     1       3.746   6.880  17.508  0.00  0.00    +0.000 C 
ATOM      6  O   UNL     1       3.606   7.585  16.516  0.00  0.00    +0.000 OA
ATOM      7  N   UNL     1       4.913   6.269  17.885  0.00  0.00    +0.000 N 
ATOM      8  H   UNL     1       3.176   5.648  20.463  0.00  0.00    +0.000 HD
ENDROOT
BRANCH   4   9
ATOM      9  C   UNL     1       2.048   7.847  19.160  0.00  0.00    +0.000 A 
ATOM     10  C   UNL     1       1.722   7.928  20.531  0.00  0.00    +0.000 A 
ATOM     11  C   UNL     1       1.173   9.090  21.082  0.00  0.00    +0.000 A 
ATOM     12  C   UNL     1       0.939  10.204  20.285  0.00  0.00    +0.000 A 
ATOM     13  C   UNL     1       1.268  10.158  18.936  0.00  0.00    +0.000 A 
ATOM     14  C   UNL     1       1.830   9.000  18.387  0.00  0.00    +0.000 A 
ENDBRANCH   4   9
BRANCH   4  15
ATOM     15  C   UNL     1       1.631   5.589  17.865  0.00  0.00    +0.000 C 
BRANCH  15  16
ATOM     16  C   UNL     1       1.766   4.124  18.242  0.00  0.00    +0.000 A 
ATOM     17  C   UNL     1       1.114   3.612  19.374  0.00  0.00    +0.000 A 
ATOM     18  C   UNL     1       1.272   2.275  19.744  0.00  0.00    +0.000 A 
ATOM     19  C   UNL     1       2.077   1.430  18.983  0.00  0.00    +0.000 A 
ATOM     20  C   UNL     1       2.701   1.916  17.838  0.00  0.00    +0.000 A 
ATOM     21  C   UNL     1       2.532   3.248  17.461  0.00  0.00    +0.000 A 
ENDBRANCH  15  16
ENDBRANCH   4  15
BRANCH   7  22
ATOM     22  C   UNL     1       6.204   6.554  17.302  0.00  0.00    +0.000 C 
BRANCH  22  23
ATOM     23  C   UNL     1       6.524   5.823  16.038  0.00  0.00    +0.000 A 
ATOM     24  N   UNL     1       7.552   5.873  15.204  0.00  0.00    +0.000 NA
ATOM     25  C   UNL     1       7.163   5.051  14.153  0.00  0.00    +0.000 A 
ATOM     26  C   UNL     1       7.783   4.718  12.940  0.00  0.00    +0.000 A 
ATOM     27  C   UNL     1       7.085   3.890  12.039  0.00  0.00    +0.000 A 
ATOM     28  C   UNL     1       5.815   3.387  12.346  0.00  0.00    +0.000 A 
ATOM     29  C   UNL     1       5.200   3.684  13.568  0.00  0.00    +0.000 A 
ATOM     30  C   UNL     1       5.912   4.523  14.417  0.00  0.00    +0.000 A 
ATOM     31  O   UNL     1       5.507   4.992  15.627  0.00  0.00    +0.000 OA
ENDBRANCH  22  23
ENDBRANCH   7  22
TORSDOF 5
ENDMDL
MODEL 4
REMARK VINA RESULT:      -8.5      2.950      4.657
REMARK  Name = 
REMARK  5 active torsions:
REMARK  status: ('A' for Active; 'I' for Inactive)
REMARK    1  A    between atoms: C_4  and  C_5
REMARK    2  A    between atoms: C_4  and  C_12
REMARK    3  A    between atoms: C_5  and  C_6
REMARK    4  A    between atoms: N_20  and  C_21
REMARK    5  A    between atoms: C_21  and  C_22
REMARK                            x       y       z     vdW  Elec       q    Type
REMARK                         _______ _______ _______ _____ _____    ______ ____
ROOT
ATOM      1  O   UNL     1       5.854   5.344  19.963  0.00  0.00    +0.000 OA
ATOM      2  C   UNL     1       5.008   5.674  19.151  0.00  0.00    +0.000 C 
ATOM      3  N   UNL     1       3.686   5.822  19.476  0.00  0.00    +0.000 N 
ATOM      4  C   UNL     1       2.896   6.425  18.412  0.00  0.00    +0.000 C 
ATOM      5  C   UNL     1       4.045   6.630  17.384  0.00  0.00    +0.000 C 
ATOM      6  O   UNL     1       3.944   7.223  16.316  0.00  0.00    +0.000 OA
ATOM      7  N   UNL     1       5.196   6.065  17.867  0.00  0.00    +0.000 N 
ATOM      8  H   UNL     1       3.363   5.723  20.431  0.00  0.00    +0.000 HD
ENDROOT
BRANCH   4   9
ATOM      9  C   UNL     1       2.290   7.766  18.858  0.00  0.00    +0.000 A 
ATOM     10  C   UNL     1       2.203   8.864  17.974  0.00  0.00    +0.000 A 
ATOM     11  C   UNL     1       1.666  10.089  18.383  0.00  0.00    +0.000 A 
ATOM     12  C   UNL     1       1.197  10.252  19.682  0.00  0.00    +0.000 A 
ATOM     13  C   UNL     1       1.253   9.183  20.567  0.00  0.00    +0.000 A 
ATOM     14  C   UNL     1       1.776   7.953  20.153  0.00  0.00    +0.000 A 
ENDBRANCH   4   9
BRANCH   4  15
ATOM     15  C   UNL     1       1.914   5.382  17.799  0.00  0.00    +0.000 C 
BRANCH  15  16
ATOM     16  C   UNL     1       1.784   4.071  18.555  0.00  0.00    +0.000 A 
ATOM     17  C   UNL     1       2.254   2.872  17.997  0.00  0.00    +0.000 A 
ATOM     18  C   UNL     1       2.095   1.661  18.674  0.00  0.00    +0.000 A 
ATOM     19  C   UNL     1       1.475   1.634  19.921  0.00  0.00    +0.000 A 
ATOM     20  C   UNL     1       1.036   2.819  20.502  0.00  0.00    +0.000 A 
ATOM     21  C   UNL     1       1.205   4.031  19.831  0.00  0.00    +0.000 A 
ENDBRANCH  15  16
ENDBRANCH   4  15
BRANCH   7  22
ATOM     22  C   UNL     1       6.508   6.287  17.304  0.00  0.00    +0.000 C 
BRANCH  22  23
ATOM     23  C   UNL     1       6.763   5.651  15.975  0.00  0.00    +0.000 A 
ATOM     24  N   UNL     1       7.680   5.855  15.041  0.00  0.00    +0.000 NA
ATOM     25  C   UNL     1       7.269   5.039  13.994  0.00  0.00    +0.000 A 
ATOM     26  C   UNL     1       7.784   4.830  12.706  0.00  0.00    +0.000 A 
ATOM     27  C   UNL     1       7.085   3.967  11.840  0.00  0.00    +0.000 A 
ATOM     28  C   UNL     1       5.919   3.308  12.252  0.00  0.00    +0.000 A 
ATOM     29  C   UNL     1       5.415   3.481  13.546  0.00  0.00    +0.000 A 
ATOM     30  C   UNL     1       6.122   4.359  14.360  0.00  0.00    +0.000 A 
ATOM     31  O   UNL     1       5.804   4.727  15.629  0.00  0.00    +0.000 OA
ENDBRANCH  22  23
ENDBRANCH   7  22
TORSDOF 5
ENDMDL
MODEL 5
REMARK VINA RESULT:      -8.3      3.121      6.122
REMARK  Name = 
REMARK  5 active torsions:
REMARK  status: ('A' for Active; 'I' for Inactive)
REMARK    1  A    between atoms: C_4  and  C_5
REMARK    2  A    between atoms: C_4  and  C_12
REMARK    3  A    between atoms: C_5  and  C_6
REMARK    4  A    between atoms: N_20  and  C_21
REMARK    5  A    between atoms: C_21  and  C_22
REMARK                            x       y       z     vdW  Elec       q    Type
REMARK                         _______ _______ _______ _____ _____    ______ ____
ROOT
ATOM      1  O   UNL     1       4.716   6.989  15.877  0.00  0.00    +0.000 OA
ATOM      2  C   UNL     1       4.566   6.575  17.014  0.00  0.00    +0.000 C 
ATOM      3  N   UNL     1       3.338   6.475  17.610  0.00  0.00    +0.000 N 
ATOM      4  C   UNL     1       3.371   5.761  18.879  0.00  0.00    +0.000 C 
ATOM      5  C   UNL     1       4.893   5.434  18.899  0.00  0.00    +0.000 C 
ATOM      6  O   UNL     1       5.454   4.725  19.725  0.00  0.00    +0.000 OA
ATOM      7  N   UNL     1       5.504   6.042  17.834  0.00  0.00    +0.000 N 
ATOM      8  H   UNL     1       2.487   6.683  17.103  0.00  0.00    +0.000 HD
ENDROOT
BRANCH   4   9
ATOM      9  C   UNL     1       2.519   4.483  18.824  0.00  0.00    +0.000 A 
ATOM     10  C   UNL     1       2.782   3.462  17.886  0.00  0.00    +0.000 A 
ATOM     11  C   UNL     1       1.998   2.306  17.826  0.00  0.00    +0.000 A 
ATOM     12  C   UNL     1       0.932   2.133  18.701  0.00  0.00    +0.000 A 
ATOM     13  C   UNL     1       0.661   3.114  19.647  0.00  0.00    +0.000 A 
ATOM     14  C   UNL     1       1.455   4.264  19.718  0.00  0.00    +0.000 A 
ENDBRANCH   4   9
BRANCH   4  15
ATOM     15  C   UNL     1       3.099   6.735  20.064  0.00  0.00    +0.000 C 
BRANCH  15  16
ATOM     16  C   UNL     1       2.085   7.835  19.797  0.00  0.00    +0.000 A 
ATOM     17  C   UNL     1       1.996   8.436  18.533  0.00  0.00    +0.000 A 
ATOM     18  C   UNL     1       1.094   9.476  18.300  0.00  0.00    +0.000 A 
ATOM     19  C   UNL     1       0.262   9.921  19.325  0.00  0.00    +0.000 A 
ATOM     20  C   UNL     1       0.315   9.311  20.573  0.00  0.00    +0.000 A 
ATOM     21  C   UNL     1       1.208   8.263  20.803  0.00  0.00    +0.000 A 
ENDBRANCH  15  16
ENDBRANCH   4  15
BRANCH   7  22
ATOM     22  C   UNL     1       6.848   5.748  17.394  0.00  0.00    +0.000 C 
BRANCH  22  23
ATOM     23  C   UNL     1       6.983   5.263  15.986  0.00  0.00    +0.000 A 
ATOM     24  N   UNL     1       7.758   5.632  14.977  0.00  0.00    +0.000 NA
ATOM     25  C   UNL     1       7.281   4.884  13.907  0.00  0.00    +0.000 A 
ATOM     26  C   UNL     1       7.645   4.842  12.553  0.00  0.00    +0.000 A 
ATOM     27  C   UNL     1       6.910   4.004  11.692  0.00  0.00    +0.000 A 
ATOM     28  C   UNL     1       5.859   3.211  12.167  0.00  0.00    +0.000 A 
ATOM     29  C   UNL     1       5.509   3.217  13.522  0.00  0.00    +0.000 A 
ATOM     30  C   UNL     1       6.244   4.076  14.334  0.00  0.00    +0.000 A 
ATOM     31  O   UNL     1       6.061   4.295  15.663  0.00  0.00    +0.000 OA
ENDBRANCH  22  23
ENDBRANCH   7  22
TORSDOF 5
ENDMDL
MODEL 6
REMARK VINA RESULT:      -8.3      3.097      6.121
REMARK  Name = 
REMARK  5 active torsions:
REMARK  status: ('A' for Active; 'I' for Inactive)
REMARK    1  A    between atoms: C_4  and  C_5
REMARK    2  A    between atoms: C_4  and  C_12
REMARK    3  A    between atoms: C_5  and  C_6
REMARK    4  A    between atoms: N_20  and  C_21
REMARK    5  A    between atoms: C_21  and  C_22
REMARK                            x       y       z     vdW  Elec       q    Type
REMARK                         _______ _______ _______ _____ _____    ______ ____
ROOT
ATOM      1  O   UNL     1       4.643   7.014  15.909  0.00  0.00    +0.000 OA
ATOM      2  C   UNL     1       4.474   6.619  17.049  0.00  0.00    +0.000 C 
ATOM      3  N   UNL     1       3.235   6.508  17.620  0.00  0.00    +0.000 N 
ATOM      4  C   UNL     1       3.252   5.819  18.903  0.00  0.00    +0.000 C 
ATOM      5  C   UNL     1       4.778   5.518  18.963  0.00  0.00    +0.000 C 
ATOM      6  O   UNL     1       5.332   4.834  19.815  0.00  0.00    +0.000 OA
ATOM      7  N   UNL     1       5.402   6.117  17.900  0.00  0.00    +0.000 N 
ATOM      8  H   UNL     1       2.392   6.692  17.091  0.00  0.00    +0.000 HD
ENDROOT
BRANCH   4   9
ATOM      9  C   UNL     1       2.422   4.526  18.854  0.00  0.00    +0.000 A 
ATOM     10  C   UNL     1       1.366   4.294  19.761  0.00  0.00    +0.000 A 
ATOM     11  C   UNL     1       0.621   3.111  19.727  0.00  0.00    +0.000 A 
ATOM     12  C   UNL     1       0.904   2.129  18.785  0.00  0.00    +0.000 A 
ATOM     13  C   UNL     1       1.926   2.338  17.868  0.00  0.00    +0.000 A 
ATOM     14  C   UNL     1       2.662   3.528  17.892  0.00  0.00    +0.000 A 
ENDBRANCH   4   9
BRANCH   4  15
ATOM     15  C   UNL     1       2.936   6.810  20.063  0.00  0.00    +0.000 C 
BRANCH  15  16
ATOM     16  C   UNL     1       1.990   7.948  19.722  0.00  0.00    +0.000 A 
ATOM     17  C   UNL     1       1.101   8.453  20.684  0.00  0.00    +0.000 A 
ATOM     18  C   UNL     1       0.202   9.470  20.359  0.00  0.00    +0.000 A 
ATOM     19  C   UNL     1       0.184  10.002  19.071  0.00  0.00    +0.000 A 
ATOM     20  C   UNL     1       1.083   9.535  18.118  0.00  0.00    +0.000 A 
ATOM     21  C   UNL     1       1.991   8.528  18.446  0.00  0.00    +0.000 A 
ENDBRANCH  15  16
ENDBRANCH   4  15
BRANCH   7  22
ATOM     22  C   UNL     1       6.761   5.838  17.496  0.00  0.00    +0.000 C 
BRANCH  22  23
ATOM     23  C   UNL     1       6.938   5.357  16.092  0.00  0.00    +0.000 A 
ATOM     24  N   UNL     1       7.722   5.747  15.098  0.00  0.00    +0.000 NA
ATOM     25  C   UNL     1       7.289   4.985  14.020  0.00  0.00    +0.000 A 
ATOM     26  C   UNL     1       7.681   4.952  12.674  0.00  0.00    +0.000 A 
ATOM     27  C   UNL     1       6.988   4.094  11.798  0.00  0.00    +0.000 A 
ATOM     28  C   UNL     1       5.950   3.271  12.253  0.00  0.00    +0.000 A 
ATOM     29  C   UNL     1       5.573   3.269  13.600  0.00  0.00    +0.000 A 
ATOM     30  C   UNL     1       6.266   4.148  14.426  0.00  0.00    +0.000 A 
ATOM     31  O   UNL     1       6.050   4.363  15.750  0.00  0.00    +0.000 OA
ENDBRANCH  22  23
ENDBRANCH   7  22
TORSDOF 5
ENDMDL
MODEL 7
REMARK VINA RESULT:      -8.0      0.937      1.562
REMARK  Name = 
REMARK  5 active torsions:
REMARK  status: ('A' for Active; 'I' for Inactive)
REMARK    1  A    between atoms: C_4  and  C_5
REMARK    2  A    between atoms: C_4  and  C_12
REMARK    3  A    between atoms: C_5  and  C_6
REMARK    4  A    between atoms: N_20  and  C_21
REMARK    5  A    between atoms: C_21  and  C_22
REMARK                            x       y       z     vdW  Elec       q    Type
REMARK                         _______ _______ _______ _____ _____    ______ ____
ROOT
ATOM      1  O   UNL     1       6.539   5.413  19.842  0.00  0.00    +0.000 OA
ATOM      2  C   UNL     1       5.695   5.615  18.986  0.00  0.00    +0.000 C 
ATOM      3  N   UNL     1       4.354   5.643  19.258  0.00  0.00    +0.000 N 
ATOM      4  C   UNL     1       3.549   6.109  18.138  0.00  0.00    +0.000 C 
ATOM      5  C   UNL     1       4.711   6.379  17.139  0.00  0.00    +0.000 C 
ATOM      6  O   UNL     1       4.592   6.906  16.039  0.00  0.00    +0.000 OA
ATOM      7  N   UNL     1       5.893   5.959  17.690  0.00  0.00    +0.000 N 
ATOM      8  H   UNL     1       4.006   5.558  20.205  0.00  0.00    +0.000 HD
ENDROOT
BRANCH   4   9
ATOM      9  C   UNL     1       2.795   7.402  18.491  0.00  0.00    +0.000 A 
ATOM     10  C   UNL     1       2.198   7.583  19.757  0.00  0.00    +0.000 A 
ATOM     11  C   UNL     1       1.499   8.752  20.074  0.00  0.00    +0.000 A 
ATOM     12  C   UNL     1       1.379   9.775  19.140  0.00  0.00    +0.000 A 
ATOM     13  C   UNL     1       1.973   9.631  17.892  0.00  0.00    +0.000 A 
ATOM     14  C   UNL     1       2.685   8.467  17.581  0.00  0.00    +0.000 A 
ENDBRANCH   4   9
BRANCH   4  15
ATOM     15  C   UNL     1       2.702   4.943  17.548  0.00  0.00    +0.000 C 
BRANCH  15  16
ATOM     16  C   UNL     1       2.205   3.914  18.548  0.00  0.00    +0.000 A 
ATOM     17  C   UNL     1       1.318   4.279  19.572  0.00  0.00    +0.000 A 
ATOM     18  C   UNL     1       0.894   3.342  20.517  0.00  0.00    +0.000 A 
ATOM     19  C   UNL     1       1.344   2.025  20.445  0.00  0.00    +0.000 A 
ATOM     20  C   UNL     1       2.195   1.640  19.414  0.00  0.00    +0.000 A 
ATOM     21  C   UNL     1       2.608   2.574  18.463  0.00  0.00    +0.000 A 
ENDBRANCH  15  16
ENDBRANCH   4  15
BRANCH   7  22
ATOM     22  C   UNL     1       7.197   6.286  17.160  0.00  0.00    +0.000 C 
BRANCH  22  23
ATOM     23  C   UNL     1       7.840   7.512  17.722  0.00  0.00    +0.000 A 
ATOM     24  N   UNL     1       8.549   7.735  18.819  0.00  0.00    +0.000 NA
ATOM     25  C   UNL     1       8.719   9.114  18.826  0.00  0.00    +0.000 A 
ATOM     26  C   UNL     1       9.341   9.981  19.736  0.00  0.00    +0.000 A 
ATOM     27  C   UNL     1       9.286  11.366  19.483  0.00  0.00    +0.000 A 
ATOM     28  C   UNL     1       8.652  11.873  18.342  0.00  0.00    +0.000 A 
ATOM     29  C   UNL     1       8.059  11.017  17.408  0.00  0.00    +0.000 A 
ATOM     30  C   UNL     1       8.115   9.660  17.708  0.00  0.00    +0.000 A 
ATOM     31  O   UNL     1       7.570   8.644  16.988  0.00  0.00    +0.000 OA
ENDBRANCH  22  23
ENDBRANCH   7  22
TORSDOF 5
ENDMDL
MODEL 8
REMARK VINA RESULT:      -8.0      2.530      4.268
REMARK  Name = 
REMARK  5 active torsions:
REMARK  status: ('A' for Active; 'I' for Inactive)
REMARK    1  A    between atoms: C_4  and  C_5
REMARK    2  A    between atoms: C_4  and  C_12
REMARK    3  A    between atoms: C_5  and  C_6
REMARK    4  A    between atoms: N_20  and  C_21
REMARK    5  A    between atoms: C_21  and  C_22
REMARK                            x       y       z     vdW  Elec       q    Type
REMARK                         _______ _______ _______ _____ _____    ______ ____
ROOT
ATOM      1  O   UNL     1       8.528   3.964  17.613  0.00  0.00    +0.000 OA
ATOM      2  C   UNL     1       7.539   4.616  17.327  0.00  0.00    +0.000 C 
ATOM      3  N   UNL     1       6.505   4.108  16.587  0.00  0.00    +0.000 N 
ATOM      4  C   UNL     1       5.342   4.983  16.547  0.00  0.00    +0.000 C 
ATOM      5  C   UNL     1       5.901   6.120  17.450  0.00  0.00    +0.000 C 
ATOM      6  O   UNL     1       5.263   7.089  17.846  0.00  0.00    +0.000 OA
ATOM      7  N   UNL     1       7.211   5.859  17.755  0.00  0.00    +0.000 N 
ATOM      8  H   UNL     1       6.490   3.138  16.298  0.00  0.00    +0.000 HD
ENDROOT
BRANCH   4   9
ATOM      9  C   UNL     1       4.113   4.310  17.181  0.00  0.00    +0.000 A 
ATOM     10  C   UNL     1       3.016   5.067  17.643  0.00  0.00    +0.000 A 
ATOM     11  C   UNL     1       1.905   4.457  18.234  0.00  0.00    +0.000 A 
ATOM     12  C   UNL     1       1.855   3.075  18.376  0.00  0.00    +0.000 A 
ATOM     13  C   UNL     1       2.913   2.303  17.912  0.00  0.00    +0.000 A 
ATOM     14  C   UNL     1       4.018   2.913  17.308  0.00  0.00    +0.000 A 
ENDBRANCH   4   9
BRANCH   4  15
ATOM     15  C   UNL     1       5.155   5.582  15.121  0.00  0.00    +0.000 C 
BRANCH  15  16
ATOM     16  C   UNL     1       5.796   4.802  13.986  0.00  0.00    +0.000 A 
ATOM     17  C   UNL     1       7.090   5.115  13.543  0.00  0.00    +0.000 A 
ATOM     18  C   UNL     1       7.662   4.426  12.472  0.00  0.00    +0.000 A 
ATOM     19  C   UNL     1       6.953   3.410  11.835  0.00  0.00    +0.000 A 
ATOM     20  C   UNL     1       5.683   3.066  12.287  0.00  0.00    +0.000 A 
ATOM     21  C   UNL     1       5.116   3.745  13.365  0.00  0.00    +0.000 A 
ENDBRANCH  15  16
ENDBRANCH   4  15
BRANCH   7  22
ATOM     22  C   UNL     1       7.962   6.557  18.773  0.00  0.00    +0.000 C 
BRANCH  22  23
ATOM     23  C   UNL     1       8.140   8.026  18.560  0.00  0.00    +0.000 A 
ATOM     24  N   UNL     1       7.698   8.861  17.631  0.00  0.00    +0.000 NA
ATOM     25  C   UNL     1       8.345  10.055  17.929  0.00  0.00    +0.000 A 
ATOM     26  C   UNL     1       8.340  11.309  17.302  0.00  0.00    +0.000 A 
ATOM     27  C   UNL     1       9.171  12.319  17.825  0.00  0.00    +0.000 A 
ATOM     28  C   UNL     1       9.967  12.096  18.955  0.00  0.00    +0.000 A 
ATOM     29  C   UNL     1       9.954  10.860  19.611  0.00  0.00    +0.000 A 
ATOM     30  C   UNL     1       9.139   9.884  19.049  0.00  0.00    +0.000 A 
ATOM     31  O   UNL     1       8.997   8.599  19.470  0.00  0.00    +0.000 OA
ENDBRANCH  22  23
ENDBRANCH   7  22
TORSDOF 5
ENDMDL
MODEL 9
REMARK VINA RESULT:      -7.8      3.688      6.904
REMARK  Name = 
REMARK  5 active torsions:
REMARK  status: ('A' for Active; 'I' for Inactive)
REMARK    1  A    between atoms: C_4  and  C_5
REMARK    2  A    between atoms: C_4  and  C_12
REMARK    3  A    between atoms: C_5  and  C_6
REMARK    4  A    between atoms: N_20  and  C_21
REMARK    5  A    between atoms: C_21  and  C_22
REMARK                            x       y       z     vdW  Elec       q    Type
REMARK                         _______ _______ _______ _____ _____    ______ ____
ROOT
ATOM      1  O   UNL     1       2.045  10.202  17.550  0.00  0.00    +0.000 OA
ATOM      2  C   UNL     1       2.037   9.078  18.023  0.00  0.00    +0.000 C 
ATOM      3  N   UNL     1       2.476   7.980  17.333  0.00  0.00    +0.000 N 
ATOM      4  C   UNL     1       2.576   6.784  18.158  0.00  0.00    +0.000 C 
ATOM      5  C   UNL     1       2.121   7.417  19.505  0.00  0.00    +0.000 C 
ATOM      6  O   UNL     1       2.130   6.852  20.592  0.00  0.00    +0.000 OA
ATOM      7  N   UNL     1       1.731   8.713  19.292  0.00  0.00    +0.000 N 
ATOM      8  H   UNL     1       2.891   8.066  16.413  0.00  0.00    +0.000 HD
ENDROOT
BRANCH   4   9
ATOM      9  C   UNL     1       4.025   6.276  18.232  0.00  0.00    +0.000 A 
ATOM     10  C   UNL     1       4.938   6.499  17.180  0.00  0.00    +0.000 A 
ATOM     11  C   UNL     1       6.252   6.023  17.240  0.00  0.00    +0.000 A 
ATOM     12  C   UNL     1       6.693   5.316  18.353  0.00  0.00    +0.000 A 
ATOM     13  C   UNL     1       5.821   5.098  19.412  0.00  0.00    +0.000 A 
ATOM     14  C   UNL     1       4.511   5.587  19.358  0.00  0.00    +0.000 A 
ENDBRANCH   4   9
BRANCH   4  15
ATOM     15  C   UNL     1       1.489   5.745  17.751  0.00  0.00    +0.000 C 
BRANCH  15  16
ATOM     16  C   UNL     1       1.755   4.310  18.168  0.00  0.00    +0.000 A 
ATOM     17  C   UNL     1       1.271   3.816  19.389  0.00  0.00    +0.000 A 
ATOM     18  C   UNL     1       1.552   2.509  19.791  0.00  0.00    +0.000 A 
ATOM     19  C   UNL     1       2.313   1.675  18.975  0.00  0.00    +0.000 A 
ATOM     20  C   UNL     1       2.771   2.140  17.747  0.00  0.00    +0.000 A 
ATOM     21  C   UNL     1       2.479   3.442  17.338  0.00  0.00    +0.000 A 
ENDBRANCH  15  16
ENDBRANCH   4  15
BRANCH   7  22
ATOM     22  C   UNL     1       1.499   9.674  20.345  0.00  0.00    +0.000 C 
BRANCH  22  23
ATOM     23  C   UNL     1       0.177  10.372  20.311  0.00  0.00    +0.000 A 
ATOM     24  N   UNL     1      -0.646  10.694  19.323  0.00  0.00    +0.000 NA
ATOM     25  C   UNL     1      -1.623  11.459  19.948  0.00  0.00    +0.000 A 
ATOM     26  C   UNL     1      -2.750  12.132  19.453  0.00  0.00    +0.000 A 
ATOM     27  C   UNL     1      -3.524  12.889  20.354  0.00  0.00    +0.000 A 
ATOM     28  C   UNL     1      -3.202  12.955  21.715  0.00  0.00    +0.000 A 
ATOM     29  C   UNL     1      -2.101  12.260  22.228  0.00  0.00    +0.000 A 
ATOM     30  C   UNL     1      -1.350  11.545  21.301  0.00  0.00    +0.000 A 
ATOM     31  O   UNL     1      -0.216  10.837  21.544  0.00  0.00    +0.000 OA
ENDBRANCH  22  23
ENDBRANCH   7  22
TORSDOF 5
ENDMDL
