MODEL 1
REMARK VINA RESULT:      -8.3      0.000      0.000
REMARK  Name = 
REMARK  7 active torsions:
REMARK  status: ('A' for Active; 'I' for Inactive)
REMARK    1  A    between atoms: C_1  and  C_2
REMARK    2  A    between atoms: C_3  and  C_4
REMARK    3  A    between atoms: N_6  and  C_7
REMARK    4  A    between atoms: C_10  and  C_11
REMARK    5  A    between atoms: N_16  and  C_17
REMARK    6  A    between atoms: N_25  and  S_26
REMARK    7  A    between atoms: S_26  and  C_27
REMARK                            x       y       z     vdW  Elec       q    Type
REMARK                         _______ _______ _______ _____ _____    ______ ____
ROOT
ATOM      1  C   UNL     1       1.058   7.830  20.916  0.00  0.00    +0.000 C 
ATOM      2  C   UNL     1       1.498   8.401  19.616  0.00  0.00    +0.000 A 
ATOM      3  C   UNL     1       2.184   7.809  18.551  0.00  0.00    +0.000 A 
ATOM      4  N   UNL     1       2.255   8.704  17.518  0.00  0.00    +0.000 NA
ATOM      5  N   UNL     1       1.625   9.806  17.875  0.00  0.00    +0.000 NA
ATOM      6  N   UNL     1       1.137   9.662  19.131  0.00  0.00    +0.000 N 
ENDROOT
BRANCH   6   7
ATOM      7  C   UNL     1       0.417  10.736  19.744  0.00  0.00    +0.000 A 
ATOM      8  C   UNL     1       1.086  11.575  20.647  0.00  0.00    +0.000 A 
ATOM      9  C   UNL     1       0.431  12.652  21.255  0.00  0.00    +0.000 A 
ATOM     10  C   UNL     1      -0.901  12.920  20.965  0.00  0.00    +0.000 A 
ATOM     11  C   UNL     1      -1.588  12.128  20.041  0.00  0.00    +0.000 A 
ATOM     12  C   UNL     1      -0.931  11.031  19.416  0.00  0.00    +0.000 A 
ATOM     13  C   UNL     1      -1.813  10.227  18.488  0.00  0.00    +0.000 C 
ATOM     14  C   UNL     1      -2.605  11.195  17.610  0.00  0.00    +0.000 C 
ATOM     15  N   UNL     1      -3.541  11.989  18.433  0.00  0.00    +0.000 NA
ATOM     16  C   UNL     1      -3.061  12.401  19.770  0.00  0.00    +0.000 C 
BRANCH  15  17
ATOM     17  S   UNL     1      -5.193  11.715  18.249  0.00  0.00    +0.000 S 
ATOM     18  C   UNL     1      -5.868  12.462  19.722  0.00  0.00    +0.000 C 
ATOM     19  O   UNL     1      -5.648  12.483  17.111  0.00  0.00    +0.000 OA
ATOM     20  O   UNL     1      -5.425  10.290  18.339  0.00  0.00    +0.000 OA
ENDBRANCH  15  17
ENDBRANCH   6   7
BRANCH   3  21
ATOM     21  C   UNL     1       2.694   6.436  18.390  0.00  0.00    +0.000 C 
ATOM     22  O   UNL     1       2.014   5.512  17.956  0.00  0.00    +0.000 OA
ATOM     23  N   UNL     1       4.037   6.302  18.727  0.00  0.00    +0.000 N 
ATOM     24  H   UNL     1       4.498   7.172  18.966  0.00  0.00    +0.000 HD
BRANCH  23  25
ATOM     25  C   UNL     1       4.869   5.179  18.286  0.00  0.00    +0.000 C 
ATOM     26  C   UNL     1       6.125   4.992  19.156  0.00  0.00    +0.000 C 
ATOM     27  C   UNL     1       7.145   6.130  19.026  0.00  0.00    +0.000 C 
ATOM     28  C   UNL     1       7.435   6.578  17.583  0.00  0.00    +0.000 C 
ATOM     29  C   UNL     1       8.111   7.954  17.588  0.00  0.00    +0.000 C 
ATOM     30  C   UNL     1       6.186   6.620  16.692  0.00  0.00    +0.000 C 
ATOM     31  C   UNL     1       5.324   5.367  16.834  0.00  0.00    +0.000 C 
ENDBRANCH  23  25
ENDBRANCH   3  21
TORSDOF 4
ENDMDL
MODEL 2
REMARK VINA RESULT:      -8.2      3.894      8.997
REMARK  Name = 
REMARK  7 active torsions:
REMARK  status: ('A' for Active; 'I' for Inactive)
REMARK    1  A    between atoms: C_1  and  C_2
REMARK    2  A    between atoms: C_3  and  C_4
REMARK    3  A    between atoms: N_6  and  C_7
REMARK    4  A    between atoms: C_10  and  C_11
REMARK    5  A    between atoms: N_16  and  C_17
REMARK    6  A    between atoms: N_25  and  S_26
REMARK    7  A    between atoms: S_26  and  C_27
REMARK                            x       y       z     vdW  Elec       q    Type
REMARK                         _______ _______ _______ _____ _____    ______ ____
ROOT
ATOM      1  C   UNL     1       1.227   8.777  21.645  0.00  0.00    +0.000 C 
ATOM      2  C   UNL     1       1.245   8.944  20.168  0.00  0.00    +0.000 A 
ATOM      3  C   UNL     1       0.864  10.029  19.373  0.00  0.00    +0.000 A 
ATOM      4  N   UNL     1       1.180   9.756  18.070  0.00  0.00    +0.000 NA
ATOM      5  N   UNL     1       1.762   8.573  18.019  0.00  0.00    +0.000 NA
ATOM      6  N   UNL     1       1.837   8.051  19.268  0.00  0.00    +0.000 N 
ENDROOT
BRANCH   6   7
ATOM      7  C   UNL     1       2.424   6.763  19.469  0.00  0.00    +0.000 A 
ATOM      8  C   UNL     1       1.813   5.868  20.360  0.00  0.00    +0.000 A 
ATOM      9  C   UNL     1       2.338   4.588  20.573  0.00  0.00    +0.000 A 
ATOM     10  C   UNL     1       3.476   4.171  19.892  0.00  0.00    +0.000 A 
ATOM     11  C   UNL     1       4.088   5.023  18.968  0.00  0.00    +0.000 A 
ATOM     12  C   UNL     1       3.562   6.326  18.744  0.00  0.00    +0.000 A 
ATOM     13  C   UNL     1       4.362   7.157  17.765  0.00  0.00    +0.000 C 
ATOM     14  C   UNL     1       4.698   6.291  16.553  0.00  0.00    +0.000 C 
ATOM     15  N   UNL     1       5.601   5.187  16.942  0.00  0.00    +0.000 NA
ATOM     16  C   UNL     1       5.362   4.574  18.267  0.00  0.00    +0.000 C 
BRANCH  15  17
ATOM     17  S   UNL     1       7.184   5.213  16.370  0.00  0.00    +0.000 S 
ATOM     18  C   UNL     1       6.990   4.649  14.689  0.00  0.00    +0.000 C 
ATOM     19  O   UNL     1       7.621   6.592  16.330  0.00  0.00    +0.000 OA
ATOM     20  O   UNL     1       7.938   4.205  17.083  0.00  0.00    +0.000 OA
ENDBRANCH  15  17
ENDBRANCH   6   7
BRANCH   3  21
ATOM     21  C   UNL     1       0.315  11.344  19.751  0.00  0.00    +0.000 C 
ATOM     22  O   UNL     1      -0.830  11.503  20.158  0.00  0.00    +0.000 OA
ATOM     23  N   UNL     1       1.240  12.378  19.651  0.00  0.00    +0.000 N 
ATOM     24  H   UNL     1       2.177  12.081  19.405  0.00  0.00    +0.000 HD
BRANCH  23  25
ATOM     25  C   UNL     1       1.083  13.667  20.331  0.00  0.00    +0.000 C 
ATOM     26  C   UNL     1       0.733  14.811  19.363  0.00  0.00    +0.000 C 
ATOM     27  C   UNL     1       1.864  15.172  18.394  0.00  0.00    +0.000 C 
ATOM     28  C   UNL     1       3.256  15.292  19.039  0.00  0.00    +0.000 C 
ATOM     29  C   UNL     1       4.341  15.231  17.958  0.00  0.00    +0.000 C 
ATOM     30  C   UNL     1       3.530  14.224  20.107  0.00  0.00    +0.000 C 
ATOM     31  C   UNL     1       2.364  14.055  21.078  0.00  0.00    +0.000 C 
ENDBRANCH  23  25
ENDBRANCH   3  21
TORSDOF 4
ENDMDL
MODEL 3
REMARK VINA RESULT:      -8.1      3.946      9.502
REMARK  Name = 
REMARK  7 active torsions:
REMARK  status: ('A' for Active; 'I' for Inactive)
REMARK    1  A    between atoms: C_1  and  C_2
REMARK    2  A    between atoms: C_3  and  C_4
REMARK    3  A    between atoms: N_6  and  C_7
REMARK    4  A    between atoms: C_10  and  C_11
REMARK    5  A    between atoms: N_16  and  C_17
REMARK    6  A    between atoms: N_25  and  S_26
REMARK    7  A    between atoms: S_26  and  C_27
REMARK                            x       y       z     vdW  Elec       q    Type
REMARK                         _______ _______ _______ _____ _____    ______ ____
ROOT
ATOM      1  C   UNL     1       1.798   8.562  17.815  0.00  0.00    +0.000 C 
ATOM      2  C   UNL     1       1.684   8.155  19.240  0.00  0.00    +0.000 A 
ATOM      3  C   UNL     1       1.298   8.890  20.365  0.00  0.00    +0.000 A 
ATOM      4  N   UNL     1       1.231   8.048  21.442  0.00  0.00    +0.000 NA
ATOM      5  N   UNL     1       1.527   6.828  21.039  0.00  0.00    +0.000 NA
ATOM      6  N   UNL     1       1.793   6.842  19.710  0.00  0.00    +0.000 N 
ENDROOT
BRANCH   6   7
ATOM      7  C   UNL     1       2.149   5.629  19.041  0.00  0.00    +0.000 A 
ATOM      8  C   UNL     1       1.248   4.554  19.056  0.00  0.00    +0.000 A 
ATOM      9  C   UNL     1       1.543   3.354  18.397  0.00  0.00    +0.000 A 
ATOM     10  C   UNL     1       2.737   3.208  17.701  0.00  0.00    +0.000 A 
ATOM     11  C   UNL     1       3.641   4.272  17.633  0.00  0.00    +0.000 A 
ATOM     12  C   UNL     1       3.351   5.496  18.299  0.00  0.00    +0.000 A 
ATOM     13  C   UNL     1       4.444   6.535  18.191  0.00  0.00    +0.000 C 
ATOM     14  C   UNL     1       4.920   6.592  16.740  0.00  0.00    +0.000 C 
ATOM     15  N   UNL     1       5.565   5.318  16.358  0.00  0.00    +0.000 NA
ATOM     16  C   UNL     1       4.967   4.083  16.911  0.00  0.00    +0.000 C 
BRANCH  15  17
ATOM     17  S   UNL     1       7.224   5.319  16.073  0.00  0.00    +0.000 S 
ATOM     18  C   UNL     1       7.309   4.976  14.324  0.00  0.00    +0.000 C 
ATOM     19  O   UNL     1       7.713   6.664  16.287  0.00  0.00    +0.000 OA
ATOM     20  O   UNL     1       7.802   4.188  16.766  0.00  0.00    +0.000 OA
ENDBRANCH  15  17
ENDBRANCH   6   7
BRANCH   3  21
ATOM     21  C   UNL     1       0.892  10.301  20.490  0.00  0.00    +0.000 C 
ATOM     22  O   UNL     1       1.481  11.110  21.200  0.00  0.00    +0.000 OA
ATOM     23  N   UNL     1      -0.191  10.638  19.686  0.00  0.00    +0.000 N 
ATOM     24  H   UNL     1      -0.506   9.895  19.073  0.00  0.00    +0.000 HD
BRANCH  23  25
ATOM     25  C   UNL     1      -0.525  12.019  19.323  0.00  0.00    +0.000 C 
ATOM     26  C   UNL     1      -1.750  12.554  20.086  0.00  0.00    +0.000 C 
ATOM     27  C   UNL     1      -3.066  11.866  19.708  0.00  0.00    +0.000 C 
ATOM     28  C   UNL     1      -3.292  11.685  18.197  0.00  0.00    +0.000 C 
ATOM     29  C   UNL     1      -4.389  10.642  17.953  0.00  0.00    +0.000 C 
ATOM     30  C   UNL     1      -2.022  11.289  17.432  0.00  0.00    +0.000 C 
ATOM     31  C   UNL     1      -0.815  12.138  17.822  0.00  0.00    +0.000 C 
ENDBRANCH  23  25
ENDBRANCH   3  21
TORSDOF 4
ENDMDL
MODEL 4
REMARK VINA RESULT:      -8.0      1.497      1.773
REMARK  Name = 
REMARK  7 active torsions:
REMARK  status: ('A' for Active; 'I' for Inactive)
REMARK    1  A    between atoms: C_1  and  C_2
REMARK    2  A    between atoms: C_3  and  C_4
REMARK    3  A    between atoms: N_6  and  C_7
REMARK    4  A    between atoms: C_10  and  C_11
REMARK    5  A    between atoms: N_16  and  C_17
REMARK    6  A    between atoms: N_25  and  S_26
REMARK    7  A    between atoms: S_26  and  C_27
REMARK                            x       y       z     vdW  Elec       q    Type
REMARK                         _______ _______ _______ _____ _____    ______ ____
ROOT
ATOM      1  C   UNL     1       1.103   8.680  21.145  0.00  0.00    +0.000 C 
ATOM      2  C   UNL     1       1.636   8.584  19.761  0.00  0.00    +0.000 A 
ATOM      3  C   UNL     1       2.268   7.524  19.104  0.00  0.00    +0.000 A 
ATOM      4  N   UNL     1       2.468   7.869  17.795  0.00  0.00    +0.000 NA
ATOM      5  N   UNL     1       1.969   9.075  17.599  0.00  0.00    +0.000 NA
ATOM      6  N   UNL     1       1.440   9.539  18.758  0.00  0.00    +0.000 N 
ENDROOT
BRANCH   6   7
ATOM      7  C   UNL     1       0.843  10.839  18.799  0.00  0.00    +0.000 A 
ATOM      8  C   UNL     1       1.669  11.962  18.948  0.00  0.00    +0.000 A 
ATOM      9  C   UNL     1       1.134  13.255  18.971  0.00  0.00    +0.000 A 
ATOM     10  C   UNL     1      -0.234  13.453  18.836  0.00  0.00    +0.000 A 
ATOM     11  C   UNL     1      -1.083  12.359  18.647  0.00  0.00    +0.000 A 
ATOM     12  C   UNL     1      -0.549  11.040  18.621  0.00  0.00    +0.000 A 
ATOM     13  C   UNL     1      -1.590   9.953  18.473  0.00  0.00    +0.000 C 
ATOM     14  C   UNL     1      -2.567  10.362  17.373  0.00  0.00    +0.000 C 
ATOM     15  N   UNL     1      -3.327  11.564  17.779  0.00  0.00    +0.000 NA
ATOM     16  C   UNL     1      -2.585  12.585  18.551  0.00  0.00    +0.000 C 
BRANCH  15  17
ATOM     17  S   UNL     1      -4.974  11.398  18.088  0.00  0.00    +0.000 S 
ATOM     18  C   UNL     1      -5.164  12.286  19.624  0.00  0.00    +0.000 C 
ATOM     19  O   UNL     1      -5.695  12.122  17.063  0.00  0.00    +0.000 OA
ATOM     20  O   UNL     1      -5.244  10.002  18.356  0.00  0.00    +0.000 OA
ENDBRANCH  15  17
ENDBRANCH   6   7
BRANCH   3  21
ATOM     21  C   UNL     1       2.612   6.172  19.583  0.00  0.00    +0.000 C 
ATOM     22  O   UNL     1       1.833   5.463  20.211  0.00  0.00    +0.000 OA
ATOM     23  N   UNL     1       3.886   5.760  19.206  0.00  0.00    +0.000 N 
ATOM     24  H   UNL     1       4.373   6.407  18.598  0.00  0.00    +0.000 HD
BRANCH  23  25
ATOM     25  C   UNL     1       4.308   4.357  19.200  0.00  0.00    +0.000 C 
ATOM     26  C   UNL     1       5.819   4.192  18.956  0.00  0.00    +0.000 C 
ATOM     27  C   UNL     1       6.268   4.598  17.548  0.00  0.00    +0.000 C 
ATOM     28  C   UNL     1       5.381   4.070  16.407  0.00  0.00    +0.000 C 
ATOM     29  C   UNL     1       5.655   4.860  15.122  0.00  0.00    +0.000 C 
ATOM     30  C   UNL     1       3.881   4.111  16.729  0.00  0.00    +0.000 C 
ATOM     31  C   UNL     1       3.566   3.563  18.119  0.00  0.00    +0.000 C 
ENDBRANCH  23  25
ENDBRANCH   3  21
TORSDOF 4
ENDMDL
MODEL 5
REMARK VINA RESULT:      -8.0      1.926      3.167
REMARK  Name = 
REMARK  7 active torsions:
REMARK  status: ('A' for Active; 'I' for Inactive)
REMARK    1  A    between atoms: C_1  and  C_2
REMARK    2  A    between atoms: C_3  and  C_4
REMARK    3  A    between atoms: N_6  and  C_7
REMARK    4  A    between atoms: C_10  and  C_11
REMARK    5  A    between atoms: N_16  and  C_17
REMARK    6  A    between atoms: N_25  and  S_26
REMARK    7  A    between atoms: S_26  and  C_27
REMARK                            x       y       z     vdW  Elec       q    Type
REMARK                         _______ _______ _______ _____ _____    ______ ____
ROOT
ATOM      1  C   UNL     1       1.743   7.179  20.254  0.00  0.00    +0.000 C 
ATOM      2  C   UNL     1       2.084   8.073  19.116  0.00  0.00    +0.000 A 
ATOM      3  C   UNL     1       2.896   7.851  17.999  0.00  0.00    +0.000 A 
ATOM      4  N   UNL     1       2.805   8.931  17.164  0.00  0.00    +0.000 NA
ATOM      5  N   UNL     1       1.960   9.797  17.690  0.00  0.00    +0.000 NA
ATOM      6  N   UNL     1       1.487   9.312  18.864  0.00  0.00    +0.000 N 
ENDROOT
BRANCH   6   7
ATOM      7  C   UNL     1       0.555  10.082  19.629  0.00  0.00    +0.000 A 
ATOM      8  C   UNL     1       0.939  10.555  20.893  0.00  0.00    +0.000 A 
ATOM      9  C   UNL     1       0.071  11.330  21.669  0.00  0.00    +0.000 A 
ATOM     10  C   UNL     1      -1.194  11.658  21.196  0.00  0.00    +0.000 A 
ATOM     11  C   UNL     1      -1.596  11.236  19.925  0.00  0.00    +0.000 A 
ATOM     12  C   UNL     1      -0.720  10.448  19.127  0.00  0.00    +0.000 A 
ATOM     13  C   UNL     1      -1.310  10.013  17.805  0.00  0.00    +0.000 C 
ATOM     14  C   UNL     1      -1.996  11.215  17.159  0.00  0.00    +0.000 C 
ATOM     15  N   UNL     1      -3.155  11.644  17.971  0.00  0.00    +0.000 NA
ATOM     16  C   UNL     1      -3.001  11.559  19.439  0.00  0.00    +0.000 C 
BRANCH  15  17
ATOM     17  S   UNL     1      -4.699  11.422  17.335  0.00  0.00    +0.000 S 
ATOM     18  C   UNL     1      -4.350  10.825  15.691  0.00  0.00    +0.000 C 
ATOM     19  O   UNL     1      -5.335  10.352  18.072  0.00  0.00    +0.000 OA
ATOM     20  O   UNL     1      -5.323  12.721  17.203  0.00  0.00    +0.000 OA
ENDBRANCH  15  17
ENDBRANCH   6   7
BRANCH   3  21
ATOM     21  C   UNL     1       3.674   6.662  17.606  0.00  0.00    +0.000 C 
ATOM     22  O   UNL     1       4.853   6.711  17.274  0.00  0.00    +0.000 OA
ATOM     23  N   UNL     1       2.955   5.475  17.699  0.00  0.00    +0.000 N 
ATOM     24  H   UNL     1       2.026   5.577  18.090  0.00  0.00    +0.000 HD
BRANCH  23  25
ATOM     25  C   UNL     1       3.588   4.154  17.759  0.00  0.00    +0.000 C 
ATOM     26  C   UNL     1       2.600   3.009  17.474  0.00  0.00    +0.000 C 
ATOM     27  C   UNL     1       1.530   2.827  18.556  0.00  0.00    +0.000 C 
ATOM     28  C   UNL     1       2.058   2.862  20.001  0.00  0.00    +0.000 C 
ATOM     29  C   UNL     1       0.899   3.097  20.976  0.00  0.00    +0.000 C 
ATOM     30  C   UNL     1       3.147   3.919  20.229  0.00  0.00    +0.000 C 
ATOM     31  C   UNL     1       4.214   3.906  19.136  0.00  0.00    +0.000 C 
ENDBRANCH  23  25
ENDBRANCH   3  21
TORSDOF 4
ENDMDL
MODEL 6
REMARK VINA RESULT:      -8.0      3.595      4.379
REMARK  Name = 
REMARK  7 active torsions:
REMARK  status: ('A' for Active; 'I' for Inactive)
REMARK    1  A    between atoms: C_1  and  C_2
REMARK    2  A    between atoms: C_3  and  C_4
REMARK    3  A    between atoms: N_6  and  C_7
REMARK    4  A    between atoms: C_10  and  C_11
REMARK    5  A    between atoms: N_16  and  C_17
REMARK    6  A    between atoms: N_25  and  S_26
REMARK    7  A    between atoms: S_26  and  C_27
REMARK                            x       y       z     vdW  Elec       q    Type
REMARK                         _______ _______ _______ _____ _____    ______ ____
ROOT
ATOM      1  C   UNL     1       0.983   8.559  21.186  0.00  0.00    +0.000 C 
ATOM      2  C   UNL     1       1.482   8.513  19.787  0.00  0.00    +0.000 A 
ATOM      3  C   UNL     1       2.281   7.566  19.139  0.00  0.00    +0.000 A 
ATOM      4  N   UNL     1       2.373   7.895  17.814  0.00  0.00    +0.000 NA
ATOM      5  N   UNL     1       1.652   8.979  17.601  0.00  0.00    +0.000 NA
ATOM      6  N   UNL     1       1.081   9.379  18.764  0.00  0.00    +0.000 N 
ENDROOT
BRANCH   6   7
ATOM      7  C   UNL     1       0.253  10.545  18.788  0.00  0.00    +0.000 A 
ATOM      8  C   UNL     1      -1.135  10.391  18.913  0.00  0.00    +0.000 A 
ATOM      9  C   UNL     1      -1.984  11.502  18.964  0.00  0.00    +0.000 A 
ATOM     10  C   UNL     1      -1.464  12.789  18.902  0.00  0.00    +0.000 A 
ATOM     11  C   UNL     1      -0.082  12.981  18.815  0.00  0.00    +0.000 A 
ATOM     12  C   UNL     1       0.790  11.858  18.764  0.00  0.00    +0.000 A 
ATOM     13  C   UNL     1       2.252  12.214  18.609  0.00  0.00    +0.000 C 
ATOM     14  C   UNL     1       2.581  13.346  19.580  0.00  0.00    +0.000 C 
ATOM     15  N   UNL     1       1.848  14.575  19.208  0.00  0.00    +0.000 NA
ATOM     16  C   UNL     1       0.472  14.394  18.697  0.00  0.00    +0.000 C 
BRANCH  15  17
ATOM     17  S   UNL     1       2.731  15.883  18.622  0.00  0.00    +0.000 S 
ATOM     18  C   UNL     1       1.450  17.066  18.242  0.00  0.00    +0.000 C 
ATOM     19  O   UNL     1       3.519  16.415  19.713  0.00  0.00    +0.000 OA
ATOM     20  O   UNL     1       3.343  15.489  17.372  0.00  0.00    +0.000 OA
ENDBRANCH  15  17
ENDBRANCH   6   7
BRANCH   3  21
ATOM     21  C   UNL     1       2.885   6.320  19.646  0.00  0.00    +0.000 C 
ATOM     22  O   UNL     1       2.320   5.570  20.433  0.00  0.00    +0.000 OA
ATOM     23  N   UNL     1       4.138   6.053  19.102  0.00  0.00    +0.000 N 
ATOM     24  H   UNL     1       4.431   6.705  18.385  0.00  0.00    +0.000 HD
BRANCH  23  25
ATOM     25  C   UNL     1       4.756   4.724  19.121  0.00  0.00    +0.000 C 
ATOM     26  C   UNL     1       6.253   4.761  18.767  0.00  0.00    +0.000 C 
ATOM     27  C   UNL     1       6.538   5.152  17.313  0.00  0.00    +0.000 C 
ATOM     28  C   UNL     1       5.658   4.445  16.267  0.00  0.00    +0.000 C 
ATOM     29  C   UNL     1       5.723   5.198  14.933  0.00  0.00    +0.000 C 
ATOM     30  C   UNL     1       4.194   4.292  16.703  0.00  0.00    +0.000 C 
ATOM     31  C   UNL     1       4.061   3.779  18.135  0.00  0.00    +0.000 C 
ENDBRANCH  23  25
ENDBRANCH   3  21
TORSDOF 4
ENDMDL
MODEL 7
REMARK VINA RESULT:      -7.9      1.119      1.433
REMARK  Name = 
REMARK  7 active torsions:
REMARK  status: ('A' for Active; 'I' for Inactive)
REMARK    1  A    between atoms: C_1  and  C_2
REMARK    2  A    between atoms: C_3  and  C_4
REMARK    3  A    between atoms: N_6  and  C_7
REMARK    4  A    between atoms: C_10  and  C_11
REMARK    5  A    between atoms: N_16  and  C_17
REMARK    6  A    between atoms: N_25  and  S_26
REMARK    7  A    between atoms: S_26  and  C_27
REMARK                            x       y       z     vdW  Elec       q    Type
REMARK                         _______ _______ _______ _____ _____    ______ ____
ROOT
ATOM      1  C   UNL     1       2.200   8.634  17.650  0.00  0.00    +0.000 C 
ATOM      2  C   UNL     1       1.874   8.109  19.002  0.00  0.00    +0.000 A 
ATOM      3  C   UNL     1       2.163   6.874  19.589  0.00  0.00    +0.000 A 
ATOM      4  N   UNL     1       1.763   6.901  20.898  0.00  0.00    +0.000 NA
ATOM      5  N   UNL     1       1.267   8.095  21.159  0.00  0.00    +0.000 NA
ATOM      6  N   UNL     1       1.329   8.865  20.045  0.00  0.00    +0.000 N 
ENDROOT
BRANCH   6   7
ATOM      7  C   UNL     1       0.839  10.209  20.079  0.00  0.00    +0.000 A 
ATOM      8  C   UNL     1       1.669  11.222  20.581  0.00  0.00    +0.000 A 
ATOM      9  C   UNL     1       1.244  12.555  20.614  0.00  0.00    +0.000 A 
ATOM     10  C   UNL     1      -0.014  12.904  20.136  0.00  0.00    +0.000 A 
ATOM     11  C   UNL     1      -0.852  11.926  19.594  0.00  0.00    +0.000 A 
ATOM     12  C   UNL     1      -0.428  10.568  19.555  0.00  0.00    +0.000 A 
ATOM     13  C   UNL     1      -1.460   9.612  18.999  0.00  0.00    +0.000 C 
ATOM     14  C   UNL     1      -2.057  10.224  17.733  0.00  0.00    +0.000 C 
ATOM     15  N   UNL     1      -2.812  11.452  18.060  0.00  0.00    +0.000 NA
ATOM     16  C   UNL     1      -2.246  12.313  19.121  0.00  0.00    +0.000 C 
BRANCH  15  17
ATOM     17  S   UNL     1      -4.486  11.428  17.887  0.00  0.00    +0.000 S 
ATOM     18  C   UNL     1      -5.020  12.498  19.211  0.00  0.00    +0.000 C 
ATOM     19  O   UNL     1      -4.815  12.072  16.633  0.00  0.00    +0.000 OA
ATOM     20  O   UNL     1      -4.952  10.092  18.193  0.00  0.00    +0.000 OA
ENDBRANCH  15  17
ENDBRANCH   6   7
BRANCH   3  21
ATOM     21  C   UNL     1       2.875   5.702  19.048  0.00  0.00    +0.000 C 
ATOM     22  O   UNL     1       2.306   4.679  18.683  0.00  0.00    +0.000 OA
ATOM     23  N   UNL     1       4.249   5.891  18.941  0.00  0.00    +0.000 N 
ATOM     24  H   UNL     1       4.564   6.824  19.179  0.00  0.00    +0.000 HD
BRANCH  23  25
ATOM     25  C   UNL     1       5.110   5.070  18.085  0.00  0.00    +0.000 C 
ATOM     26  C   UNL     1       6.514   4.862  18.679  0.00  0.00    +0.000 C 
ATOM     27  C   UNL     1       7.359   6.140  18.737  0.00  0.00    +0.000 C 
ATOM     28  C   UNL     1       7.333   6.993  17.457  0.00  0.00    +0.000 C 
ATOM     29  C   UNL     1       7.839   8.408  17.761  0.00  0.00    +0.000 C 
ATOM     30  C   UNL     1       5.948   7.070  16.801  0.00  0.00    +0.000 C 
ATOM     31  C   UNL     1       5.272   5.704  16.699  0.00  0.00    +0.000 C 
ENDBRANCH  23  25
ENDBRANCH   3  21
TORSDOF 4
ENDMDL
MODEL 8
REMARK VINA RESULT:      -7.8      2.060      3.190
REMARK  Name = 
REMARK  7 active torsions:
REMARK  status: ('A' for Active; 'I' for Inactive)
REMARK    1  A    between atoms: C_1  and  C_2
REMARK    2  A    between atoms: C_3  and  C_4
REMARK    3  A    between atoms: N_6  and  C_7
REMARK    4  A    between atoms: C_10  and  C_11
REMARK    5  A    between atoms: N_16  and  C_17
REMARK    6  A    between atoms: N_25  and  S_26
REMARK    7  A    between atoms: S_26  and  C_27
REMARK                            x       y       z     vdW  Elec       q    Type
REMARK                         _______ _______ _______ _____ _____    ______ ____
ROOT
ATOM      1  C   UNL     1       1.844   9.669  17.556  0.00  0.00    +0.000 C 
ATOM      2  C   UNL     1       1.643   8.910  18.817  0.00  0.00    +0.000 A 
ATOM      3  C   UNL     1       2.102   7.645  19.198  0.00  0.00    +0.000 A 
ATOM      4  N   UNL     1       1.761   7.425  20.505  0.00  0.00    +0.000 NA
ATOM      5  N   UNL     1       1.141   8.495  20.962  0.00  0.00    +0.000 NA
ATOM      6  N   UNL     1       1.061   9.426  19.980  0.00  0.00    +0.000 N 
ENDROOT
BRANCH   6   7
ATOM      7  C   UNL     1       0.419  10.679  20.235  0.00  0.00    +0.000 A 
ATOM      8  C   UNL     1       1.117  11.670  20.941  0.00  0.00    +0.000 A 
ATOM      9  C   UNL     1       0.539  12.919  21.195  0.00  0.00    +0.000 A 
ATOM     10  C   UNL     1      -0.742  13.208  20.741  0.00  0.00    +0.000 A 
ATOM     11  C   UNL     1      -1.452  12.258  20.001  0.00  0.00    +0.000 A 
ATOM     12  C   UNL     1      -0.873  10.984  19.736  0.00  0.00    +0.000 A 
ATOM     13  C   UNL     1      -1.778  10.038  18.980  0.00  0.00    +0.000 C 
ATOM     14  C   UNL     1      -2.420  10.799  17.822  0.00  0.00    +0.000 C 
ATOM     15  N   UNL     1      -3.317  11.857  18.334  0.00  0.00    +0.000 NA
ATOM     16  C   UNL     1      -2.873  12.567  19.553  0.00  0.00    +0.000 C 
BRANCH  15  17
ATOM     17  S   UNL     1      -4.975  11.679  18.097  0.00  0.00    +0.000 S 
ATOM     18  C   UNL     1      -5.655  12.663  19.420  0.00  0.00    +0.000 C 
ATOM     19  O   UNL     1      -5.317  12.317  16.844  0.00  0.00    +0.000 OA
ATOM     20  O   UNL     1      -5.322  10.298  18.359  0.00  0.00    +0.000 OA
ENDBRANCH  15  17
ENDBRANCH   6   7
BRANCH   3  21
ATOM     21  C   UNL     1       2.922   6.666  18.462  0.00  0.00    +0.000 C 
ATOM     22  O   UNL     1       4.072   6.888  18.100  0.00  0.00    +0.000 OA
ATOM     23  N   UNL     1       2.282   5.446  18.265  0.00  0.00    +0.000 N 
ATOM     24  H   UNL     1       1.377   5.371  18.713  0.00  0.00    +0.000 HD
BRANCH  23  25
ATOM     25  C   UNL     1       2.994   4.208  17.937  0.00  0.00    +0.000 C 
ATOM     26  C   UNL     1       2.049   3.005  17.771  0.00  0.00    +0.000 C 
ATOM     27  C   UNL     1       1.367   2.568  19.072  0.00  0.00    +0.000 C 
ATOM     28  C   UNL     1       2.299   2.477  20.294  0.00  0.00    +0.000 C 
ATOM     29  C   UNL     1       1.471   2.454  21.584  0.00  0.00    +0.000 C 
ATOM     30  C   UNL     1       3.330   3.612  20.362  0.00  0.00    +0.000 C 
ATOM     31  C   UNL     1       4.019   3.858  19.021  0.00  0.00    +0.000 C 
ENDBRANCH  23  25
ENDBRANCH   3  21
TORSDOF 4
ENDMDL
MODEL 9
REMARK VINA RESULT:      -7.8      3.705      4.597
REMARK  Name = 
REMARK  7 active torsions:
REMARK  status: ('A' for Active; 'I' for Inactive)
REMARK    1  A    between atoms: C_1  and  C_2
REMARK    2  A    between atoms: C_3  and  C_4
REMARK    3  A    between atoms: N_6  and  C_7
REMARK    4  A    between atoms: C_10  and  C_11
REMARK    5  A    between atoms: N_16  and  C_17
REMARK    6  A    between atoms: N_25  and  S_26
REMARK    7  A    between atoms: S_26  and  C_27
REMARK                            x       y       z     vdW  Elec       q    Type
REMARK                         _______ _______ _______ _____ _____    ______ ____
ROOT
ATOM      1  C   UNL     1       0.928   9.034  21.452  0.00  0.00    +0.000 C 
ATOM      2  C   UNL     1       1.317   8.994  20.018  0.00  0.00    +0.000 A 
ATOM      3  C   UNL     1       1.942   7.989  19.275  0.00  0.00    +0.000 A 
ATOM      4  N   UNL     1       1.980   8.367  17.961  0.00  0.00    +0.000 NA
ATOM      5  N   UNL     1       1.387   9.539  17.845  0.00  0.00    +0.000 NA
ATOM      6  N   UNL     1       0.955   9.950  19.063  0.00  0.00    +0.000 N 
ENDROOT
BRANCH   6   7
ATOM      7  C   UNL     1       0.284  11.206  19.195  0.00  0.00    +0.000 A 
ATOM      8  C   UNL     1      -1.053  11.222  19.622  0.00  0.00    +0.000 A 
ATOM      9  C   UNL     1      -1.745  12.426  19.787  0.00  0.00    +0.000 A 
ATOM     10  C   UNL     1      -1.115  13.640  19.541  0.00  0.00    +0.000 A 
ATOM     11  C   UNL     1       0.228  13.664  19.152  0.00  0.00    +0.000 A 
ATOM     12  C   UNL     1       0.941  12.444  18.981  0.00  0.00    +0.000 A 
ATOM     13  C   UNL     1       2.363  12.621  18.498  0.00  0.00    +0.000 C 
ATOM     14  C   UNL     1       3.017  13.737  19.309  0.00  0.00    +0.000 C 
ATOM     15  N   UNL     1       2.357  15.031  19.032  0.00  0.00    +0.000 NA
ATOM     16  C   UNL     1       0.891  14.997  18.836  0.00  0.00    +0.000 C 
BRANCH  15  17
ATOM     17  S   UNL     1       3.227  16.206  18.196  0.00  0.00    +0.000 S 
ATOM     18  C   UNL     1       4.640  16.458  19.256  0.00  0.00    +0.000 C 
ATOM     19  O   UNL     1       3.697  15.618  16.960  0.00  0.00    +0.000 OA
ATOM     20  O   UNL     1       2.454  17.429  18.203  0.00  0.00    +0.000 OA
ENDBRANCH  15  17
ENDBRANCH   6   7
BRANCH   3  21
ATOM     21  C   UNL     1       2.421   6.656  19.686  0.00  0.00    +0.000 C 
ATOM     22  O   UNL     1       2.025   6.080  20.694  0.00  0.00    +0.000 OA
ATOM     23  N   UNL     1       3.324   6.093  18.790  0.00  0.00    +0.000 N 
ATOM     24  H   UNL     1       3.474   6.637  17.949  0.00  0.00    +0.000 HD
BRANCH  23  25
ATOM     25  C   UNL     1       3.629   4.660  18.749  0.00  0.00    +0.000 C 
ATOM     26  C   UNL     1       5.021   4.332  19.318  0.00  0.00    +0.000 C 
ATOM     27  C   UNL     1       6.180   4.862  18.467  0.00  0.00    +0.000 C 
ATOM     28  C   UNL     1       6.040   4.616  16.954  0.00  0.00    +0.000 C 
ATOM     29  C   UNL     1       7.000   5.529  16.184  0.00  0.00    +0.000 C 
ATOM     30  C   UNL     1       4.610   4.811  16.433  0.00  0.00    +0.000 C 
ATOM     31  C   UNL     1       3.567   4.126  17.313  0.00  0.00    +0.000 C 
ENDBRANCH  23  25
ENDBRANCH   3  21
TORSDOF 4
ENDMDL
