MODEL 1
REMARK VINA RESULT:      -8.7      0.000      0.000
REMARK  Name = 
REMARK  7 active torsions:
REMARK  status: ('A' for Active; 'I' for Inactive)
REMARK    1  A    between atoms: C_1  and  N_2
REMARK    2  A    between atoms: C_6  and  C_7
REMARK    3  A    between atoms: C_7  and  N_8
REMARK    4  A    between atoms: C_7  and  C_24
REMARK    5  A    between atoms: N_8  and  S_9
REMARK    6  A    between atoms: S_9  and  C_12
REMARK    7  A    between atoms: C_15  and  N_16
REMARK                            x       y       z     vdW  Elec       q    Type
REMARK                         _______ _______ _______ _____ _____    ______ ____
ROOT
ATOM      1  N   UNL     1       4.344   4.477  16.405  0.00  0.00    +0.000 NA
ATOM      2  H   UNL     1       3.931   4.032  15.587  0.00  0.00    +0.000 HD
ENDROOT
BRANCH   1   3
ATOM      3  S   UNL     1       3.697   3.789  17.815  0.00  0.00    +0.000 S 
ATOM      4  O   UNL     1       2.666   2.834  17.484  0.00  0.00    +0.000 OA
ATOM      5  O   UNL     1       4.832   3.413  18.626  0.00  0.00    +0.000 OA
BRANCH   3   6
ATOM      6  C   UNL     1       2.946   5.172  18.622  0.00  0.00    +0.000 A 
ATOM      7  C   UNL     1       2.357   5.026  19.874  0.00  0.00    +0.000 A 
ATOM      8  C   UNL     1       1.816   6.148  20.511  0.00  0.00    +0.000 A 
ATOM      9  C   UNL     1       1.831   7.413  19.904  0.00  0.00    +0.000 A 
ATOM     10  C   UNL     1       2.448   7.532  18.647  0.00  0.00    +0.000 A 
ATOM     11  C   UNL     1       3.021   6.425  18.015  0.00  0.00    +0.000 A 
BRANCH   9  12
ATOM     12  N   UNL     1       1.223   8.540  20.518  0.00  0.00    +0.000 N 
ATOM     13  C   UNL     1       1.294   8.771  21.943  0.00  0.00    +0.000 C 
ATOM     14  C   UNL     1       0.376   9.949  22.189  0.00  0.00    +0.000 C 
ATOM     15  C   UNL     1       0.428  10.724  20.888  0.00  0.00    +0.000 C 
ATOM     16  C   UNL     1       0.707   9.663  19.855  0.00  0.00    +0.000 C 
ATOM     17  O   UNL     1       0.524   9.842  18.661  0.00  0.00    +0.000 OA
ENDBRANCH   9  12
ENDBRANCH   3   6
ENDBRANCH   1   3
BRANCH   1  18
ATOM     18  C   UNL     1       5.815   4.541  16.272  0.00  0.00    +0.000 C 
BRANCH  18  19
ATOM     19  C   UNL     1       6.274   4.385  14.819  0.00  0.00    +0.000 A 
ATOM     20  C   UNL     1       7.395   5.111  14.368  0.00  0.00    +0.000 A 
ATOM     21  C   UNL     1       7.816   5.045  13.036  0.00  0.00    +0.000 A 
ATOM     22  C   UNL     1       7.122   4.251  12.128  0.00  0.00    +0.000 A 
ATOM     23  C   UNL     1       6.020   3.526  12.564  0.00  0.00    +0.000 A 
ATOM     24  F   UNL     1       5.352   2.761  11.689  0.00  0.00    +0.000 F 
ATOM     25  C   UNL     1       5.590   3.585  13.890  0.00  0.00    +0.000 A 
ENDBRANCH  18  19
BRANCH  18  31
ATOM     26  C   UNL     1       8.025   4.745  18.605  0.00  0.00    +0.000 C 
ATOM     27  N   UNL     1       7.422   5.821  17.857  0.00  0.00    +0.000 N 
ATOM     28  C   UNL     1       7.812   7.131  17.974  0.00  0.00    +0.000 A 
ATOM     29  C   UNL     1       6.957   7.840  17.172  0.00  0.00    +0.000 A 
ATOM     30  N   UNL     1       6.079   7.003  16.546  0.00  0.00    +0.000 NA
ATOM     31  C   UNL     1       6.415   5.773  16.909  0.00  0.00    +0.000 A 
ENDBRANCH  18  31
ENDBRANCH   1  18
TORSDOF 6
ENDMDL
MODEL 2
REMARK VINA RESULT:      -8.4      0.979      1.496
REMARK  Name = 
REMARK  7 active torsions:
REMARK  status: ('A' for Active; 'I' for Inactive)
REMARK    1  A    between atoms: C_1  and  N_2
REMARK    2  A    between atoms: C_6  and  C_7
REMARK    3  A    between atoms: C_7  and  N_8
REMARK    4  A    between atoms: C_7  and  C_24
REMARK    5  A    between atoms: N_8  and  S_9
REMARK    6  A    between atoms: S_9  and  C_12
REMARK    7  A    between atoms: C_15  and  N_16
REMARK                            x       y       z     vdW  Elec       q    Type
REMARK                         _______ _______ _______ _____ _____    ______ ____
ROOT
ATOM      1  N   UNL     1       4.317   4.937  16.721  0.00  0.00    +0.000 NA
ATOM      2  H   UNL     1       3.860   4.483  15.931  0.00  0.00    +0.000 HD
ENDROOT
BRANCH   1   3
ATOM      3  S   UNL     1       3.617   4.398  18.170  0.00  0.00    +0.000 S 
ATOM      4  O   UNL     1       2.592   3.417  17.902  0.00  0.00    +0.000 OA
ATOM      5  O   UNL     1       4.722   4.100  19.052  0.00  0.00    +0.000 OA
BRANCH   3   6
ATOM      6  C   UNL     1       2.851   5.858  18.808  0.00  0.00    +0.000 A 
ATOM      7  C   UNL     1       2.846   7.035  18.068  0.00  0.00    +0.000 A 
ATOM      8  C   UNL     1       2.189   8.161  18.575  0.00  0.00    +0.000 A 
ATOM      9  C   UNL     1       1.557   8.136  19.828  0.00  0.00    +0.000 A 
ATOM     10  C   UNL     1       1.564   6.928  20.544  0.00  0.00    +0.000 A 
ATOM     11  C   UNL     1       2.189   5.788  20.033  0.00  0.00    +0.000 A 
BRANCH   9  12
ATOM     12  N   UNL     1       0.946   9.296  20.376  0.00  0.00    +0.000 N 
ATOM     13  C   UNL     1      -0.054  10.052  19.657  0.00  0.00    +0.000 C 
ATOM     14  C   UNL     1      -0.291  11.283  20.504  0.00  0.00    +0.000 C 
ATOM     15  C   UNL     1       0.014  10.814  21.913  0.00  0.00    +0.000 C 
ATOM     16  C   UNL     1       1.030   9.720  21.710  0.00  0.00    +0.000 C 
ATOM     17  O   UNL     1       1.740   9.304  22.612  0.00  0.00    +0.000 OA
ENDBRANCH   9  12
ENDBRANCH   3   6
ENDBRANCH   1   3
BRANCH   1  18
ATOM     18  C   UNL     1       5.786   4.860  16.584  0.00  0.00    +0.000 C 
BRANCH  18  19
ATOM     19  C   UNL     1       6.222   4.606  15.138  0.00  0.00    +0.000 A 
ATOM     20  C   UNL     1       7.398   5.216  14.655  0.00  0.00    +0.000 A 
ATOM     21  C   UNL     1       7.804   5.060  13.325  0.00  0.00    +0.000 A 
ATOM     22  C   UNL     1       7.041   4.290  12.453  0.00  0.00    +0.000 A 
ATOM     23  C   UNL     1       5.884   3.679  12.921  0.00  0.00    +0.000 A 
ATOM     24  F   UNL     1       5.150   2.938  12.080  0.00  0.00    +0.000 F 
ATOM     25  C   UNL     1       5.469   3.828  14.245  0.00  0.00    +0.000 A 
ENDBRANCH  18  19
BRANCH  18  31
ATOM     26  C   UNL     1       8.052   4.945  18.870  0.00  0.00    +0.000 C 
ATOM     27  N   UNL     1       7.526   6.046  18.100  0.00  0.00    +0.000 N 
ATOM     28  C   UNL     1       8.028   7.320  18.170  0.00  0.00    +0.000 A 
ATOM     29  C   UNL     1       7.219   8.076  17.361  0.00  0.00    +0.000 A 
ATOM     30  N   UNL     1       6.261   7.298  16.776  0.00  0.00    +0.000 NA
ATOM     31  C   UNL     1       6.500   6.054  17.171  0.00  0.00    +0.000 A 
ENDBRANCH  18  31
ENDBRANCH   1  18
TORSDOF 6
ENDMDL
MODEL 3
REMARK VINA RESULT:      -8.4      0.996      1.898
REMARK  Name = 
REMARK  7 active torsions:
REMARK  status: ('A' for Active; 'I' for Inactive)
REMARK    1  A    between atoms: C_1  and  N_2
REMARK    2  A    between atoms: C_6  and  C_7
REMARK    3  A    between atoms: C_7  and  N_8
REMARK    4  A    between atoms: C_7  and  C_24
REMARK    5  A    between atoms: N_8  and  S_9
REMARK    6  A    between atoms: S_9  and  C_12
REMARK    7  A    between atoms: C_15  and  N_16
REMARK                            x       y       z     vdW  Elec       q    Type
REMARK                         _______ _______ _______ _____ _____    ______ ____
ROOT
ATOM      1  N   UNL     1       4.390   4.337  16.578  0.00  0.00    +0.000 NA
ATOM      2  H   UNL     1       3.856   4.067  15.753  0.00  0.00    +0.000 HD
ENDROOT
BRANCH   1   3
ATOM      3  S   UNL     1       3.638   3.723  17.969  0.00  0.00    +0.000 S 
ATOM      4  O   UNL     1       2.562   2.829  17.610  0.00  0.00    +0.000 OA
ATOM      5  O   UNL     1       4.710   3.290  18.836  0.00  0.00    +0.000 OA
BRANCH   3   6
ATOM      6  C   UNL     1       2.947   5.168  18.718  0.00  0.00    +0.000 A 
ATOM      7  C   UNL     1       2.937   6.381  18.037  0.00  0.00    +0.000 A 
ATOM      8  C   UNL     1       2.338   7.496  18.633  0.00  0.00    +0.000 A 
ATOM      9  C   UNL     1       1.771   7.424  19.914  0.00  0.00    +0.000 A 
ATOM     10  C   UNL     1       1.781   6.181  20.570  0.00  0.00    +0.000 A 
ATOM     11  C   UNL     1       2.348   5.053  19.972  0.00  0.00    +0.000 A 
BRANCH   9  12
ATOM     12  N   UNL     1       1.222   8.570  20.550  0.00  0.00    +0.000 N 
ATOM     13  C   UNL     1       1.321   8.780  21.976  0.00  0.00    +0.000 C 
ATOM     14  C   UNL     1       0.461   9.995  22.248  0.00  0.00    +0.000 C 
ATOM     15  C   UNL     1       0.533  10.783  20.955  0.00  0.00    +0.000 C 
ATOM     16  C   UNL     1       0.750   9.724  19.907  0.00  0.00    +0.000 C 
ATOM     17  O   UNL     1       0.560   9.925  18.717  0.00  0.00    +0.000 OA
ENDBRANCH   9  12
ENDBRANCH   3   6
ENDBRANCH   1   3
BRANCH   1  18
ATOM     18  C   UNL     1       5.827   4.056  16.379  0.00  0.00    +0.000 C 
BRANCH  18  19
ATOM     19  C   UNL     1       6.248   4.188  14.912  0.00  0.00    +0.000 A 
ATOM     20  C   UNL     1       5.559   3.449  13.928  0.00  0.00    +0.000 A 
ATOM     21  C   UNL     1       5.944   3.493  12.584  0.00  0.00    +0.000 A 
ATOM     22  C   UNL     1       7.027   4.278  12.198  0.00  0.00    +0.000 A 
ATOM     23  C   UNL     1       7.707   5.016  13.159  0.00  0.00    +0.000 A 
ATOM     24  F   UNL     1       8.750   5.771  12.787  0.00  0.00    +0.000 F 
ATOM     25  C   UNL     1       7.333   4.979  14.503  0.00  0.00    +0.000 A 
ENDBRANCH  18  19
BRANCH  18  31
ATOM     26  C   UNL     1       5.827   7.234  16.899  0.00  0.00    +0.000 C 
ATOM     27  N   UNL     1       6.641   6.229  17.539  0.00  0.00    +0.000 N 
ATOM     28  C   UNL     1       7.487   6.501  18.584  0.00  0.00    +0.000 A 
ATOM     29  C   UNL     1       8.128   5.319  18.852  0.00  0.00    +0.000 A 
ATOM     30  N   UNL     1       7.677   4.329  18.026  0.00  0.00    +0.000 NA
ATOM     31  C   UNL     1       6.722   4.872  17.283  0.00  0.00    +0.000 A 
ENDBRANCH  18  31
ENDBRANCH   1  18
TORSDOF 6
ENDMDL
MODEL 4
REMARK VINA RESULT:      -8.3      0.862      1.509
REMARK  Name = 
REMARK  7 active torsions:
REMARK  status: ('A' for Active; 'I' for Inactive)
REMARK    1  A    between atoms: C_1  and  N_2
REMARK    2  A    between atoms: C_6  and  C_7
REMARK    3  A    between atoms: C_7  and  N_8
REMARK    4  A    between atoms: C_7  and  C_24
REMARK    5  A    between atoms: N_8  and  S_9
REMARK    6  A    between atoms: S_9  and  C_12
REMARK    7  A    between atoms: C_15  and  N_16
REMARK                            x       y       z     vdW  Elec       q    Type
REMARK                         _______ _______ _______ _____ _____    ______ ____
ROOT
ATOM      1  N   UNL     1       4.436   4.421  16.566  0.00  0.00    +0.000 NA
ATOM      2  H   UNL     1       4.006   3.866  15.827  0.00  0.00    +0.000 HD
ENDROOT
BRANCH   1   3
ATOM      3  S   UNL     1       3.910   3.861  18.079  0.00  0.00    +0.000 S 
ATOM      4  O   UNL     1       2.910   2.832  17.917  0.00  0.00    +0.000 OA
ATOM      5  O   UNL     1       5.111   3.621  18.847  0.00  0.00    +0.000 OA
BRANCH   3   6
ATOM      6  C   UNL     1       3.144   5.289  18.787  0.00  0.00    +0.000 A 
ATOM      7  C   UNL     1       2.997   6.454  18.042  0.00  0.00    +0.000 A 
ATOM      8  C   UNL     1       2.342   7.552  18.611  0.00  0.00    +0.000 A 
ATOM      9  C   UNL     1       1.853   7.512  19.925  0.00  0.00    +0.000 A 
ATOM     10  C   UNL     1       2.002   6.315  20.646  0.00  0.00    +0.000 A 
ATOM     11  C   UNL     1       2.626   5.202  20.078  0.00  0.00    +0.000 A 
BRANCH   9  12
ATOM     12  N   UNL     1       1.248   8.646  20.529  0.00  0.00    +0.000 N 
ATOM     13  C   UNL     1       1.116   8.777  21.962  0.00  0.00    +0.000 C 
ATOM     14  C   UNL     1       0.266  10.013  22.160  0.00  0.00    +0.000 C 
ATOM     15  C   UNL     1       0.578  10.863  20.945  0.00  0.00    +0.000 C 
ATOM     16  C   UNL     1       0.929   9.851  19.885  0.00  0.00    +0.000 C 
ATOM     17  O   UNL     1       0.946  10.122  18.695  0.00  0.00    +0.000 OA
ENDBRANCH   9  12
ENDBRANCH   3   6
ENDBRANCH   1   3
BRANCH   1  18
ATOM     18  C   UNL     1       5.890   4.552  16.336  0.00  0.00    +0.000 C 
BRANCH  18  19
ATOM     19  C   UNL     1       6.251   4.488  14.849  0.00  0.00    +0.000 A 
ATOM     20  C   UNL     1       5.582   3.568  14.015  0.00  0.00    +0.000 A 
ATOM     21  C   UNL     1       5.918   3.434  12.664  0.00  0.00    +0.000 A 
ATOM     22  C   UNL     1       6.931   4.218  12.120  0.00  0.00    +0.000 A 
ATOM     23  C   UNL     1       7.591   5.133  12.932  0.00  0.00    +0.000 A 
ATOM     24  F   UNL     1       8.566   5.887  12.407  0.00  0.00    +0.000 F 
ATOM     25  C   UNL     1       7.265   5.275  14.281  0.00  0.00    +0.000 A 
ENDBRANCH  18  19
BRANCH  18  31
ATOM     26  C   UNL     1       8.192   4.723  18.581  0.00  0.00    +0.000 C 
ATOM     27  N   UNL     1       7.532   5.811  17.901  0.00  0.00    +0.000 N 
ATOM     28  C   UNL     1       7.896   7.124  18.054  0.00  0.00    +0.000 A 
ATOM     29  C   UNL     1       6.990   7.842  17.317  0.00  0.00    +0.000 A 
ATOM     30  N   UNL     1       6.107   7.007  16.695  0.00  0.00    +0.000 NA
ATOM     31  C   UNL     1       6.487   5.773  16.995  0.00  0.00    +0.000 A 
ENDBRANCH  18  31
ENDBRANCH   1  18
TORSDOF 6
ENDMDL
MODEL 5
REMARK VINA RESULT:      -8.3      3.388      8.519
REMARK  Name = 
REMARK  7 active torsions:
REMARK  status: ('A' for Active; 'I' for Inactive)
REMARK    1  A    between atoms: C_1  and  N_2
REMARK    2  A    between atoms: C_6  and  C_7
REMARK    3  A    between atoms: C_7  and  N_8
REMARK    4  A    between atoms: C_7  and  C_24
REMARK    5  A    between atoms: N_8  and  S_9
REMARK    6  A    between atoms: S_9  and  C_12
REMARK    7  A    between atoms: C_15  and  N_16
REMARK                            x       y       z     vdW  Elec       q    Type
REMARK                         _______ _______ _______ _____ _____    ______ ____
ROOT
ATOM      1  N   UNL     1       3.860   5.935  19.032  0.00  0.00    +0.000 NA
ATOM      2  H   UNL     1       4.174   6.881  18.823  0.00  0.00    +0.000 HD
ENDROOT
BRANCH   1   3
ATOM      3  S   UNL     1       5.203   4.903  19.146  0.00  0.00    +0.000 S 
ATOM      4  O   UNL     1       6.270   5.541  19.880  0.00  0.00    +0.000 OA
ATOM      5  O   UNL     1       4.679   3.620  19.555  0.00  0.00    +0.000 OA
BRANCH   3   6
ATOM      6  C   UNL     1       5.706   4.720  17.461  0.00  0.00    +0.000 A 
ATOM      7  C   UNL     1       7.027   4.950  17.088  0.00  0.00    +0.000 A 
ATOM      8  C   UNL     1       7.408   4.749  15.757  0.00  0.00    +0.000 A 
ATOM      9  C   UNL     1       6.481   4.345  14.784  0.00  0.00    +0.000 A 
ATOM     10  C   UNL     1       5.159   4.104  15.195  0.00  0.00    +0.000 A 
ATOM     11  C   UNL     1       4.774   4.271  16.527  0.00  0.00    +0.000 A 
BRANCH   9  12
ATOM     12  N   UNL     1       6.849   4.205  13.419  0.00  0.00    +0.000 N 
ATOM     13  C   UNL     1       6.144   3.322  12.519  0.00  0.00    +0.000 C 
ATOM     14  C   UNL     1       6.962   3.334  11.246  0.00  0.00    +0.000 C 
ATOM     15  C   UNL     1       7.613   4.703  11.250  0.00  0.00    +0.000 C 
ATOM     16  C   UNL     1       7.737   5.031  12.715  0.00  0.00    +0.000 C 
ATOM     17  O   UNL     1       8.479   5.907  13.134  0.00  0.00    +0.000 OA
ENDBRANCH   9  12
ENDBRANCH   3   6
ENDBRANCH   1   3
BRANCH   1  18
ATOM     18  C   UNL     1       2.892   5.944  20.149  0.00  0.00    +0.000 C 
BRANCH  18  19
ATOM     19  C   UNL     1       2.012   7.198  20.143  0.00  0.00    +0.000 A 
ATOM     20  C   UNL     1       2.053   8.064  19.031  0.00  0.00    +0.000 A 
ATOM     21  C   UNL     1       1.311   9.250  19.006  0.00  0.00    +0.000 A 
ATOM     22  C   UNL     1       0.514   9.593  20.093  0.00  0.00    +0.000 A 
ATOM     23  C   UNL     1       0.461   8.743  21.191  0.00  0.00    +0.000 A 
ATOM     24  F   UNL     1      -0.307   9.073  22.238  0.00  0.00    +0.000 F 
ATOM     25  C   UNL     1       1.197   7.558  21.228  0.00  0.00    +0.000 A 
ENDBRANCH  18  19
BRANCH  18  31
ATOM     26  C   UNL     1       1.353   4.395  17.782  0.00  0.00    +0.000 C 
ATOM     27  N   UNL     1       1.473   4.007  19.166  0.00  0.00    +0.000 N 
ATOM     28  C   UNL     1       1.015   2.809  19.654  0.00  0.00    +0.000 A 
ATOM     29  C   UNL     1       1.242   2.855  21.005  0.00  0.00    +0.000 A 
ATOM     30  N   UNL     1       1.853   4.026  21.351  0.00  0.00    +0.000 NA
ATOM     31  C   UNL     1       2.056   4.688  20.220  0.00  0.00    +0.000 A 
ENDBRANCH  18  31
ENDBRANCH   1  18
TORSDOF 6
ENDMDL
MODEL 6
REMARK VINA RESULT:      -8.3      4.663      9.737
REMARK  Name = 
REMARK  7 active torsions:
REMARK  status: ('A' for Active; 'I' for Inactive)
REMARK    1  A    between atoms: C_1  and  N_2
REMARK    2  A    between atoms: C_6  and  C_7
REMARK    3  A    between atoms: C_7  and  N_8
REMARK    4  A    between atoms: C_7  and  C_24
REMARK    5  A    between atoms: N_8  and  S_9
REMARK    6  A    between atoms: S_9  and  C_12
REMARK    7  A    between atoms: C_15  and  N_16
REMARK                            x       y       z     vdW  Elec       q    Type
REMARK                         _______ _______ _______ _____ _____    ______ ____
ROOT
ATOM      1  N   UNL     1      -0.892  10.515  20.183  0.00  0.00    +0.000 NA
ATOM      2  H   UNL     1      -1.102   9.638  19.710  0.00  0.00    +0.000 HD
ENDROOT
BRANCH   1   3
ATOM      3  S   UNL     1       0.731  10.520  20.679  0.00  0.00    +0.000 S 
ATOM      4  O   UNL     1       1.399  11.713  20.214  0.00  0.00    +0.000 OA
ATOM      5  O   UNL     1       0.714  10.171  22.081  0.00  0.00    +0.000 OA
BRANCH   3   6
ATOM      6  C   UNL     1       1.409   9.125  19.828  0.00  0.00    +0.000 A 
ATOM      7  C   UNL     1       1.711   9.202  18.473  0.00  0.00    +0.000 A 
ATOM      8  C   UNL     1       2.293   8.100  17.837  0.00  0.00    +0.000 A 
ATOM      9  C   UNL     1       2.555   6.909  18.532  0.00  0.00    +0.000 A 
ATOM     10  C   UNL     1       2.254   6.868  19.904  0.00  0.00    +0.000 A 
ATOM     11  C   UNL     1       1.702   7.973  20.556  0.00  0.00    +0.000 A 
BRANCH   9  12
ATOM     12  N   UNL     1       3.083   5.766  17.875  0.00  0.00    +0.000 N 
ATOM     13  C   UNL     1       4.475   5.670  17.496  0.00  0.00    +0.000 C 
ATOM     14  C   UNL     1       4.565   4.403  16.675  0.00  0.00    +0.000 C 
ATOM     15  C   UNL     1       3.456   3.533  17.231  0.00  0.00    +0.000 C 
ATOM     16  C   UNL     1       2.439   4.529  17.723  0.00  0.00    +0.000 C 
ATOM     17  O   UNL     1       1.280   4.225  17.962  0.00  0.00    +0.000 OA
ENDBRANCH   9  12
ENDBRANCH   3   6
ENDBRANCH   1   3
BRANCH   1  18
ATOM     18  C   UNL     1      -1.382  11.663  19.390  0.00  0.00    +0.000 C 
BRANCH  18  19
ATOM     19  C   UNL     1      -2.279  11.224  18.228  0.00  0.00    +0.000 A 
ATOM     20  C   UNL     1      -1.834  10.206  17.360  0.00  0.00    +0.000 A 
ATOM     21  C   UNL     1      -2.592   9.813  16.252  0.00  0.00    +0.000 A 
ATOM     22  C   UNL     1      -3.811  10.432  15.991  0.00  0.00    +0.000 A 
ATOM     23  C   UNL     1      -4.262  11.431  16.845  0.00  0.00    +0.000 A 
ATOM     24  F   UNL     1      -5.435  12.027  16.593  0.00  0.00    +0.000 F 
ATOM     25  C   UNL     1      -3.513  11.832  17.952  0.00  0.00    +0.000 A 
ENDBRANCH  18  19
BRANCH  18  31
ATOM     26  C   UNL     1      -0.628  14.777  19.709  0.00  0.00    +0.000 C 
ATOM     27  N   UNL     1      -1.747  14.071  20.284  0.00  0.00    +0.000 N 
ATOM     28  C   UNL     1      -2.747  14.692  20.989  0.00  0.00    +0.000 A 
ATOM     29  C   UNL     1      -3.564  13.683  21.429  0.00  0.00    +0.000 A 
ATOM     30  N   UNL     1      -3.113  12.472  20.988  0.00  0.00    +0.000 NA
ATOM     31  C   UNL     1      -2.053  12.722  20.232  0.00  0.00    +0.000 A 
ENDBRANCH  18  31
ENDBRANCH   1  18
TORSDOF 6
ENDMDL
MODEL 7
REMARK VINA RESULT:      -8.3      1.225      1.640
REMARK  Name = 
REMARK  7 active torsions:
REMARK  status: ('A' for Active; 'I' for Inactive)
REMARK    1  A    between atoms: C_1  and  N_2
REMARK    2  A    between atoms: C_6  and  C_7
REMARK    3  A    between atoms: C_7  and  N_8
REMARK    4  A    between atoms: C_7  and  C_24
REMARK    5  A    between atoms: N_8  and  S_9
REMARK    6  A    between atoms: S_9  and  C_12
REMARK    7  A    between atoms: C_15  and  N_16
REMARK                            x       y       z     vdW  Elec       q    Type
REMARK                         _______ _______ _______ _____ _____    ______ ____
ROOT
ATOM      1  N   UNL     1       4.324   4.611  16.537  0.00  0.00    +0.000 NA
ATOM      2  H   UNL     1       3.899   4.045  15.804  0.00  0.00    +0.000 HD
ENDROOT
BRANCH   1   3
ATOM      3  S   UNL     1       3.689   4.160  18.045  0.00  0.00    +0.000 S 
ATOM      4  O   UNL     1       2.679   3.141  17.883  0.00  0.00    +0.000 OA
ATOM      5  O   UNL     1       4.831   3.951  18.905  0.00  0.00    +0.000 OA
BRANCH   3   6
ATOM      6  C   UNL     1       2.909   5.645  18.607  0.00  0.00    +0.000 A 
ATOM      7  C   UNL     1       2.480   5.763  19.924  0.00  0.00    +0.000 A 
ATOM      8  C   UNL     1       1.912   6.967  20.355  0.00  0.00    +0.000 A 
ATOM      9  C   UNL     1       1.742   8.050  19.478  0.00  0.00    +0.000 A 
ATOM     10  C   UNL     1       2.201   7.906  18.158  0.00  0.00    +0.000 A 
ATOM     11  C   UNL     1       2.798   6.719  17.726  0.00  0.00    +0.000 A 
BRANCH   9  12
ATOM     12  N   UNL     1       1.105   9.249  19.894  0.00  0.00    +0.000 N 
ATOM     13  C   UNL     1       1.283  10.499  19.190  0.00  0.00    +0.000 C 
ATOM     14  C   UNL     1       0.597  11.531  20.057  0.00  0.00    +0.000 C 
ATOM     15  C   UNL     1      -0.491  10.745  20.761  0.00  0.00    +0.000 C 
ATOM     16  C   UNL     1       0.075   9.351  20.840  0.00  0.00    +0.000 C 
ATOM     17  O   UNL     1      -0.368   8.503  21.599  0.00  0.00    +0.000 OA
ENDBRANCH   9  12
ENDBRANCH   3   6
ENDBRANCH   1   3
BRANCH   1  18
ATOM     18  C   UNL     1       5.793   4.644  16.381  0.00  0.00    +0.000 C 
BRANCH  18  19
ATOM     19  C   UNL     1       6.223   4.550  14.913  0.00  0.00    +0.000 A 
ATOM     20  C   UNL     1       5.510   3.705  14.038  0.00  0.00    +0.000 A 
ATOM     21  C   UNL     1       5.901   3.543  12.705  0.00  0.00    +0.000 A 
ATOM     22  C   UNL     1       7.014   4.224  12.221  0.00  0.00    +0.000 A 
ATOM     23  C   UNL     1       7.719   5.065  13.074  0.00  0.00    +0.000 A 
ATOM     24  F   UNL     1       8.791   5.720  12.607  0.00  0.00    +0.000 F 
ATOM     25  C   UNL     1       7.339   5.234  14.406  0.00  0.00    +0.000 A 
ENDBRANCH  18  19
BRANCH  18  31
ATOM     26  C   UNL     1       8.122   4.675  18.604  0.00  0.00    +0.000 C 
ATOM     27  N   UNL     1       7.491   5.803  17.963  0.00  0.00    +0.000 N 
ATOM     28  C   UNL     1       7.900   7.099  18.149  0.00  0.00    +0.000 A 
ATOM     29  C   UNL     1       7.010   7.867  17.443  0.00  0.00    +0.000 A 
ATOM     30  N   UNL     1       6.094   7.080  16.807  0.00  0.00    +0.000 NA
ATOM     31  C   UNL     1       6.437   5.826  17.067  0.00  0.00    +0.000 A 
ENDBRANCH  18  31
ENDBRANCH   1  18
TORSDOF 6
ENDMDL
MODEL 8
REMARK VINA RESULT:      -8.2      1.705      2.433
REMARK  Name = 
REMARK  7 active torsions:
REMARK  status: ('A' for Active; 'I' for Inactive)
REMARK    1  A    between atoms: C_1  and  N_2
REMARK    2  A    between atoms: C_6  and  C_7
REMARK    3  A    between atoms: C_7  and  N_8
REMARK    4  A    between atoms: C_7  and  C_24
REMARK    5  A    between atoms: N_8  and  S_9
REMARK    6  A    between atoms: S_9  and  C_12
REMARK    7  A    between atoms: C_15  and  N_16
REMARK                            x       y       z     vdW  Elec       q    Type
REMARK                         _______ _______ _______ _____ _____    ______ ____
ROOT
ATOM      1  N   UNL     1       4.244   5.907  17.207  0.00  0.00    +0.000 NA
ATOM      2  H   UNL     1       3.702   5.514  16.439  0.00  0.00    +0.000 HD
ENDROOT
BRANCH   1   3
ATOM      3  S   UNL     1       3.468   5.575  18.680  0.00  0.00    +0.000 S 
ATOM      4  O   UNL     1       2.545   4.475  18.528  0.00  0.00    +0.000 OA
ATOM      5  O   UNL     1       4.515   5.540  19.676  0.00  0.00    +0.000 OA
BRANCH   3   6
ATOM      6  C   UNL     1       2.543   7.051  18.982  0.00  0.00    +0.000 A 
ATOM      7  C   UNL     1       2.352   7.985  17.969  0.00  0.00    +0.000 A 
ATOM      8  C   UNL     1       1.573   9.120  18.222  0.00  0.00    +0.000 A 
ATOM      9  C   UNL     1       1.003   9.350  19.484  0.00  0.00    +0.000 A 
ATOM     10  C   UNL     1       1.201   8.380  20.481  0.00  0.00    +0.000 A 
ATOM     11  C   UNL     1       1.950   7.228  20.231  0.00  0.00    +0.000 A 
BRANCH   9  12
ATOM     12  N   UNL     1       0.269  10.533  19.764  0.00  0.00    +0.000 N 
ATOM     13  C   UNL     1      -1.056  10.760  19.234  0.00  0.00    +0.000 C 
ATOM     14  C   UNL     1      -1.385  12.187  19.613  0.00  0.00    +0.000 C 
ATOM     15  C   UNL     1      -0.594  12.413  20.886  0.00  0.00    +0.000 C 
ATOM     16  C   UNL     1       0.590  11.493  20.735  0.00  0.00    +0.000 C 
ATOM     17  O   UNL     1       1.603  11.607  21.407  0.00  0.00    +0.000 OA
ENDBRANCH   9  12
ENDBRANCH   3   6
ENDBRANCH   1   3
BRANCH   1  18
ATOM     18  C   UNL     1       5.671   5.543  17.074  0.00  0.00    +0.000 C 
BRANCH  18  19
ATOM     19  C   UNL     1       6.025   5.095  15.652  0.00  0.00    +0.000 A 
ATOM     20  C   UNL     1       5.190   4.170  14.993  0.00  0.00    +0.000 A 
ATOM     21  C   UNL     1       5.503   3.688  13.717  0.00  0.00    +0.000 A 
ATOM     22  C   UNL     1       6.660   4.123  13.077  0.00  0.00    +0.000 A 
ATOM     23  C   UNL     1       7.485   5.040  13.715  0.00  0.00    +0.000 A 
ATOM     24  F   UNL     1       8.599   5.459  13.098  0.00  0.00    +0.000 F 
ATOM     25  C   UNL     1       7.183   5.527  14.988  0.00  0.00    +0.000 A 
ENDBRANCH  18  19
BRANCH  18  31
ATOM     26  C   UNL     1       7.928   5.397  19.365  0.00  0.00    +0.000 C 
ATOM     27  N   UNL     1       7.619   6.504  18.493  0.00  0.00    +0.000 N 
ATOM     28  C   UNL     1       8.357   7.659  18.452  0.00  0.00    +0.000 A 
ATOM     29  C   UNL     1       7.703   8.480  17.570  0.00  0.00    +0.000 A 
ATOM     30  N   UNL     1       6.609   7.851  17.049  0.00  0.00    +0.000 NA
ATOM     31  C   UNL     1       6.607   6.626  17.557  0.00  0.00    +0.000 A 
ENDBRANCH  18  31
ENDBRANCH   1  18
TORSDOF 6
ENDMDL
MODEL 9
REMARK VINA RESULT:      -8.2      3.390      8.428
REMARK  Name = 
REMARK  7 active torsions:
REMARK  status: ('A' for Active; 'I' for Inactive)
REMARK    1  A    between atoms: C_1  and  N_2
REMARK    2  A    between atoms: C_6  and  C_7
REMARK    3  A    between atoms: C_7  and  N_8
REMARK    4  A    between atoms: C_7  and  C_24
REMARK    5  A    between atoms: N_8  and  S_9
REMARK    6  A    between atoms: S_9  and  C_12
REMARK    7  A    between atoms: C_15  and  N_16
REMARK                            x       y       z     vdW  Elec       q    Type
REMARK                         _______ _______ _______ _____ _____    ______ ____
ROOT
ATOM      1  N   UNL     1       4.182   6.060  19.230  0.00  0.00    +0.000 NA
ATOM      2  H   UNL     1       4.579   6.970  19.459  0.00  0.00    +0.000 HD
ENDROOT
BRANCH   1   3
ATOM      3  S   UNL     1       5.402   4.880  19.273  0.00  0.00    +0.000 S 
ATOM      4  O   UNL     1       6.551   5.367  19.999  0.00  0.00    +0.000 OA
ATOM      5  O   UNL     1       4.745   3.650  19.652  0.00  0.00    +0.000 OA
BRANCH   3   6
ATOM      6  C   UNL     1       5.842   4.703  17.569  0.00  0.00    +0.000 A 
ATOM      7  C   UNL     1       7.138   4.973  17.142  0.00  0.00    +0.000 A 
ATOM      8  C   UNL     1       7.471   4.776  15.798  0.00  0.00    +0.000 A 
ATOM      9  C   UNL     1       6.519   4.337  14.865  0.00  0.00    +0.000 A 
ATOM     10  C   UNL     1       5.223   4.057  15.330  0.00  0.00    +0.000 A 
ATOM     11  C   UNL     1       4.887   4.219  16.676  0.00  0.00    +0.000 A 
BRANCH   9  12
ATOM     12  N   UNL     1       6.836   4.201  13.487  0.00  0.00    +0.000 N 
ATOM     13  C   UNL     1       6.089   3.330  12.608  0.00  0.00    +0.000 C 
ATOM     14  C   UNL     1       6.861   3.341  11.307  0.00  0.00    +0.000 C 
ATOM     15  C   UNL     1       7.526   4.703  11.294  0.00  0.00    +0.000 C 
ATOM     16  C   UNL     1       7.707   5.022  12.756  0.00  0.00    +0.000 C 
ATOM     17  O   UNL     1       8.472   5.887  13.152  0.00  0.00    +0.000 OA
ENDBRANCH   9  12
ENDBRANCH   3   6
ENDBRANCH   1   3
BRANCH   1  18
ATOM     18  C   UNL     1       2.952   5.820  20.013  0.00  0.00    +0.000 C 
BRANCH  18  19
ATOM     19  C   UNL     1       2.068   7.068  20.103  0.00  0.00    +0.000 A 
ATOM     20  C   UNL     1       2.097   8.010  19.054  0.00  0.00    +0.000 A 
ATOM     21  C   UNL     1       1.351   9.192  19.119  0.00  0.00    +0.000 A 
ATOM     22  C   UNL     1       0.562   9.454  20.234  0.00  0.00    +0.000 A 
ATOM     23  C   UNL     1       0.521   8.528  21.270  0.00  0.00    +0.000 A 
ATOM     24  F   UNL     1      -0.239   8.782  22.344  0.00  0.00    +0.000 F 
ATOM     25  C   UNL     1       1.261   7.347  21.217  0.00  0.00    +0.000 A 
ENDBRANCH  18  19
BRANCH  18  31
ATOM     26  C   UNL     1       1.920   3.265  21.681  0.00  0.00    +0.000 C 
ATOM     27  N   UNL     1       1.672   3.580  20.295  0.00  0.00    +0.000 N 
ATOM     28  C   UNL     1       0.831   2.849  19.496  0.00  0.00    +0.000 A 
ATOM     29  C   UNL     1       0.928   3.412  18.250  0.00  0.00    +0.000 A 
ATOM     30  N   UNL     1       1.776   4.483  18.271  0.00  0.00    +0.000 NA
ATOM     31  C   UNL     1       2.165   4.623  19.531  0.00  0.00    +0.000 A 
ENDBRANCH  18  31
ENDBRANCH   1  18
TORSDOF 6
ENDMDL
