MODEL 1
REMARK VINA RESULT:      -8.8      0.000      0.000
REMARK  Name = 
REMARK  4 active torsions:
REMARK  status: ('A' for Active; 'I' for Inactive)
REMARK    1  A    between atoms: C_1  and  C_2
REMARK    2  A    between atoms: C_9  and  N_10
REMARK    3  A    between atoms: C_11  and  C_13
REMARK    4  A    between atoms: C_21  and  C_22
REMARK                            x       y       z     vdW  Elec       q    Type
REMARK                         _______ _______ _______ _____ _____    ______ ____
ROOT
ATOM      1  N   UNL     1       2.250   7.868  18.965  0.00  0.00    +0.000 N 
ATOM      2  C   UNL     1       2.572   6.561  19.295  0.00  0.00    +0.000 C 
ATOM      3  O   UNL     1       2.134   5.954  20.268  0.00  0.00    +0.000 OA
ATOM      4  H   UNL     1       2.597   8.184  18.067  0.00  0.00    +0.000 HD
ENDROOT
BRANCH   1  13
ATOM      5  C   UNL     1      -2.193  12.896  20.308  0.00  0.00    +0.000 C 
ATOM      6  C   UNL     1      -2.021  12.307  21.678  0.00  0.00    +0.000 C 
ATOM      7  O   UNL     1      -2.656  12.790  22.622  0.00  0.00    +0.000 OA
ATOM      8  N   UNL     1      -1.172  11.238  21.858  0.00  0.00    +0.000 N 
ATOM      9  C   UNL     1      -1.098  10.608  23.185  0.00  0.00    +0.000 C 
ATOM     10  C   UNL     1       0.002   9.551  23.138  0.00  0.00    +0.000 C 
ATOM     11  C   UNL     1       0.312   9.507  21.675  0.00  0.00    +0.000 A 
ATOM     12  C   UNL     1       1.178   8.614  21.056  0.00  0.00    +0.000 A 
ATOM     13  C   UNL     1       1.407   8.737  19.686  0.00  0.00    +0.000 A 
ATOM     14  C   UNL     1       0.780   9.777  18.982  0.00  0.00    +0.000 A 
ATOM     15  C   UNL     1      -0.107  10.665  19.619  0.00  0.00    +0.000 A 
ATOM     16  C   UNL     1      -0.346  10.519  20.973  0.00  0.00    +0.000 A 
ENDBRANCH   1  13
BRANCH   2  17
ATOM     17  C   UNL     1       3.459   5.926  18.335  0.00  0.00    +0.000 A 
ATOM     18  O   UNL     1       4.671   6.506  18.062  0.00  0.00    +0.000 OA
ATOM     19  C   UNL     1       5.294   5.721  17.144  0.00  0.00    +0.000 A 
ATOM     20  C   UNL     1       6.551   5.966  16.593  0.00  0.00    +0.000 A 
ATOM     21  C   UNL     1       7.011   5.042  15.649  0.00  0.00    +0.000 A 
ATOM     22  C   UNL     1       6.242   3.932  15.292  0.00  0.00    +0.000 A 
ATOM     23  C   UNL     1       4.984   3.710  15.868  0.00  0.00    +0.000 A 
ATOM     24  C   UNL     1       4.497   4.633  16.814  0.00  0.00    +0.000 A 
ATOM     25  C   UNL     1       3.301   4.771  17.579  0.00  0.00    +0.000 A 
ATOM     26  C   UNL     1       2.110   3.883  17.564  0.00  0.00    +0.000 C 
ENDBRANCH   2  17
TORSDOF 2
ENDMDL
MODEL 2
REMARK VINA RESULT:      -8.3      0.786      1.903
REMARK  Name = 
REMARK  4 active torsions:
REMARK  status: ('A' for Active; 'I' for Inactive)
REMARK    1  A    between atoms: C_1  and  C_2
REMARK    2  A    between atoms: C_9  and  N_10
REMARK    3  A    between atoms: C_11  and  C_13
REMARK    4  A    between atoms: C_21  and  C_22
REMARK                            x       y       z     vdW  Elec       q    Type
REMARK                         _______ _______ _______ _____ _____    ______ ____
ROOT
ATOM      1  N   UNL     1       2.066   8.112  18.448  0.00  0.00    +0.000 N 
ATOM      2  C   UNL     1       2.500   6.924  19.015  0.00  0.00    +0.000 C 
ATOM      3  O   UNL     1       2.115   6.480  20.093  0.00  0.00    +0.000 OA
ATOM      4  H   UNL     1       2.385   8.278  17.500  0.00  0.00    +0.000 HD
ENDROOT
BRANCH   1  13
ATOM      5  C   UNL     1      -1.407  11.736  23.098  0.00  0.00    +0.000 C 
ATOM      6  C   UNL     1      -1.960  12.315  21.828  0.00  0.00    +0.000 C 
ATOM      7  O   UNL     1      -2.801  13.218  21.897  0.00  0.00    +0.000 OA
ATOM      8  N   UNL     1      -1.516  11.841  20.613  0.00  0.00    +0.000 N 
ATOM      9  C   UNL     1      -1.990  12.493  19.383  0.00  0.00    +0.000 C 
ATOM     10  C   UNL     1      -1.456  11.693  18.198  0.00  0.00    +0.000 C 
ATOM     11  C   UNL     1      -0.500  10.761  18.872  0.00  0.00    +0.000 A 
ATOM     12  C   UNL     1       0.359   9.876  18.232  0.00  0.00    +0.000 A 
ATOM     13  C   UNL     1       1.151   9.027  19.003  0.00  0.00    +0.000 A 
ATOM     14  C   UNL     1       1.035   9.073  20.402  0.00  0.00    +0.000 A 
ATOM     15  C   UNL     1       0.173   9.985  21.038  0.00  0.00    +0.000 A 
ATOM     16  C   UNL     1      -0.591  10.839  20.263  0.00  0.00    +0.000 A 
ENDBRANCH   1  13
BRANCH   2  17
ATOM     17  C   UNL     1       3.439   6.195  18.180  0.00  0.00    +0.000 A 
ATOM     18  O   UNL     1       4.653   6.763  17.890  0.00  0.00    +0.000 OA
ATOM     19  C   UNL     1       5.329   5.885  17.103  0.00  0.00    +0.000 A 
ATOM     20  C   UNL     1       6.606   6.087  16.581  0.00  0.00    +0.000 A 
ATOM     21  C   UNL     1       7.122   5.064  15.778  0.00  0.00    +0.000 A 
ATOM     22  C   UNL     1       6.389   3.902  15.529  0.00  0.00    +0.000 A 
ATOM     23  C   UNL     1       5.110   3.726  16.074  0.00  0.00    +0.000 A 
ATOM     24  C   UNL     1       4.566   4.747  16.876  0.00  0.00    +0.000 A 
ATOM     25  C   UNL     1       3.334   4.953  17.567  0.00  0.00    +0.000 A 
ATOM     26  C   UNL     1       2.159   4.044  17.611  0.00  0.00    +0.000 C 
ENDBRANCH   2  17
TORSDOF 2
ENDMDL
MODEL 3
REMARK VINA RESULT:      -8.2      2.557      8.955
REMARK  Name = 
REMARK  4 active torsions:
REMARK  status: ('A' for Active; 'I' for Inactive)
REMARK    1  A    between atoms: C_1  and  C_2
REMARK    2  A    between atoms: C_9  and  N_10
REMARK    3  A    between atoms: C_11  and  C_13
REMARK    4  A    between atoms: C_21  and  C_22
REMARK                            x       y       z     vdW  Elec       q    Type
REMARK                         _______ _______ _______ _____ _____    ______ ____
ROOT
ATOM      1  N   UNL     1       1.383   8.735  20.458  0.00  0.00    +0.000 N 
ATOM      2  C   UNL     1       0.789   9.722  19.687  0.00  0.00    +0.000 C 
ATOM      3  O   UNL     1       0.467   9.593  18.510  0.00  0.00    +0.000 OA
ATOM      4  H   UNL     1       1.474   8.955  21.444  0.00  0.00    +0.000 HD
ENDROOT
BRANCH   1  13
ATOM      5  C   UNL     1       4.322   3.731  16.834  0.00  0.00    +0.000 C 
ATOM      6  C   UNL     1       3.646   2.931  17.909  0.00  0.00    +0.000 C 
ATOM      7  O   UNL     1       3.771   1.702  17.910  0.00  0.00    +0.000 OA
ATOM      8  N   UNL     1       2.910   3.578  18.877  0.00  0.00    +0.000 N 
ATOM      9  C   UNL     1       2.345   2.788  19.982  0.00  0.00    +0.000 C 
ATOM     10  C   UNL     1       1.477   3.720  20.824  0.00  0.00    +0.000 C 
ATOM     11  C   UNL     1       1.821   5.055  20.243  0.00  0.00    +0.000 A 
ATOM     12  C   UNL     1       1.392   6.285  20.725  0.00  0.00    +0.000 A 
ATOM     13  C   UNL     1       1.752   7.442  20.037  0.00  0.00    +0.000 A 
ATOM     14  C   UNL     1       2.512   7.327  18.862  0.00  0.00    +0.000 A 
ATOM     15  C   UNL     1       2.954   6.076  18.394  0.00  0.00    +0.000 A 
ATOM     16  C   UNL     1       2.611   4.936  19.098  0.00  0.00    +0.000 A 
ENDBRANCH   1  13
BRANCH   2  17
ATOM     17  C   UNL     1       0.521  10.945  20.423  0.00  0.00    +0.000 A 
ATOM     18  O   UNL     1      -0.389  10.921  21.449  0.00  0.00    +0.000 OA
ATOM     19  C   UNL     1      -0.451  12.178  21.960  0.00  0.00    +0.000 A 
ATOM     20  C   UNL     1      -1.268  12.580  23.016  0.00  0.00    +0.000 A 
ATOM     21  C   UNL     1      -1.195  13.928  23.385  0.00  0.00    +0.000 A 
ATOM     22  C   UNL     1      -0.337  14.811  22.726  0.00  0.00    +0.000 A 
ATOM     23  C   UNL     1       0.476  14.375  21.671  0.00  0.00    +0.000 A 
ATOM     24  C   UNL     1       0.412  13.025  21.277  0.00  0.00    +0.000 A 
ATOM     25  C   UNL     1       1.035  12.227  20.272  0.00  0.00    +0.000 A 
ATOM     26  C   UNL     1       2.018  12.668  19.248  0.00  0.00    +0.000 C 
ENDBRANCH   2  17
TORSDOF 2
ENDMDL
MODEL 4
REMARK VINA RESULT:      -8.1      2.188      9.006
REMARK  Name = 
REMARK  4 active torsions:
REMARK  status: ('A' for Active; 'I' for Inactive)
REMARK    1  A    between atoms: C_1  and  C_2
REMARK    2  A    between atoms: C_9  and  N_10
REMARK    3  A    between atoms: C_11  and  C_13
REMARK    4  A    between atoms: C_21  and  C_22
REMARK                            x       y       z     vdW  Elec       q    Type
REMARK                         _______ _______ _______ _____ _____    ______ ____
ROOT
ATOM      1  N   UNL     1       1.828   8.392  19.581  0.00  0.00    +0.000 N 
ATOM      2  C   UNL     1       1.025   9.393  19.058  0.00  0.00    +0.000 C 
ATOM      3  O   UNL     1       0.764   9.533  17.866  0.00  0.00    +0.000 OA
ATOM      4  H   UNL     1       1.846   8.339  20.593  0.00  0.00    +0.000 HD
ENDROOT
BRANCH   1  13
ATOM      5  C   UNL     1       6.164   5.429  15.194  0.00  0.00    +0.000 C 
ATOM      6  C   UNL     1       5.547   4.218  15.832  0.00  0.00    +0.000 C 
ATOM      7  O   UNL     1       5.927   3.096  15.479  0.00  0.00    +0.000 OA
ATOM      8  N   UNL     1       4.582   4.377  16.801  0.00  0.00    +0.000 N 
ATOM      9  C   UNL     1       4.067   3.183  17.490  0.00  0.00    +0.000 C 
ATOM     10  C   UNL     1       2.929   3.628  18.404  0.00  0.00    +0.000 C 
ATOM     11  C   UNL     1       3.052   5.117  18.332  0.00  0.00    +0.000 A 
ATOM     12  C   UNL     1       2.319   6.029  19.082  0.00  0.00    +0.000 A 
ATOM     13  C   UNL     1       2.508   7.391  18.858  0.00  0.00    +0.000 A 
ATOM     14  C   UNL     1       3.410   7.799  17.863  0.00  0.00    +0.000 A 
ATOM     15  C   UNL     1       4.158   6.866  17.122  0.00  0.00    +0.000 A 
ATOM     16  C   UNL     1       3.980   5.516  17.369  0.00  0.00    +0.000 A 
ENDBRANCH   1  13
BRANCH   2  17
ATOM     17  C   UNL     1       0.454  10.263  20.072  0.00  0.00    +0.000 A 
ATOM     18  O   UNL     1       0.591  11.621  19.941  0.00  0.00    +0.000 OA
ATOM     19  C   UNL     1      -0.024  12.192  21.009  0.00  0.00    +0.000 A 
ATOM     20  C   UNL     1      -0.104  13.561  21.257  0.00  0.00    +0.000 A 
ATOM     21  C   UNL     1      -0.771  13.948  22.425  0.00  0.00    +0.000 A 
ATOM     22  C   UNL     1      -1.330  12.999  23.284  0.00  0.00    +0.000 A 
ATOM     23  C   UNL     1      -1.238  11.629  23.004  0.00  0.00    +0.000 A 
ATOM     24  C   UNL     1      -0.563  11.217  21.839  0.00  0.00    +0.000 A 
ATOM     25  C   UNL     1      -0.243   9.964  21.236  0.00  0.00    +0.000 A 
ATOM     26  C   UNL     1      -0.563   8.606  21.749  0.00  0.00    +0.000 C 
ENDBRANCH   2  17
TORSDOF 2
ENDMDL
MODEL 5
REMARK VINA RESULT:      -8.1      1.044      1.143
REMARK  Name = 
REMARK  4 active torsions:
REMARK  status: ('A' for Active; 'I' for Inactive)
REMARK    1  A    between atoms: C_1  and  C_2
REMARK    2  A    between atoms: C_9  and  N_10
REMARK    3  A    between atoms: C_11  and  C_13
REMARK    4  A    between atoms: C_21  and  C_22
REMARK                            x       y       z     vdW  Elec       q    Type
REMARK                         _______ _______ _______ _____ _____    ______ ____
ROOT
ATOM      1  N   UNL     1       1.703   8.564  19.205  0.00  0.00    +0.000 N 
ATOM      2  C   UNL     1       2.075   7.313  19.670  0.00  0.00    +0.000 C 
ATOM      3  O   UNL     1       1.759   6.847  20.761  0.00  0.00    +0.000 OA
ATOM      4  H   UNL     1       1.940   8.752  18.237  0.00  0.00    +0.000 HD
ENDROOT
BRANCH   1  13
ATOM      5  C   UNL     1      -1.744  14.331  20.502  0.00  0.00    +0.000 C 
ATOM      6  C   UNL     1      -1.976  13.578  21.780  0.00  0.00    +0.000 C 
ATOM      7  O   UNL     1      -2.667  14.097  22.663  0.00  0.00    +0.000 OA
ATOM      8  N   UNL     1      -1.426  12.326  21.941  0.00  0.00    +0.000 N 
ATOM      9  C   UNL     1      -1.752  11.561  23.155  0.00  0.00    +0.000 C 
ATOM     10  C   UNL     1      -0.915  10.285  23.139  0.00  0.00    +0.000 C 
ATOM     11  C   UNL     1      -0.339  10.322  21.759  0.00  0.00    +0.000 A 
ATOM     12  C   UNL     1       0.422   9.319  21.170  0.00  0.00    +0.000 A 
ATOM     13  C   UNL     1       0.939   9.527  19.893  0.00  0.00    +0.000 A 
ATOM     14  C   UNL     1       0.699  10.754  19.253  0.00  0.00    +0.000 A 
ATOM     15  C   UNL     1      -0.086  11.755  19.854  0.00  0.00    +0.000 A 
ATOM     16  C   UNL     1      -0.614  11.528  21.112  0.00  0.00    +0.000 A 
ENDBRANCH   1  13
BRANCH   2  17
ATOM     17  C   UNL     1       2.853   6.549  18.710  0.00  0.00    +0.000 A 
ATOM     18  O   UNL     1       3.759   7.202  17.914  0.00  0.00    +0.000 OA
ATOM     19  C   UNL     1       4.341   6.268  17.118  0.00  0.00    +0.000 A 
ATOM     20  C   UNL     1       5.316   6.523  16.155  0.00  0.00    +0.000 A 
ATOM     21  C   UNL     1       5.780   5.422  15.427  0.00  0.00    +0.000 A 
ATOM     22  C   UNL     1       5.287   4.138  15.670  0.00  0.00    +0.000 A 
ATOM     23  C   UNL     1       4.311   3.912  16.649  0.00  0.00    +0.000 A 
ATOM     24  C   UNL     1       3.823   5.007  17.387  0.00  0.00    +0.000 A 
ATOM     25  C   UNL     1       2.849   5.192  18.413  0.00  0.00    +0.000 A 
ATOM     26  C   UNL     1       1.981   4.156  19.033  0.00  0.00    +0.000 C 
ENDBRANCH   2  17
TORSDOF 2
ENDMDL
MODEL 6
REMARK VINA RESULT:      -8.1      2.107      9.368
REMARK  Name = 
REMARK  4 active torsions:
REMARK  status: ('A' for Active; 'I' for Inactive)
REMARK    1  A    between atoms: C_1  and  C_2
REMARK    2  A    between atoms: C_9  and  N_10
REMARK    3  A    between atoms: C_11  and  C_13
REMARK    4  A    between atoms: C_21  and  C_22
REMARK                            x       y       z     vdW  Elec       q    Type
REMARK                         _______ _______ _______ _____ _____    ______ ____
ROOT
ATOM      1  N   UNL     1       0.436   9.502  20.770  0.00  0.00    +0.000 N 
ATOM      2  C   UNL     1       0.528  10.006  22.057  0.00  0.00    +0.000 C 
ATOM      3  O   UNL     1       1.331   9.626  22.904  0.00  0.00    +0.000 OA
ATOM      4  H   UNL     1      -0.194  10.004  20.154  0.00  0.00    +0.000 HD
ENDROOT
BRANCH   1  13
ATOM      5  C   UNL     1       4.689   6.157  16.581  0.00  0.00    +0.000 C 
ATOM      6  C   UNL     1       4.411   5.090  17.600  0.00  0.00    +0.000 C 
ATOM      7  O   UNL     1       4.959   3.989  17.480  0.00  0.00    +0.000 OA
ATOM      8  N   UNL     1       3.563   5.359  18.652  0.00  0.00    +0.000 N 
ATOM      9  C   UNL     1       3.387   4.338  19.698  0.00  0.00    +0.000 C 
ATOM     10  C   UNL     1       2.308   4.835  20.655  0.00  0.00    +0.000 C 
ATOM     11  C   UNL     1       2.122   6.245  20.191  0.00  0.00    +0.000 A 
ATOM     12  C   UNL     1       1.322   7.202  20.803  0.00  0.00    +0.000 A 
ATOM     13  C   UNL     1       1.205   8.460  20.214  0.00  0.00    +0.000 A 
ATOM     14  C   UNL     1       1.875   8.711  19.006  0.00  0.00    +0.000 A 
ATOM     15  C   UNL     1       2.695   7.738  18.406  0.00  0.00    +0.000 A 
ATOM     16  C   UNL     1       2.823   6.501  19.011  0.00  0.00    +0.000 A 
ENDBRANCH   1  13
BRANCH   2  17
ATOM     17  C   UNL     1      -0.399  11.094  22.318  0.00  0.00    +0.000 A 
ATOM     18  O   UNL     1      -1.516  10.852  23.075  0.00  0.00    +0.000 OA
ATOM     19  C   UNL     1      -2.203  12.021  23.163  0.00  0.00    +0.000 A 
ATOM     20  C   UNL     1      -3.407  12.201  23.843  0.00  0.00    +0.000 A 
ATOM     21  C   UNL     1      -3.963  13.483  23.802  0.00  0.00    +0.000 A 
ATOM     22  C   UNL     1      -3.329  14.523  23.118  0.00  0.00    +0.000 A 
ATOM     23  C   UNL     1      -2.116  14.313  22.449  0.00  0.00    +0.000 A 
ATOM     24  C   UNL     1      -1.543  13.027  22.469  0.00  0.00    +0.000 A 
ATOM     25  C   UNL     1      -0.377  12.422  21.911  0.00  0.00    +0.000 A 
ATOM     26  C   UNL     1       0.649  13.063  21.047  0.00  0.00    +0.000 C 
ENDBRANCH   2  17
TORSDOF 2
ENDMDL
MODEL 7
REMARK VINA RESULT:      -8.0      1.544      1.717
REMARK  Name = 
REMARK  4 active torsions:
REMARK  status: ('A' for Active; 'I' for Inactive)
REMARK    1  A    between atoms: C_1  and  C_2
REMARK    2  A    between atoms: C_9  and  N_10
REMARK    3  A    between atoms: C_11  and  C_13
REMARK    4  A    between atoms: C_21  and  C_22
REMARK                            x       y       z     vdW  Elec       q    Type
REMARK                         _______ _______ _______ _____ _____    ______ ____
ROOT
ATOM      1  N   UNL     1       1.717   8.628  18.280  0.00  0.00    +0.000 N 
ATOM      2  C   UNL     1       2.236   7.565  19.001  0.00  0.00    +0.000 C 
ATOM      3  O   UNL     1       1.945   7.296  20.162  0.00  0.00    +0.000 OA
ATOM      4  H   UNL     1       1.963   8.643  17.296  0.00  0.00    +0.000 HD
ENDROOT
BRANCH   1  13
ATOM      5  C   UNL     1      -4.092  12.159  19.064  0.00  0.00    +0.000 C 
ATOM      6  C   UNL     1      -3.213  12.849  20.067  0.00  0.00    +0.000 C 
ATOM      7  O   UNL     1      -3.682  13.773  20.739  0.00  0.00    +0.000 OA
ATOM      8  N   UNL     1      -1.909  12.435  20.227  0.00  0.00    +0.000 N 
ATOM      9  C   UNL     1      -1.096  13.050  21.288  0.00  0.00    +0.000 C 
ATOM     10  C   UNL     1       0.326  12.512  21.156  0.00  0.00    +0.000 C 
ATOM     11  C   UNL     1       0.141  11.424  20.146  0.00  0.00    +0.000 A 
ATOM     12  C   UNL     1       1.115  10.520  19.741  0.00  0.00    +0.000 A 
ATOM     13  C   UNL     1       0.805   9.597  18.743  0.00  0.00    +0.000 A 
ATOM     14  C   UNL     1      -0.472   9.629  18.159  0.00  0.00    +0.000 A 
ATOM     15  C   UNL     1      -1.454  10.539  18.591  0.00  0.00    +0.000 A 
ATOM     16  C   UNL     1      -1.143  11.435  19.598  0.00  0.00    +0.000 A 
ENDBRANCH   1  13
BRANCH   2  17
ATOM     17  C   UNL     1       3.145   6.735  18.229  0.00  0.00    +0.000 A 
ATOM     18  O   UNL     1       4.337   7.265  17.806  0.00  0.00    +0.000 OA
ATOM     19  C   UNL     1       4.987   6.291  17.116  0.00  0.00    +0.000 A 
ATOM     20  C   UNL     1       6.235   6.428  16.510  0.00  0.00    +0.000 A 
ATOM     21  C   UNL     1       6.727   5.308  15.832  0.00  0.00    +0.000 A 
ATOM     22  C   UNL     1       5.997   4.118  15.780  0.00  0.00    +0.000 A 
ATOM     23  C   UNL     1       4.747   4.010  16.403  0.00  0.00    +0.000 A 
ATOM     24  C   UNL     1       4.228   5.128  17.084  0.00  0.00    +0.000 A 
ATOM     25  C   UNL     1       3.028   5.419  17.798  0.00  0.00    +0.000 A 
ATOM     26  C   UNL     1       1.868   4.518  18.022  0.00  0.00    +0.000 C 
ENDBRANCH   2  17
TORSDOF 2
ENDMDL
MODEL 8
REMARK VINA RESULT:      -8.0      2.466      9.084
REMARK  Name = 
REMARK  4 active torsions:
REMARK  status: ('A' for Active; 'I' for Inactive)
REMARK    1  A    between atoms: C_1  and  C_2
REMARK    2  A    between atoms: C_9  and  N_10
REMARK    3  A    between atoms: C_11  and  C_13
REMARK    4  A    between atoms: C_21  and  C_22
REMARK                            x       y       z     vdW  Elec       q    Type
REMARK                         _______ _______ _______ _____ _____    ______ ____
ROOT
ATOM      1  N   UNL     1       1.520   8.637  20.315  0.00  0.00    +0.000 N 
ATOM      2  C   UNL     1       0.955   9.651  19.558  0.00  0.00    +0.000 C 
ATOM      3  O   UNL     1       0.725   9.583  18.354  0.00  0.00    +0.000 OA
ATOM      4  H   UNL     1       1.532   8.802  21.315  0.00  0.00    +0.000 HD
ENDROOT
BRANCH   1  13
ATOM      5  C   UNL     1       2.176   1.851  19.734  0.00  0.00    +0.000 C 
ATOM      6  C   UNL     1       3.052   2.310  18.604  0.00  0.00    +0.000 C 
ATOM      7  O   UNL     1       3.612   1.464  17.899  0.00  0.00    +0.000 OA
ATOM      8  N   UNL     1       3.209   3.658  18.369  0.00  0.00    +0.000 N 
ATOM      9  C   UNL     1       3.984   4.086  17.194  0.00  0.00    +0.000 C 
ATOM     10  C   UNL     1       4.110   5.606  17.249  0.00  0.00    +0.000 C 
ATOM     11  C   UNL     1       3.167   5.944  18.360  0.00  0.00    +0.000 A 
ATOM     12  C   UNL     1       2.807   7.227  18.756  0.00  0.00    +0.000 A 
ATOM     13  C   UNL     1       1.958   7.381  19.850  0.00  0.00    +0.000 A 
ATOM     14  C   UNL     1       1.517   6.238  20.536  0.00  0.00    +0.000 A 
ATOM     15  C   UNL     1       1.876   4.944  20.114  0.00  0.00    +0.000 A 
ATOM     16  C   UNL     1       2.700   4.802  19.012  0.00  0.00    +0.000 A 
ENDBRANCH   1  13
BRANCH   2  17
ATOM     17  C   UNL     1       0.596  10.822  20.339  0.00  0.00    +0.000 A 
ATOM     18  O   UNL     1      -0.317  10.693  21.354  0.00  0.00    +0.000 OA
ATOM     19  C   UNL     1      -0.470  11.921  21.915  0.00  0.00    +0.000 A 
ATOM     20  C   UNL     1      -1.320  12.222  22.978  0.00  0.00    +0.000 A 
ATOM     21  C   UNL     1      -1.345  13.555  23.401  0.00  0.00    +0.000 A 
ATOM     22  C   UNL     1      -0.547  14.522  22.785  0.00  0.00    +0.000 A 
ATOM     23  C   UNL     1       0.301  14.187  21.722  0.00  0.00    +0.000 A 
ATOM     24  C   UNL     1       0.335  12.853  21.273  0.00  0.00    +0.000 A 
ATOM     25  C   UNL     1       1.020  12.142  20.243  0.00  0.00    +0.000 A 
ATOM     26  C   UNL     1       1.976  12.691  19.247  0.00  0.00    +0.000 C 
ENDBRANCH   2  17
TORSDOF 2
ENDMDL
MODEL 9
REMARK VINA RESULT:      -8.0      1.622      2.183
REMARK  Name = 
REMARK  4 active torsions:
REMARK  status: ('A' for Active; 'I' for Inactive)
REMARK    1  A    between atoms: C_1  and  C_2
REMARK    2  A    between atoms: C_9  and  N_10
REMARK    3  A    between atoms: C_11  and  C_13
REMARK    4  A    between atoms: C_21  and  C_22
REMARK                            x       y       z     vdW  Elec       q    Type
REMARK                         _______ _______ _______ _____ _____    ______ ____
ROOT
ATOM      1  N   UNL     1       1.895   8.397  17.993  0.00  0.00    +0.000 N 
ATOM      2  C   UNL     1       2.437   7.368  18.748  0.00  0.00    +0.000 C 
ATOM      3  O   UNL     1       2.158   7.137  19.921  0.00  0.00    +0.000 OA
ATOM      4  H   UNL     1       2.134   8.380  17.008  0.00  0.00    +0.000 HD
ENDROOT
BRANCH   1  13
ATOM      5  C   UNL     1      -0.723  13.748  21.358  0.00  0.00    +0.000 C 
ATOM      6  C   UNL     1      -1.886  13.378  20.483  0.00  0.00    +0.000 C 
ATOM      7  O   UNL     1      -2.921  14.050  20.545  0.00  0.00    +0.000 OA
ATOM      8  N   UNL     1      -1.776  12.307  19.624  0.00  0.00    +0.000 N 
ATOM      9  C   UNL     1      -2.885  12.026  18.699  0.00  0.00    +0.000 C 
ATOM     10  C   UNL     1      -2.562  10.726  17.968  0.00  0.00    +0.000 C 
ATOM     11  C   UNL     1      -1.144  10.494  18.381  0.00  0.00    +0.000 A 
ATOM     12  C   UNL     1      -0.312   9.490  17.901  0.00  0.00    +0.000 A 
ATOM     13  C   UNL     1       0.972   9.368  18.429  0.00  0.00    +0.000 A 
ATOM     14  C   UNL     1       1.375  10.244  19.450  0.00  0.00    +0.000 A 
ATOM     15  C   UNL     1       0.528  11.267  19.915  0.00  0.00    +0.000 A 
ATOM     16  C   UNL     1      -0.735  11.394  19.367  0.00  0.00    +0.000 A 
ENDBRANCH   1  13
BRANCH   2  17
ATOM     17  C   UNL     1       3.352   6.524  17.999  0.00  0.00    +0.000 A 
ATOM     18  O   UNL     1       4.554   7.042  17.591  0.00  0.00    +0.000 OA
ATOM     19  C   UNL     1       5.209   6.058  16.920  0.00  0.00    +0.000 A 
ATOM     20  C   UNL     1       6.467   6.180  16.334  0.00  0.00    +0.000 A 
ATOM     21  C   UNL     1       6.963   5.050  15.675  0.00  0.00    +0.000 A 
ATOM     22  C   UNL     1       6.226   3.865  15.622  0.00  0.00    +0.000 A 
ATOM     23  C   UNL     1       4.965   3.771  16.226  0.00  0.00    +0.000 A 
ATOM     24  C   UNL     1       4.443   4.899  16.887  0.00  0.00    +0.000 A 
ATOM     25  C   UNL     1       3.233   5.206  17.579  0.00  0.00    +0.000 A 
ATOM     26  C   UNL     1       2.063   4.314  17.793  0.00  0.00    +0.000 C 
ENDBRANCH   2  17
TORSDOF 2
ENDMDL
