MODEL 1
REMARK VINA RESULT:      -8.7      0.000      0.000
REMARK  Name = 
REMARK  6 active torsions:
REMARK  status: ('A' for Active; 'I' for Inactive)
REMARK    1  A    between atoms: C_1  and  C_2
REMARK    2  A    between atoms: C_5  and  C_6
REMARK    3  A    between atoms: C_7  and  N_8
REMARK    4  A    between atoms: C_11  and  C_12
REMARK    5  A    between atoms: N_14  and  C_15
REMARK    6  A    between atoms: C_27  and  C_28
REMARK                            x       y       z     vdW  Elec       q    Type
REMARK                         _______ _______ _______ _____ _____    ______ ____
ROOT
ATOM      1  C   UNL     1       8.172   8.318  18.200  0.00  0.00    +0.000 C 
ATOM      2  O   UNL     1       8.059   8.877  17.115  0.00  0.00    +0.000 OA
ATOM      3  N   UNL     1       8.816   8.900  19.284  0.00  0.00    +0.000 N 
ATOM      4  H   UNL     1       9.190   8.305  20.013  0.00  0.00    +0.000 HD
ENDROOT
BRANCH   3   5
ATOM      5  C   UNL     1       9.264  10.247  19.272  0.00  0.00    +0.000 A 
ATOM      6  C   UNL     1       9.647  10.889  18.090  0.00  0.00    +0.000 A 
ATOM      7  C   UNL     1      10.222  12.162  18.111  0.00  0.00    +0.000 A 
ATOM      8  C   UNL     1      10.402  12.811  19.334  0.00  0.00    +0.000 A 
ATOM      9  C   UNL     1       9.944  12.227  20.515  0.00  0.00    +0.000 A 
ATOM     10  C   UNL     1       9.363  10.957  20.471  0.00  0.00    +0.000 A 
ATOM     11  F   UNL     1       8.960  10.386  21.618  0.00  0.00    +0.000 F 
ATOM     12  N   UNL     1      11.113  14.015  19.367  0.00  0.00    +0.000 N 
ATOM     13  C   UNL     1      11.555  14.673  18.246  0.00  0.00    +0.000 C 
ATOM     14  O   UNL     1      12.333  15.619  18.328  0.00  0.00    +0.000 OA
ATOM     15  C   UNL     1      10.929  14.251  16.937  0.00  0.00    +0.000 C 
ATOM     16  C   UNL     1      10.781  12.744  16.844  0.00  0.00    +0.000 C 
ATOM     17  H   UNL     1      11.431  14.393  20.250  0.00  0.00    +0.000 HD
ENDBRANCH   3   5
BRANCH   1  21
ATOM     18  N   UNL     1       6.248   5.217  18.341  0.00  0.00    +0.000 N 
ATOM     19  N   UNL     1       7.381   4.779  18.950  0.00  0.00    +0.000 NA
ATOM     20  C   UNL     1       8.212   5.818  18.942  0.00  0.00    +0.000 A 
ATOM     21  C   UNL     1       7.643   6.972  18.380  0.00  0.00    +0.000 A 
ATOM     22  C   UNL     1       6.347   6.576  18.045  0.00  0.00    +0.000 A 
ATOM     23  C   UNL     1       5.201   7.411  17.570  0.00  0.00    +0.000 C 
BRANCH  18  30
ATOM     24  C   UNL     1       2.541   2.571  20.278  0.00  0.00    +0.000 C 
ATOM     25  C   UNL     1       3.314   3.003  19.067  0.00  0.00    +0.000 A 
ATOM     26  C   UNL     1       3.063   2.459  17.811  0.00  0.00    +0.000 A 
ATOM     27  C   UNL     1       3.811   2.872  16.706  0.00  0.00    +0.000 A 
ATOM     28  C   UNL     1       4.859   3.807  16.830  0.00  0.00    +0.000 A 
ATOM     29  C   UNL     1       5.651   4.131  15.592  0.00  0.00    +0.000 C 
ATOM     30  C   UNL     1       5.142   4.336  18.107  0.00  0.00    +0.000 A 
ATOM     31  C   UNL     1       4.330   3.959  19.195  0.00  0.00    +0.000 A 
ENDBRANCH  18  30
ENDBRANCH   1  21
TORSDOF 3
ENDMDL
MODEL 2
REMARK VINA RESULT:      -8.7      7.491      9.184
REMARK  Name = 
REMARK  6 active torsions:
REMARK  status: ('A' for Active; 'I' for Inactive)
REMARK    1  A    between atoms: C_1  and  C_2
REMARK    2  A    between atoms: C_5  and  C_6
REMARK    3  A    between atoms: C_7  and  N_8
REMARK    4  A    between atoms: C_11  and  C_12
REMARK    5  A    between atoms: N_14  and  C_15
REMARK    6  A    between atoms: C_27  and  C_28
REMARK                            x       y       z     vdW  Elec       q    Type
REMARK                         _______ _______ _______ _____ _____    ______ ____
ROOT
ATOM      1  C   UNL     1       0.765   9.292  20.279  0.00  0.00    +0.000 C 
ATOM      2  O   UNL     1       0.093   9.723  19.348  0.00  0.00    +0.000 OA
ATOM      3  N   UNL     1       0.929   9.981  21.473  0.00  0.00    +0.000 N 
ATOM      4  H   UNL     1       1.736   9.783  22.050  0.00  0.00    +0.000 HD
ENDROOT
BRANCH   3   5
ATOM      5  C   UNL     1       0.209  11.167  21.774  0.00  0.00    +0.000 A 
ATOM      6  C   UNL     1      -0.926  11.156  22.592  0.00  0.00    +0.000 A 
ATOM      7  C   UNL     1      -1.707  12.303  22.761  0.00  0.00    +0.000 A 
ATOM      8  C   UNL     1      -1.337  13.483  22.115  0.00  0.00    +0.000 A 
ATOM      9  C   UNL     1      -0.160  13.540  21.369  0.00  0.00    +0.000 A 
ATOM     10  C   UNL     1       0.612  12.385  21.220  0.00  0.00    +0.000 A 
ATOM     11  F   UNL     1       1.724  12.438  20.469  0.00  0.00    +0.000 F 
ATOM     12  N   UNL     1      -2.200  14.584  22.164  0.00  0.00    +0.000 N 
ATOM     13  C   UNL     1      -3.351  14.620  22.910  0.00  0.00    +0.000 C 
ATOM     14  O   UNL     1      -4.169  15.526  22.775  0.00  0.00    +0.000 OA
ATOM     15  C   UNL     1      -3.480  13.566  23.985  0.00  0.00    +0.000 C 
ATOM     16  C   UNL     1      -3.011  12.208  23.501  0.00  0.00    +0.000 C 
ATOM     17  H   UNL     1      -2.056  15.369  21.542  0.00  0.00    +0.000 HD
ENDBRANCH   3   5
BRANCH   1  21
ATOM     18  N   UNL     1       2.752   6.385  19.311  0.00  0.00    +0.000 N 
ATOM     19  N   UNL     1       2.225   5.894  20.463  0.00  0.00    +0.000 NA
ATOM     20  C   UNL     1       1.484   6.880  20.962  0.00  0.00    +0.000 A 
ATOM     21  C   UNL     1       1.459   8.019  20.141  0.00  0.00    +0.000 A 
ATOM     22  C   UNL     1       2.247   7.656  19.046  0.00  0.00    +0.000 A 
ATOM     23  C   UNL     1       2.457   8.385  17.757  0.00  0.00    +0.000 C 
BRANCH  18  30
ATOM     24  C   UNL     1       7.423   5.711  17.820  0.00  0.00    +0.000 C 
ATOM     25  C   UNL     1       5.985   5.289  17.766  0.00  0.00    +0.000 A 
ATOM     26  C   UNL     1       5.549   4.301  16.888  0.00  0.00    +0.000 A 
ATOM     27  C   UNL     1       4.199   3.941  16.853  0.00  0.00    +0.000 A 
ATOM     28  C   UNL     1       3.240   4.585  17.660  0.00  0.00    +0.000 A 
ATOM     29  C   UNL     1       1.802   4.174  17.494  0.00  0.00    +0.000 C 
ATOM     30  C   UNL     1       3.671   5.612  18.527  0.00  0.00    +0.000 A 
ATOM     31  C   UNL     1       5.045   5.911  18.598  0.00  0.00    +0.000 A 
ENDBRANCH  18  30
ENDBRANCH   1  21
TORSDOF 3
ENDMDL
MODEL 3
REMARK VINA RESULT:      -8.6      6.760      7.934
REMARK  Name = 
REMARK  6 active torsions:
REMARK  status: ('A' for Active; 'I' for Inactive)
REMARK    1  A    between atoms: C_1  and  C_2
REMARK    2  A    between atoms: C_5  and  C_6
REMARK    3  A    between atoms: C_7  and  N_8
REMARK    4  A    between atoms: C_11  and  C_12
REMARK    5  A    between atoms: N_14  and  C_15
REMARK    6  A    between atoms: C_27  and  C_28
REMARK                            x       y       z     vdW  Elec       q    Type
REMARK                         _______ _______ _______ _____ _____    ______ ____
ROOT
ATOM      1  C   UNL     1       1.079   9.426  20.209  0.00  0.00    +0.000 C 
ATOM      2  O   UNL     1       0.963   9.960  21.307  0.00  0.00    +0.000 OA
ATOM      3  N   UNL     1       0.696  10.044  19.027  0.00  0.00    +0.000 N 
ATOM      4  H   UNL     1       0.479   9.473  18.220  0.00  0.00    +0.000 HD
ENDROOT
BRANCH   3   5
ATOM      5  C   UNL     1       0.280  11.401  18.974  0.00  0.00    +0.000 A 
ATOM      6  C   UNL     1       1.197  12.450  18.847  0.00  0.00    +0.000 A 
ATOM      7  C   UNL     1       0.788  13.783  18.943  0.00  0.00    +0.000 A 
ATOM      8  C   UNL     1      -0.560  14.071  19.154  0.00  0.00    +0.000 A 
ATOM      9  C   UNL     1      -1.503  13.043  19.193  0.00  0.00    +0.000 A 
ATOM     10  C   UNL     1      -1.075  11.718  19.085  0.00  0.00    +0.000 A 
ATOM     11  F   UNL     1      -1.984  10.733  19.162  0.00  0.00    +0.000 F 
ATOM     12  N   UNL     1      -0.943  15.394  19.401  0.00  0.00    +0.000 N 
ATOM     13  C   UNL     1      -0.084  16.463  19.336  0.00  0.00    +0.000 C 
ATOM     14  O   UNL     1      -0.417  17.573  19.743  0.00  0.00    +0.000 OA
ATOM     15  C   UNL     1       1.225  16.221  18.621  0.00  0.00    +0.000 C 
ATOM     16  C   UNL     1       1.821  14.873  18.978  0.00  0.00    +0.000 C 
ATOM     17  H   UNL     1      -1.868  15.598  19.756  0.00  0.00    +0.000 HD
ENDBRANCH   3   5
BRANCH   1  21
ATOM     18  N   UNL     1       2.701   6.268  19.351  0.00  0.00    +0.000 N 
ATOM     19  N   UNL     1       2.099   5.878  20.505  0.00  0.00    +0.000 NA
ATOM     20  C   UNL     1       1.479   6.963  20.965  0.00  0.00    +0.000 A 
ATOM     21  C   UNL     1       1.610   8.073  20.116  0.00  0.00    +0.000 A 
ATOM     22  C   UNL     1       2.363   7.586  19.046  0.00  0.00    +0.000 A 
ATOM     23  C   UNL     1       2.682   8.247  17.743  0.00  0.00    +0.000 C 
BRANCH  18  30
ATOM     24  C   UNL     1       7.277   4.950  18.002  0.00  0.00    +0.000 C 
ATOM     25  C   UNL     1       5.796   4.723  17.912  0.00  0.00    +0.000 A 
ATOM     26  C   UNL     1       5.255   3.788  17.036  0.00  0.00    +0.000 A 
ATOM     27  C   UNL     1       3.870   3.612  16.967  0.00  0.00    +0.000 A 
ATOM     28  C   UNL     1       2.985   4.392  17.739  0.00  0.00    +0.000 A 
ATOM     29  C   UNL     1       1.510   4.174  17.538  0.00  0.00    +0.000 C 
ATOM     30  C   UNL     1       3.528   5.367  18.603  0.00  0.00    +0.000 A 
ATOM     31  C   UNL     1       4.928   5.480  18.709  0.00  0.00    +0.000 A 
ENDBRANCH  18  30
ENDBRANCH   1  21
TORSDOF 3
ENDMDL
MODEL 4
REMARK VINA RESULT:      -8.5      8.058     11.488
REMARK  Name = 
REMARK  6 active torsions:
REMARK  status: ('A' for Active; 'I' for Inactive)
REMARK    1  A    between atoms: C_1  and  C_2
REMARK    2  A    between atoms: C_5  and  C_6
REMARK    3  A    between atoms: C_7  and  N_8
REMARK    4  A    between atoms: C_11  and  C_12
REMARK    5  A    between atoms: N_14  and  C_15
REMARK    6  A    between atoms: C_27  and  C_28
REMARK                            x       y       z     vdW  Elec       q    Type
REMARK                         _______ _______ _______ _____ _____    ______ ____
ROOT
ATOM      1  C   UNL     1       1.158   9.412  20.953  0.00  0.00    +0.000 C 
ATOM      2  O   UNL     1       1.547   8.881  21.988  0.00  0.00    +0.000 OA
ATOM      3  N   UNL     1       1.382   8.865  19.696  0.00  0.00    +0.000 N 
ATOM      4  H   UNL     1       1.369   9.471  18.886  0.00  0.00    +0.000 HD
ENDROOT
BRANCH   3   5
ATOM      5  C   UNL     1       1.945   7.574  19.514  0.00  0.00    +0.000 A 
ATOM      6  C   UNL     1       1.691   6.525  20.404  0.00  0.00    +0.000 A 
ATOM      7  C   UNL     1       2.364   5.306  20.296  0.00  0.00    +0.000 A 
ATOM      8  C   UNL     1       3.295   5.127  19.272  0.00  0.00    +0.000 A 
ATOM      9  C   UNL     1       3.497   6.128  18.321  0.00  0.00    +0.000 A 
ATOM     10  C   UNL     1       2.807   7.336  18.441  0.00  0.00    +0.000 A 
ATOM     11  F   UNL     1       3.035   8.308  17.544  0.00  0.00    +0.000 F 
ATOM     12  N   UNL     1       4.076   3.966  19.257  0.00  0.00    +0.000 N 
ATOM     13  C   UNL     1       3.907   2.920  20.130  0.00  0.00    +0.000 C 
ATOM     14  O   UNL     1       4.730   2.012  20.202  0.00  0.00    +0.000 OA
ATOM     15  C   UNL     1       2.598   2.889  20.885  0.00  0.00    +0.000 C 
ATOM     16  C   UNL     1       2.196   4.269  21.370  0.00  0.00    +0.000 C 
ATOM     17  H   UNL     1       4.888   3.908  18.656  0.00  0.00    +0.000 HD
ENDBRANCH   3   5
BRANCH   1  21
ATOM     18  N   UNL     1      -0.856  12.356  21.736  0.00  0.00    +0.000 N 
ATOM     19  N   UNL     1      -0.384  12.752  20.525  0.00  0.00    +0.000 NA
ATOM     20  C   UNL     1       0.415  11.768  20.118  0.00  0.00    +0.000 A 
ATOM     21  C   UNL     1       0.455  10.686  21.012  0.00  0.00    +0.000 A 
ATOM     22  C   UNL     1      -0.420  11.065  22.032  0.00  0.00    +0.000 A 
ATOM     23  C   UNL     1      -0.931  10.256  23.181  0.00  0.00    +0.000 C 
BRANCH  18  30
ATOM     24  C   UNL     1      -1.265  15.466  25.564  0.00  0.00    +0.000 C 
ATOM     25  C   UNL     1      -1.919  14.733  24.429  0.00  0.00    +0.000 A 
ATOM     26  C   UNL     1      -3.297  14.764  24.241  0.00  0.00    +0.000 A 
ATOM     27  C   UNL     1      -3.875  14.059  23.182  0.00  0.00    +0.000 A 
ATOM     28  C   UNL     1      -3.101  13.270  22.308  0.00  0.00    +0.000 A 
ATOM     29  C   UNL     1      -3.828  12.492  21.244  0.00  0.00    +0.000 C 
ATOM     30  C   UNL     1      -1.706  13.207  22.516  0.00  0.00    +0.000 A 
ATOM     31  C   UNL     1      -1.136  13.980  23.545  0.00  0.00    +0.000 A 
ENDBRANCH  18  30
ENDBRANCH   1  21
TORSDOF 3
ENDMDL
MODEL 5
REMARK VINA RESULT:      -8.5      7.024     10.157
REMARK  Name = 
REMARK  6 active torsions:
REMARK  status: ('A' for Active; 'I' for Inactive)
REMARK    1  A    between atoms: C_1  and  C_2
REMARK    2  A    between atoms: C_5  and  C_6
REMARK    3  A    between atoms: C_7  and  N_8
REMARK    4  A    between atoms: C_11  and  C_12
REMARK    5  A    between atoms: N_14  and  C_15
REMARK    6  A    between atoms: C_27  and  C_28
REMARK                            x       y       z     vdW  Elec       q    Type
REMARK                         _______ _______ _______ _____ _____    ______ ____
ROOT
ATOM      1  C   UNL     1       1.693   8.225  19.958  0.00  0.00    +0.000 C 
ATOM      2  O   UNL     1       1.604   8.604  18.795  0.00  0.00    +0.000 OA
ATOM      3  N   UNL     1       2.248   7.002  20.312  0.00  0.00    +0.000 N 
ATOM      4  H   UNL     1       1.994   6.583  21.197  0.00  0.00    +0.000 HD
ENDROOT
BRANCH   3   5
ATOM      5  C   UNL     1       2.896   6.158  19.373  0.00  0.00    +0.000 A 
ATOM      6  C   UNL     1       4.135   6.488  18.813  0.00  0.00    +0.000 A 
ATOM      7  C   UNL     1       4.691   5.723  17.784  0.00  0.00    +0.000 A 
ATOM      8  C   UNL     1       4.004   4.601  17.318  0.00  0.00    +0.000 A 
ATOM      9  C   UNL     1       2.811   4.203  17.924  0.00  0.00    +0.000 A 
ATOM     10  C   UNL     1       2.277   4.976  18.958  0.00  0.00    +0.000 A 
ATOM     11  F   UNL     1       1.110   4.608  19.509  0.00  0.00    +0.000 F 
ATOM     12  N   UNL     1       4.486   3.927  16.191  0.00  0.00    +0.000 N 
ATOM     13  C   UNL     1       5.671   4.230  15.568  0.00  0.00    +0.000 C 
ATOM     14  O   UNL     1       5.960   3.743  14.479  0.00  0.00    +0.000 OA
ATOM     15  C   UNL     1       6.639   5.080  16.358  0.00  0.00    +0.000 C 
ATOM     16  C   UNL     1       5.932   6.205  17.090  0.00  0.00    +0.000 C 
ATOM     17  H   UNL     1       3.904   3.249  15.717  0.00  0.00    +0.000 HD
ENDBRANCH   3   5
BRANCH   1  21
ATOM     18  N   UNL     1       0.073  10.688  22.114  0.00  0.00    +0.000 N 
ATOM     19  N   UNL     1       0.726   9.981  23.072  0.00  0.00    +0.000 NA
ATOM     20  C   UNL     1       1.352   9.001  22.424  0.00  0.00    +0.000 A 
ATOM     21  C   UNL     1       1.174   9.060  21.033  0.00  0.00    +0.000 A 
ATOM     22  C   UNL     1       0.383  10.196  20.847  0.00  0.00    +0.000 A 
ATOM     23  C   UNL     1       0.003  10.878  19.572  0.00  0.00    +0.000 C 
BRANCH  18  30
ATOM     24  C   UNL     1      -4.237  12.213  24.011  0.00  0.00    +0.000 C 
ATOM     25  C   UNL     1      -2.921  12.555  23.374  0.00  0.00    +0.000 A 
ATOM     26  C   UNL     1      -2.610  13.858  23.000  0.00  0.00    +0.000 A 
ATOM     27  C   UNL     1      -1.382  14.140  22.396  0.00  0.00    +0.000 A 
ATOM     28  C   UNL     1      -0.448  13.123  22.109  0.00  0.00    +0.000 A 
ATOM     29  C   UNL     1       0.813  13.520  21.392  0.00  0.00    +0.000 C 
ATOM     30  C   UNL     1      -0.774  11.794  22.454  0.00  0.00    +0.000 A 
ATOM     31  C   UNL     1      -1.986  11.542  23.125  0.00  0.00    +0.000 A 
ENDBRANCH  18  30
ENDBRANCH   1  21
TORSDOF 3
ENDMDL
MODEL 6
REMARK VINA RESULT:      -8.4      6.841     11.403
REMARK  Name = 
REMARK  6 active torsions:
REMARK  status: ('A' for Active; 'I' for Inactive)
REMARK    1  A    between atoms: C_1  and  C_2
REMARK    2  A    between atoms: C_5  and  C_6
REMARK    3  A    between atoms: C_7  and  N_8
REMARK    4  A    between atoms: C_11  and  C_12
REMARK    5  A    between atoms: N_14  and  C_15
REMARK    6  A    between atoms: C_27  and  C_28
REMARK                            x       y       z     vdW  Elec       q    Type
REMARK                         _______ _______ _______ _____ _____    ______ ____
ROOT
ATOM      1  C   UNL     1       0.838   9.736  19.704  0.00  0.00    +0.000 C 
ATOM      2  O   UNL     1       0.062   9.407  18.813  0.00  0.00    +0.000 OA
ATOM      3  N   UNL     1       1.749   8.856  20.273  0.00  0.00    +0.000 N 
ATOM      4  H   UNL     1       2.105   9.047  21.201  0.00  0.00    +0.000 HD
ENDROOT
BRANCH   3   5
ATOM      5  C   UNL     1       1.965   7.548  19.767  0.00  0.00    +0.000 A 
ATOM      6  C   UNL     1       1.583   6.406  20.481  0.00  0.00    +0.000 A 
ATOM      7  C   UNL     1       1.931   5.127  20.040  0.00  0.00    +0.000 A 
ATOM      8  C   UNL     1       2.659   4.986  18.858  0.00  0.00    +0.000 A 
ATOM      9  C   UNL     1       2.970   6.104  18.084  0.00  0.00    +0.000 A 
ATOM     10  C   UNL     1       2.605   7.374  18.537  0.00  0.00    +0.000 A 
ATOM     11  F   UNL     1       2.942   8.448  17.806  0.00  0.00    +0.000 F 
ATOM     12  N   UNL     1       3.135   3.720  18.499  0.00  0.00    +0.000 N 
ATOM     13  C   UNL     1       2.835   2.568  19.183  0.00  0.00    +0.000 C 
ATOM     14  O   UNL     1       3.424   1.517  18.948  0.00  0.00    +0.000 OA
ATOM     15  C   UNL     1       1.662   2.645  20.132  0.00  0.00    +0.000 C 
ATOM     16  C   UNL     1       1.659   3.941  20.921  0.00  0.00    +0.000 C 
ATOM     17  H   UNL     1       3.829   3.627  17.768  0.00  0.00    +0.000 HD
ENDBRANCH   3   5
BRANCH   1  21
ATOM     18  N   UNL     1       1.084  13.312  20.401  0.00  0.00    +0.000 N 
ATOM     19  N   UNL     1       0.489  12.923  21.558  0.00  0.00    +0.000 NA
ATOM     20  C   UNL     1       0.299  11.611  21.434  0.00  0.00    +0.000 A 
ATOM     21  C   UNL     1       0.801  11.094  20.230  0.00  0.00    +0.000 A 
ATOM     22  C   UNL     1       1.356  12.208  19.596  0.00  0.00    +0.000 A 
ATOM     23  C   UNL     1       2.194  12.264  18.358  0.00  0.00    +0.000 C 
BRANCH  18  30
ATOM     24  C   UNL     1      -0.193  17.497  18.088  0.00  0.00    +0.000 C 
ATOM     25  C   UNL     1       0.764  16.765  18.982  0.00  0.00    +0.000 A 
ATOM     26  C   UNL     1       1.949  17.352  19.415  0.00  0.00    +0.000 A 
ATOM     27  C   UNL     1       2.825  16.637  20.235  0.00  0.00    +0.000 A 
ATOM     28  C   UNL     1       2.565  15.303  20.612  0.00  0.00    +0.000 A 
ATOM     29  C   UNL     1       3.607  14.598  21.438  0.00  0.00    +0.000 C 
ATOM     30  C   UNL     1       1.381  14.692  20.147  0.00  0.00    +0.000 A 
ATOM     31  C   UNL     1       0.478  15.453  19.379  0.00  0.00    +0.000 A 
ENDBRANCH  18  30
ENDBRANCH   1  21
TORSDOF 3
ENDMDL
MODEL 7
REMARK VINA RESULT:      -8.4      7.878     11.342
REMARK  Name = 
REMARK  6 active torsions:
REMARK  status: ('A' for Active; 'I' for Inactive)
REMARK    1  A    between atoms: C_1  and  C_2
REMARK    2  A    between atoms: C_5  and  C_6
REMARK    3  A    between atoms: C_7  and  N_8
REMARK    4  A    between atoms: C_11  and  C_12
REMARK    5  A    between atoms: N_14  and  C_15
REMARK    6  A    between atoms: C_27  and  C_28
REMARK                            x       y       z     vdW  Elec       q    Type
REMARK                         _______ _______ _______ _____ _____    ______ ____
ROOT
ATOM      1  C   UNL     1       1.214   8.930  20.930  0.00  0.00    +0.000 C 
ATOM      2  O   UNL     1       1.699   8.487  21.966  0.00  0.00    +0.000 OA
ATOM      3  N   UNL     1       1.412   8.336  19.691  0.00  0.00    +0.000 N 
ATOM      4  H   UNL     1       1.306   8.895  18.854  0.00  0.00    +0.000 HD
ENDROOT
BRANCH   3   5
ATOM      5  C   UNL     1       2.065   7.085  19.540  0.00  0.00    +0.000 A 
ATOM      6  C   UNL     1       1.788   6.000  20.379  0.00  0.00    +0.000 A 
ATOM      7  C   UNL     1       2.539   4.824  20.313  0.00  0.00    +0.000 A 
ATOM      8  C   UNL     1       3.574   4.725  19.383  0.00  0.00    +0.000 A 
ATOM      9  C   UNL     1       3.808   5.760  18.476  0.00  0.00    +0.000 A 
ATOM     10  C   UNL     1       3.039   6.923  18.552  0.00  0.00    +0.000 A 
ATOM     11  F   UNL     1       3.296   7.930  17.701  0.00  0.00    +0.000 F 
ATOM     12  N   UNL     1       4.420   3.611  19.421  0.00  0.00    +0.000 N 
ATOM     13  C   UNL     1       4.229   2.535  20.252  0.00  0.00    +0.000 C 
ATOM     14  O   UNL     1       5.094   1.674  20.387  0.00  0.00    +0.000 OA
ATOM     15  C   UNL     1       2.858   2.411  20.875  0.00  0.00    +0.000 C 
ATOM     16  C   UNL     1       2.329   3.752  21.345  0.00  0.00    +0.000 C 
ATOM     17  H   UNL     1       5.289   3.614  18.902  0.00  0.00    +0.000 HD
ENDBRANCH   3   5
BRANCH   1  21
ATOM     18  N   UNL     1      -0.885  11.811  21.725  0.00  0.00    +0.000 N 
ATOM     19  N   UNL     1      -0.697  12.058  20.403  0.00  0.00    +0.000 NA
ATOM     20  C   UNL     1       0.099  11.083  19.970  0.00  0.00    +0.000 A 
ATOM     21  C   UNL     1       0.415  10.148  20.969  0.00  0.00    +0.000 A 
ATOM     22  C   UNL     1      -0.278  10.610  22.089  0.00  0.00    +0.000 A 
ATOM     23  C   UNL     1      -0.476   9.943  23.413  0.00  0.00    +0.000 C 
BRANCH  18  30
ATOM     24  C   UNL     1      -5.114  12.669  24.151  0.00  0.00    +0.000 C 
ATOM     25  C   UNL     1      -3.753  13.145  23.734  0.00  0.00    +0.000 A 
ATOM     26  C   UNL     1      -3.321  14.440  24.005  0.00  0.00    +0.000 A 
ATOM     27  C   UNL     1      -2.053  14.856  23.589  0.00  0.00    +0.000 A 
ATOM     28  C   UNL     1      -1.199  14.008  22.856  0.00  0.00    +0.000 A 
ATOM     29  C   UNL     1       0.115  14.576  22.393  0.00  0.00    +0.000 C 
ATOM     30  C   UNL     1      -1.647  12.706  22.547  0.00  0.00    +0.000 A 
ATOM     31  C   UNL     1      -2.899  12.283  23.035  0.00  0.00    +0.000 A 
ENDBRANCH  18  30
ENDBRANCH   1  21
TORSDOF 3
ENDMDL
MODEL 8
REMARK VINA RESULT:      -8.4      6.971     10.890
REMARK  Name = 
REMARK  6 active torsions:
REMARK  status: ('A' for Active; 'I' for Inactive)
REMARK    1  A    between atoms: C_1  and  C_2
REMARK    2  A    between atoms: C_5  and  C_6
REMARK    3  A    between atoms: C_7  and  N_8
REMARK    4  A    between atoms: C_11  and  C_12
REMARK    5  A    between atoms: N_14  and  C_15
REMARK    6  A    between atoms: C_27  and  C_28
REMARK                            x       y       z     vdW  Elec       q    Type
REMARK                         _______ _______ _______ _____ _____    ______ ____
ROOT
ATOM      1  C   UNL     1       1.772   8.575  19.404  0.00  0.00    +0.000 C 
ATOM      2  O   UNL     1       1.956   7.965  20.452  0.00  0.00    +0.000 OA
ATOM      3  N   UNL     1       2.163   8.082  18.166  0.00  0.00    +0.000 N 
ATOM      4  H   UNL     1       2.316   8.729  17.404  0.00  0.00    +0.000 HD
ENDROOT
BRANCH   3   5
ATOM      5  C   UNL     1       2.671   6.767  17.995  0.00  0.00    +0.000 A 
ATOM      6  C   UNL     1       1.862   5.636  18.147  0.00  0.00    +0.000 A 
ATOM      7  C   UNL     1       2.405   4.349  18.119  0.00  0.00    +0.000 A 
ATOM      8  C   UNL     1       3.777   4.190  17.920  0.00  0.00    +0.000 A 
ATOM      9  C   UNL     1       4.587   5.299  17.675  0.00  0.00    +0.000 A 
ATOM     10  C   UNL     1       4.022   6.577  17.698  0.00  0.00    +0.000 A 
ATOM     11  F   UNL     1       4.816   7.642  17.499  0.00  0.00    +0.000 F 
ATOM     12  N   UNL     1       4.339   2.915  18.044  0.00  0.00    +0.000 N 
ATOM     13  C   UNL     1       3.605   1.772  18.239  0.00  0.00    +0.000 C 
ATOM     14  O   UNL     1       4.147   0.709  18.530  0.00  0.00    +0.000 OA
ATOM     15  C   UNL     1       2.126   1.873  17.946  0.00  0.00    +0.000 C 
ATOM     16  C   UNL     1       1.538   3.171  18.462  0.00  0.00    +0.000 C 
ATOM     17  H   UNL     1       5.343   2.806  18.108  0.00  0.00    +0.000 HD
ENDBRANCH   3   5
BRANCH   1  21
ATOM     18  N   UNL     1      -0.196  11.590  20.018  0.00  0.00    +0.000 N 
ATOM     19  N   UNL     1       0.545  12.042  18.973  0.00  0.00    +0.000 NA
ATOM     20  C   UNL     1       1.356  11.037  18.652  0.00  0.00    +0.000 A 
ATOM     21  C   UNL     1       1.144   9.889  19.433  0.00  0.00    +0.000 A 
ATOM     22  C   UNL     1       0.094  10.252  20.278  0.00  0.00    +0.000 A 
ATOM     23  C   UNL     1      -0.694   9.396  21.218  0.00  0.00    +0.000 C 
BRANCH  18  30
ATOM     24  C   UNL     1      -1.202  14.493  23.898  0.00  0.00    +0.000 C 
ATOM     25  C   UNL     1      -1.656  13.862  22.615  0.00  0.00    +0.000 A 
ATOM     26  C   UNL     1      -2.971  13.975  22.173  0.00  0.00    +0.000 A 
ATOM     27  C   UNL     1      -3.364  13.363  20.981  0.00  0.00    +0.000 A 
ATOM     28  C   UNL     1      -2.470  12.586  20.217  0.00  0.00    +0.000 A 
ATOM     29  C   UNL     1      -3.012  11.910  18.987  0.00  0.00    +0.000 C 
ATOM     30  C   UNL     1      -1.144  12.438  20.679  0.00  0.00    +0.000 A 
ATOM     31  C   UNL     1      -0.750  13.121  21.846  0.00  0.00    +0.000 A 
ENDBRANCH  18  30
ENDBRANCH   1  21
TORSDOF 3
ENDMDL
MODEL 9
REMARK VINA RESULT:      -8.4      7.263      8.437
REMARK  Name = 
REMARK  6 active torsions:
REMARK  status: ('A' for Active; 'I' for Inactive)
REMARK    1  A    between atoms: C_1  and  C_2
REMARK    2  A    between atoms: C_5  and  C_6
REMARK    3  A    between atoms: C_7  and  N_8
REMARK    4  A    between atoms: C_11  and  C_12
REMARK    5  A    between atoms: N_14  and  C_15
REMARK    6  A    between atoms: C_27  and  C_28
REMARK                            x       y       z     vdW  Elec       q    Type
REMARK                         _______ _______ _______ _____ _____    ______ ____
ROOT
ATOM      1  C   UNL     1       0.849   9.261  20.289  0.00  0.00    +0.000 C 
ATOM      2  O   UNL     1       0.220   9.712  19.337  0.00  0.00    +0.000 OA
ATOM      3  N   UNL     1       0.996   9.945  21.488  0.00  0.00    +0.000 N 
ATOM      4  H   UNL     1       1.777   9.722  22.090  0.00  0.00    +0.000 HD
ENDROOT
BRANCH   3   5
ATOM      5  C   UNL     1       0.305  11.154  21.766  0.00  0.00    +0.000 A 
ATOM      6  C   UNL     1       0.682  12.371  21.188  0.00  0.00    +0.000 A 
ATOM      7  C   UNL     1       0.088  13.573  21.581  0.00  0.00    +0.000 A 
ATOM      8  C   UNL     1      -0.909  13.556  22.557  0.00  0.00    +0.000 A 
ATOM      9  C   UNL     1      -1.362  12.345  23.080  0.00  0.00    +0.000 A 
ATOM     10  C   UNL     1      -0.762  11.153  22.667  0.00  0.00    +0.000 A 
ATOM     11  F   UNL     1      -1.179   9.995  23.204  0.00  0.00    +0.000 F 
ATOM     12  N   UNL     1      -1.393  14.770  23.056  0.00  0.00    +0.000 N 
ATOM     13  C   UNL     1      -1.029  15.999  22.563  0.00  0.00    +0.000 C 
ATOM     14  O   UNL     1      -1.329  17.034  23.151  0.00  0.00    +0.000 OA
ATOM     15  C   UNL     1      -0.366  16.000  21.206  0.00  0.00    +0.000 C 
ATOM     16  C   UNL     1       0.639  14.873  21.069  0.00  0.00    +0.000 C 
ATOM     17  H   UNL     1      -1.956  14.785  23.897  0.00  0.00    +0.000 HD
ENDBRANCH   3   5
BRANCH   1  21
ATOM     18  N   UNL     1       2.768   6.288  19.381  0.00  0.00    +0.000 N 
ATOM     19  N   UNL     1       2.199   5.820  20.522  0.00  0.00    +0.000 NA
ATOM     20  C   UNL     1       1.476   6.831  20.999  0.00  0.00    +0.000 A 
ATOM     21  C   UNL     1       1.506   7.966  20.172  0.00  0.00    +0.000 A 
ATOM     22  C   UNL     1       2.308   7.574  19.099  0.00  0.00    +0.000 A 
ATOM     23  C   UNL     1       2.570   8.289  17.811  0.00  0.00    +0.000 C 
BRANCH  18  30
ATOM     24  C   UNL     1       7.460   5.406  18.080  0.00  0.00    +0.000 C 
ATOM     25  C   UNL     1       6.006   5.057  17.955  0.00  0.00    +0.000 A 
ATOM     26  C   UNL     1       5.561   4.108  17.040  0.00  0.00    +0.000 A 
ATOM     27  C   UNL     1       4.198   3.818  16.940  0.00  0.00    +0.000 A 
ATOM     28  C   UNL     1       3.237   4.496  17.717  0.00  0.00    +0.000 A 
ATOM     29  C   UNL     1       1.789   4.161  17.481  0.00  0.00    +0.000 C 
ATOM     30  C   UNL     1       3.680   5.485  18.622  0.00  0.00    +0.000 A 
ATOM     31  C   UNL     1       5.064   5.712  18.758  0.00  0.00    +0.000 A 
ENDBRANCH  18  30
ENDBRANCH   1  21
TORSDOF 3
ENDMDL
