MODEL 1
REMARK VINA RESULT:      -9.3      0.000      0.000
REMARK  Name = 
REMARK  5 active torsions:
REMARK  status: ('A' for Active; 'I' for Inactive)
REMARK    1  A    between atoms: C_2  and  C_3
REMARK    2  A    between atoms: C_3  and  C_4
REMARK    3  A    between atoms: C_4  and  N_5
REMARK    4  A    between atoms: N_16  and  C_17
REMARK    5  A    between atoms: C_21  and  C_22
REMARK                            x       y       z     vdW  Elec       q    Type
REMARK                         _______ _______ _______ _____ _____    ______ ____
ROOT
ATOM      1  O   UNL     1       8.558   7.406  18.881  0.00  0.00    +0.000 OA
ATOM      2  C   UNL     1       7.950   8.054  18.034  0.00  0.00    +0.000 C 
ATOM      3  N   UNL     1       8.077   9.419  17.818  0.00  0.00    +0.000 N 
ATOM      4  H   UNL     1       7.382   9.858  17.226  0.00  0.00    +0.000 HD
ENDROOT
BRANCH   3   5
ATOM      5  C   UNL     1       8.947  10.291  18.518  0.00  0.00    +0.000 A 
ATOM      6  C   UNL     1       9.202  10.182  19.888  0.00  0.00    +0.000 A 
ATOM      7  C   UNL     1      10.024  11.109  20.538  0.00  0.00    +0.000 A 
ATOM      8  C   UNL     1      10.644  12.124  19.813  0.00  0.00    +0.000 A 
ATOM      9  C   UNL     1      10.469  12.196  18.426  0.00  0.00    +0.000 A 
ATOM     10  C   UNL     1       9.589  11.303  17.794  0.00  0.00    +0.000 A 
BRANCH   9  11
ATOM     11  C   UNL     1      11.221  13.249  17.682  0.00  0.00    +0.000 C 
ATOM     12  O   UNL     1      12.149  12.898  16.959  0.00  0.00    +0.000 OA
ATOM     13  N   UNL     1      10.821  14.580  17.776  0.00  0.00    +0.000 N 
ATOM     14  C   UNL     1       9.693  15.141  18.492  0.00  0.00    +0.000 C 
ATOM     15  C   UNL     1       9.239  16.287  17.612  0.00  0.00    +0.000 C 
ATOM     16  C   UNL     1      10.542  16.817  17.030  0.00  0.00    +0.000 C 
ATOM     17  C   UNL     1      11.457  15.596  16.954  0.00  0.00    +0.000 C 
ENDBRANCH   9  11
ENDBRANCH   3   5
BRANCH   2  18
ATOM     18  C   UNL     1       6.972   7.382  17.086  0.00  0.00    +0.000 C 
BRANCH  18  19
ATOM     19  C   UNL     1       7.215   5.872  17.037  0.00  0.00    +0.000 C 
BRANCH  19  20
ATOM     20  N   UNL     1       6.044   5.117  17.456  0.00  0.00    +0.000 N 
ATOM     21  C   UNL     1       5.780   4.772  18.754  0.00  0.00    +0.000 C 
ATOM     22  O   UNL     1       6.422   5.008  19.758  0.00  0.00    +0.000 OA
ATOM     23  C   UNL     1       4.537   4.000  18.736  0.00  0.00    +0.000 A 
ATOM     24  C   UNL     1       3.827   3.421  19.770  0.00  0.00    +0.000 A 
ATOM     25  C   UNL     1       2.659   2.724  19.434  0.00  0.00    +0.000 A 
ATOM     26  C   UNL     1       2.237   2.631  18.092  0.00  0.00    +0.000 A 
ATOM     27  C   UNL     1       2.973   3.226  17.062  0.00  0.00    +0.000 A 
ATOM     28  C   UNL     1       4.125   3.905  17.420  0.00  0.00    +0.000 A 
ATOM     29  C   UNL     1       5.110   4.605  16.596  0.00  0.00    +0.000 C 
ATOM     30  O   UNL     1       5.076   4.663  15.382  0.00  0.00    +0.000 OA
ENDBRANCH  19  20
ENDBRANCH  18  19
ENDBRANCH   2  18
TORSDOF 5
ENDMDL
MODEL 2
REMARK VINA RESULT:      -9.0      1.943     10.524
REMARK  Name = 
REMARK  5 active torsions:
REMARK  status: ('A' for Active; 'I' for Inactive)
REMARK    1  A    between atoms: C_2  and  C_3
REMARK    2  A    between atoms: C_3  and  C_4
REMARK    3  A    between atoms: C_4  and  N_5
REMARK    4  A    between atoms: N_16  and  C_17
REMARK    5  A    between atoms: C_21  and  C_22
REMARK                            x       y       z     vdW  Elec       q    Type
REMARK                         _______ _______ _______ _____ _____    ______ ____
ROOT
ATOM      1  O   UNL     1       8.367   7.022  18.672  0.00  0.00    +0.000 OA
ATOM      2  C   UNL     1       7.800   7.889  18.013  0.00  0.00    +0.000 C 
ATOM      3  N   UNL     1       6.720   7.681  17.166  0.00  0.00    +0.000 N 
ATOM      4  H   UNL     1       6.474   8.438  16.540  0.00  0.00    +0.000 HD
ENDROOT
BRANCH   3   5
ATOM      5  C   UNL     1       6.073   6.441  16.939  0.00  0.00    +0.000 A 
ATOM      6  C   UNL     1       5.886   5.896  15.666  0.00  0.00    +0.000 A 
ATOM      7  C   UNL     1       5.186   4.697  15.498  0.00  0.00    +0.000 A 
ATOM      8  C   UNL     1       4.711   4.002  16.608  0.00  0.00    +0.000 A 
ATOM      9  C   UNL     1       4.965   4.489  17.895  0.00  0.00    +0.000 A 
ATOM     10  C   UNL     1       5.609   5.727  18.051  0.00  0.00    +0.000 A 
BRANCH   9  11
ATOM     11  C   UNL     1       4.510   3.666  19.054  0.00  0.00    +0.000 C 
ATOM     12  O   UNL     1       5.341   2.969  19.632  0.00  0.00    +0.000 OA
ATOM     13  N   UNL     1       3.189   3.750  19.486  0.00  0.00    +0.000 N 
ATOM     14  C   UNL     1       2.122   4.594  18.986  0.00  0.00    +0.000 C 
ATOM     15  C   UNL     1       1.319   4.935  20.224  0.00  0.00    +0.000 C 
ATOM     16  C   UNL     1       1.413   3.666  21.060  0.00  0.00    +0.000 C 
ATOM     17  C   UNL     1       2.766   3.059  20.692  0.00  0.00    +0.000 C 
ENDBRANCH   9  11
ENDBRANCH   3   5
BRANCH   2  18
ATOM     18  C   UNL     1       8.239   9.341  18.087  0.00  0.00    +0.000 C 
BRANCH  18  19
ATOM     19  C   UNL     1       9.296   9.533  19.175  0.00  0.00    +0.000 C 
BRANCH  19  20
ATOM     20  N   UNL     1       9.599  10.939  19.399  0.00  0.00    +0.000 N 
ATOM     21  C   UNL     1      10.272  11.729  18.506  0.00  0.00    +0.000 C 
ATOM     22  O   UNL     1      10.725  11.443  17.416  0.00  0.00    +0.000 OA
ATOM     23  C   UNL     1      10.391  13.050  19.124  0.00  0.00    +0.000 A 
ATOM     24  C   UNL     1      10.973  14.211  18.652  0.00  0.00    +0.000 A 
ATOM     25  C   UNL     1      10.940  15.331  19.493  0.00  0.00    +0.000 A 
ATOM     26  C   UNL     1      10.329  15.263  20.761  0.00  0.00    +0.000 A 
ATOM     27  C   UNL     1       9.746  14.075  21.217  0.00  0.00    +0.000 A 
ATOM     28  C   UNL     1       9.796  12.981  20.370  0.00  0.00    +0.000 A 
ATOM     29  C   UNL     1       9.308  11.615  20.553  0.00  0.00    +0.000 C 
ATOM     30  O   UNL     1       8.782  11.202  21.568  0.00  0.00    +0.000 OA
ENDBRANCH  19  20
ENDBRANCH  18  19
ENDBRANCH   2  18
TORSDOF 5
ENDMDL
MODEL 3
REMARK VINA RESULT:      -8.8      6.661      8.245
REMARK  Name = 
REMARK  5 active torsions:
REMARK  status: ('A' for Active; 'I' for Inactive)
REMARK    1  A    between atoms: C_2  and  C_3
REMARK    2  A    between atoms: C_3  and  C_4
REMARK    3  A    between atoms: C_4  and  N_5
REMARK    4  A    between atoms: N_16  and  C_17
REMARK    5  A    between atoms: C_21  and  C_22
REMARK                            x       y       z     vdW  Elec       q    Type
REMARK                         _______ _______ _______ _____ _____    ______ ____
ROOT
ATOM      1  O   UNL     1       0.644   4.928  20.292  0.00  0.00    +0.000 OA
ATOM      2  C   UNL     1       1.870   4.953  20.351  0.00  0.00    +0.000 C 
ATOM      3  N   UNL     1       2.673   6.027  19.995  0.00  0.00    +0.000 N 
ATOM      4  H   UNL     1       3.667   5.850  19.907  0.00  0.00    +0.000 HD
ENDROOT
BRANCH   3   5
ATOM      5  C   UNL     1       2.215   7.285  19.529  0.00  0.00    +0.000 A 
ATOM      6  C   UNL     1       2.349   7.706  18.203  0.00  0.00    +0.000 A 
ATOM      7  C   UNL     1       1.933   8.984  17.815  0.00  0.00    +0.000 A 
ATOM      8  C   UNL     1       1.327   9.834  18.737  0.00  0.00    +0.000 A 
ATOM      9  C   UNL     1       1.106   9.396  20.048  0.00  0.00    +0.000 A 
ATOM     10  C   UNL     1       1.589   8.138  20.446  0.00  0.00    +0.000 A 
BRANCH   9  11
ATOM     11  C   UNL     1       0.378  10.310  20.976  0.00  0.00    +0.000 C 
ATOM     12  O   UNL     1       0.873  10.533  22.078  0.00  0.00    +0.000 OA
ATOM     13  N   UNL     1      -0.796  10.928  20.556  0.00  0.00    +0.000 N 
ATOM     14  C   UNL     1      -1.449  10.856  19.264  0.00  0.00    +0.000 C 
ATOM     15  C   UNL     1      -2.037  12.240  19.077  0.00  0.00    +0.000 C 
ATOM     16  C   UNL     1      -2.441  12.640  20.490  0.00  0.00    +0.000 C 
ATOM     17  C   UNL     1      -1.442  11.922  21.397  0.00  0.00    +0.000 C 
ENDBRANCH   9  11
ENDBRANCH   3   5
BRANCH   2  18
ATOM     18  C   UNL     1       2.654   3.758  20.864  0.00  0.00    +0.000 C 
BRANCH  18  19
ATOM     19  C   UNL     1       2.898   2.747  19.743  0.00  0.00    +0.000 C 
BRANCH  19  20
ATOM     20  N   UNL     1       3.758   3.286  18.699  0.00  0.00    +0.000 N 
ATOM     21  C   UNL     1       5.024   3.758  18.918  0.00  0.00    +0.000 C 
ATOM     22  O   UNL     1       5.653   3.820  19.956  0.00  0.00    +0.000 OA
ATOM     23  C   UNL     1       5.522   4.232  17.626  0.00  0.00    +0.000 A 
ATOM     24  C   UNL     1       6.738   4.793  17.286  0.00  0.00    +0.000 A 
ATOM     25  C   UNL     1       6.920   5.163  15.947  0.00  0.00    +0.000 A 
ATOM     26  C   UNL     1       5.899   4.959  14.998  0.00  0.00    +0.000 A 
ATOM     27  C   UNL     1       4.676   4.388  15.367  0.00  0.00    +0.000 A 
ATOM     28  C   UNL     1       4.518   4.036  16.696  0.00  0.00    +0.000 A 
ATOM     29  C   UNL     1       3.376   3.449  17.395  0.00  0.00    +0.000 C 
ATOM     30  O   UNL     1       2.304   3.202  16.876  0.00  0.00    +0.000 OA
ENDBRANCH  19  20
ENDBRANCH  18  19
ENDBRANCH   2  18
TORSDOF 5
ENDMDL
MODEL 4
REMARK VINA RESULT:      -8.8      6.648      8.361
REMARK  Name = 
REMARK  5 active torsions:
REMARK  status: ('A' for Active; 'I' for Inactive)
REMARK    1  A    between atoms: C_2  and  C_3
REMARK    2  A    between atoms: C_3  and  C_4
REMARK    3  A    between atoms: C_4  and  N_5
REMARK    4  A    between atoms: N_16  and  C_17
REMARK    5  A    between atoms: C_21  and  C_22
REMARK                            x       y       z     vdW  Elec       q    Type
REMARK                         _______ _______ _______ _____ _____    ______ ____
ROOT
ATOM      1  O   UNL     1       0.626   4.985  20.277  0.00  0.00    +0.000 OA
ATOM      2  C   UNL     1       1.852   4.983  20.347  0.00  0.00    +0.000 C 
ATOM      3  N   UNL     1       2.682   6.032  19.980  0.00  0.00    +0.000 N 
ATOM      4  H   UNL     1       3.672   5.831  19.906  0.00  0.00    +0.000 HD
ENDROOT
BRANCH   3   5
ATOM      5  C   UNL     1       2.258   7.292  19.489  0.00  0.00    +0.000 A 
ATOM      6  C   UNL     1       2.440   7.698  18.164  0.00  0.00    +0.000 A 
ATOM      7  C   UNL     1       2.055   8.978  17.751  0.00  0.00    +0.000 A 
ATOM      8  C   UNL     1       1.433   9.846  18.646  0.00  0.00    +0.000 A 
ATOM      9  C   UNL     1       1.163   9.423  19.953  0.00  0.00    +0.000 A 
ATOM     10  C   UNL     1       1.615   8.162  20.377  0.00  0.00    +0.000 A 
BRANCH   9  11
ATOM     11  C   UNL     1       0.419  10.356  20.848  0.00  0.00    +0.000 C 
ATOM     12  O   UNL     1       0.928  10.656  21.925  0.00  0.00    +0.000 OA
ATOM     13  N   UNL     1      -0.788  10.905  20.424  0.00  0.00    +0.000 N 
ATOM     14  C   UNL     1      -1.465  10.739  19.154  0.00  0.00    +0.000 C 
ATOM     15  C   UNL     1      -2.111  12.087  18.909  0.00  0.00    +0.000 C 
ATOM     16  C   UNL     1      -2.501  12.545  20.307  0.00  0.00    +0.000 C 
ATOM     17  C   UNL     1      -1.455  11.916  21.227  0.00  0.00    +0.000 C 
ENDBRANCH   9  11
ENDBRANCH   3   5
BRANCH   2  18
ATOM     18  C   UNL     1       2.603   3.779  20.888  0.00  0.00    +0.000 C 
BRANCH  18  19
ATOM     19  C   UNL     1       2.900   2.777  19.771  0.00  0.00    +0.000 C 
BRANCH  19  20
ATOM     20  N   UNL     1       3.743   3.352  18.733  0.00  0.00    +0.000 N 
ATOM     21  C   UNL     1       3.369   3.468  17.421  0.00  0.00    +0.000 C 
ATOM     22  O   UNL     1       2.329   3.139  16.886  0.00  0.00    +0.000 OA
ATOM     23  C   UNL     1       4.504   4.062  16.714  0.00  0.00    +0.000 A 
ATOM     24  C   UNL     1       4.655   4.397  15.382  0.00  0.00    +0.000 A 
ATOM     25  C   UNL     1       5.883   4.949  14.996  0.00  0.00    +0.000 A 
ATOM     26  C   UNL     1       6.910   5.154  15.940  0.00  0.00    +0.000 A 
ATOM     27  C   UNL     1       6.734   4.806  17.283  0.00  0.00    +0.000 A 
ATOM     28  C   UNL     1       5.513   4.258  17.639  0.00  0.00    +0.000 A 
ATOM     29  C   UNL     1       5.027   3.779  18.932  0.00  0.00    +0.000 C 
ATOM     30  O   UNL     1       5.691   3.755  19.951  0.00  0.00    +0.000 OA
ENDBRANCH  19  20
ENDBRANCH  18  19
ENDBRANCH   2  18
TORSDOF 5
ENDMDL
MODEL 5
REMARK VINA RESULT:      -8.8      6.420      8.137
REMARK  Name = 
REMARK  5 active torsions:
REMARK  status: ('A' for Active; 'I' for Inactive)
REMARK    1  A    between atoms: C_2  and  C_3
REMARK    2  A    between atoms: C_3  and  C_4
REMARK    3  A    between atoms: C_4  and  N_5
REMARK    4  A    between atoms: N_16  and  C_17
REMARK    5  A    between atoms: C_21  and  C_22
REMARK                            x       y       z     vdW  Elec       q    Type
REMARK                         _______ _______ _______ _____ _____    ______ ____
ROOT
ATOM      1  O   UNL     1       1.270   4.362  19.277  0.00  0.00    +0.000 OA
ATOM      2  C   UNL     1       2.241   4.604  19.989  0.00  0.00    +0.000 C 
ATOM      3  N   UNL     1       2.920   5.813  20.043  0.00  0.00    +0.000 N 
ATOM      4  H   UNL     1       3.813   5.818  20.523  0.00  0.00    +0.000 HD
ENDROOT
BRANCH   3   5
ATOM      5  C   UNL     1       2.595   6.979  19.308  0.00  0.00    +0.000 A 
ATOM      6  C   UNL     1       3.137   7.270  18.053  0.00  0.00    +0.000 A 
ATOM      7  C   UNL     1       2.826   8.468  17.401  0.00  0.00    +0.000 A 
ATOM      8  C   UNL     1       1.924   9.363  17.973  0.00  0.00    +0.000 A 
ATOM      9  C   UNL     1       1.305   9.047  19.187  0.00  0.00    +0.000 A 
ATOM     10  C   UNL     1       1.675   7.875  19.867  0.00  0.00    +0.000 A 
BRANCH   9  11
ATOM     11  C   UNL     1       0.283   9.997  19.717  0.00  0.00    +0.000 C 
ATOM     12  O   UNL     1      -0.480  10.533  18.918  0.00  0.00    +0.000 OA
ATOM     13  N   UNL     1       0.180  10.205  21.090  0.00  0.00    +0.000 N 
ATOM     14  C   UNL     1       0.924   9.577  22.162  0.00  0.00    +0.000 C 
ATOM     15  C   UNL     1      -0.085   9.465  23.287  0.00  0.00    +0.000 C 
ATOM     16  C   UNL     1      -0.926  10.724  23.126  0.00  0.00    +0.000 C 
ATOM     17  C   UNL     1      -0.895  11.022  21.628  0.00  0.00    +0.000 C 
ENDBRANCH   9  11
ENDBRANCH   3   5
BRANCH   2  18
ATOM     18  C   UNL     1       2.797   3.556  20.937  0.00  0.00    +0.000 C 
BRANCH  18  19
ATOM     19  C   UNL     1       3.729   2.595  20.196  0.00  0.00    +0.000 C 
BRANCH  19  20
ATOM     20  N   UNL     1       4.351   3.221  19.039  0.00  0.00    +0.000 N 
ATOM     21  C   UNL     1       5.378   4.123  19.116  0.00  0.00    +0.000 C 
ATOM     22  O   UNL     1       5.945   4.559  20.098  0.00  0.00    +0.000 OA
ATOM     23  C   UNL     1       5.684   4.526  17.743  0.00  0.00    +0.000 A 
ATOM     24  C   UNL     1       6.632   5.406  17.258  0.00  0.00    +0.000 A 
ATOM     25  C   UNL     1       6.677   5.598  15.871  0.00  0.00    +0.000 A 
ATOM     26  C   UNL     1       5.789   4.910  15.019  0.00  0.00    +0.000 A 
ATOM     27  C   UNL     1       4.837   4.024  15.534  0.00  0.00    +0.000 A 
ATOM     28  C   UNL     1       4.809   3.856  16.908  0.00  0.00    +0.000 A 
ATOM     29  C   UNL     1       3.938   3.034  17.747  0.00  0.00    +0.000 C 
ATOM     30  O   UNL     1       3.017   2.359  17.330  0.00  0.00    +0.000 OA
ENDBRANCH  19  20
ENDBRANCH  18  19
ENDBRANCH   2  18
TORSDOF 5
ENDMDL
MODEL 6
REMARK VINA RESULT:      -8.8      6.462      7.635
REMARK  Name = 
REMARK  5 active torsions:
REMARK  status: ('A' for Active; 'I' for Inactive)
REMARK    1  A    between atoms: C_2  and  C_3
REMARK    2  A    between atoms: C_3  and  C_4
REMARK    3  A    between atoms: C_4  and  N_5
REMARK    4  A    between atoms: N_16  and  C_17
REMARK    5  A    between atoms: C_21  and  C_22
REMARK                            x       y       z     vdW  Elec       q    Type
REMARK                         _______ _______ _______ _____ _____    ______ ____
ROOT
ATOM      1  O   UNL     1       5.351   7.072  17.922  0.00  0.00    +0.000 OA
ATOM      2  C   UNL     1       4.502   6.466  17.273  0.00  0.00    +0.000 C 
ATOM      3  N   UNL     1       3.133   6.516  17.492  0.00  0.00    +0.000 N 
ATOM      4  H   UNL     1       2.565   5.825  17.016  0.00  0.00    +0.000 HD
ENDROOT
BRANCH   3   5
ATOM      5  C   UNL     1       2.480   7.293  18.481  0.00  0.00    +0.000 A 
ATOM      6  C   UNL     1       2.407   6.919  19.825  0.00  0.00    +0.000 A 
ATOM      7  C   UNL     1       1.696   7.696  20.745  0.00  0.00    +0.000 A 
ATOM      8  C   UNL     1       1.097   8.888  20.341  0.00  0.00    +0.000 A 
ATOM      9  C   UNL     1       1.234   9.322  19.018  0.00  0.00    +0.000 A 
ATOM     10  C   UNL     1       1.891   8.501  18.086  0.00  0.00    +0.000 A 
BRANCH   9  11
ATOM     11  C   UNL     1       0.647  10.645  18.653  0.00  0.00    +0.000 C 
ATOM     12  O   UNL     1       1.399  11.614  18.585  0.00  0.00    +0.000 OA
ATOM     13  N   UNL     1      -0.707  10.738  18.345  0.00  0.00    +0.000 N 
ATOM     14  C   UNL     1      -1.698   9.683  18.276  0.00  0.00    +0.000 C 
ATOM     15  C   UNL     1      -2.610  10.116  17.147  0.00  0.00    +0.000 C 
ATOM     16  C   UNL     1      -2.631  11.632  17.278  0.00  0.00    +0.000 C 
ATOM     17  C   UNL     1      -1.264  11.990  17.860  0.00  0.00    +0.000 C 
ENDBRANCH   9  11
ENDBRANCH   3   5
BRANCH   2  18
ATOM     18  C   UNL     1       4.895   5.582  16.103  0.00  0.00    +0.000 C 
BRANCH  18  19
ATOM     19  C   UNL     1       5.052   4.127  16.551  0.00  0.00    +0.000 C 
BRANCH  19  20
ATOM     20  N   UNL     1       4.173   3.801  17.664  0.00  0.00    +0.000 N 
ATOM     21  C   UNL     1       4.596   3.661  18.958  0.00  0.00    +0.000 C 
ATOM     22  O   UNL     1       5.715   3.774  19.418  0.00  0.00    +0.000 OA
ATOM     23  C   UNL     1       3.416   3.305  19.747  0.00  0.00    +0.000 A 
ATOM     24  C   UNL     1       3.285   3.056  21.100  0.00  0.00    +0.000 A 
ATOM     25  C   UNL     1       2.007   2.722  21.568  0.00  0.00    +0.000 A 
ATOM     26  C   UNL     1       0.912   2.651  20.685  0.00  0.00    +0.000 A 
ATOM     27  C   UNL     1       1.070   2.907  19.318  0.00  0.00    +0.000 A 
ATOM     28  C   UNL     1       2.343   3.231  18.880  0.00  0.00    +0.000 A 
ATOM     29  C   UNL     1       2.838   3.528  17.536  0.00  0.00    +0.000 C 
ATOM     30  O   UNL     1       2.158   3.493  16.528  0.00  0.00    +0.000 OA
ENDBRANCH  19  20
ENDBRANCH  18  19
ENDBRANCH   2  18
TORSDOF 5
ENDMDL
MODEL 7
REMARK VINA RESULT:      -8.7      6.426      7.687
REMARK  Name = 
REMARK  5 active torsions:
REMARK  status: ('A' for Active; 'I' for Inactive)
REMARK    1  A    between atoms: C_2  and  C_3
REMARK    2  A    between atoms: C_3  and  C_4
REMARK    3  A    between atoms: C_4  and  N_5
REMARK    4  A    between atoms: N_16  and  C_17
REMARK    5  A    between atoms: C_21  and  C_22
REMARK                            x       y       z     vdW  Elec       q    Type
REMARK                         _______ _______ _______ _____ _____    ______ ____
ROOT
ATOM      1  O   UNL     1       5.412   7.043  17.900  0.00  0.00    +0.000 OA
ATOM      2  C   UNL     1       4.568   6.407  17.274  0.00  0.00    +0.000 C 
ATOM      3  N   UNL     1       3.201   6.426  17.515  0.00  0.00    +0.000 N 
ATOM      4  H   UNL     1       2.644   5.714  17.058  0.00  0.00    +0.000 HD
ENDROOT
BRANCH   3   5
ATOM      5  C   UNL     1       2.545   7.201  18.504  0.00  0.00    +0.000 A 
ATOM      6  C   UNL     1       2.409   6.791  19.833  0.00  0.00    +0.000 A 
ATOM      7  C   UNL     1       1.697   7.570  20.751  0.00  0.00    +0.000 A 
ATOM      8  C   UNL     1       1.161   8.796  20.362  0.00  0.00    +0.000 A 
ATOM      9  C   UNL     1       1.363   9.262  19.058  0.00  0.00    +0.000 A 
ATOM     10  C   UNL     1       2.019   8.442  18.126  0.00  0.00    +0.000 A 
BRANCH   9  11
ATOM     11  C   UNL     1       0.843  10.618  18.714  0.00  0.00    +0.000 C 
ATOM     12  O   UNL     1       1.652  11.530  18.570  0.00  0.00    +0.000 OA
ATOM     13  N   UNL     1      -0.522  10.802  18.508  0.00  0.00    +0.000 N 
ATOM     14  C   UNL     1      -1.585   9.818  18.534  0.00  0.00    +0.000 C 
ATOM     15  C   UNL     1      -2.550  10.298  17.469  0.00  0.00    +0.000 C 
ATOM     16  C   UNL     1      -2.455  11.815  17.572  0.00  0.00    +0.000 C 
ATOM     17  C   UNL     1      -1.026  12.083  18.042  0.00  0.00    +0.000 C 
ENDBRANCH   9  11
ENDBRANCH   3   5
BRANCH   2  18
ATOM     18  C   UNL     1       4.963   5.516  16.110  0.00  0.00    +0.000 C 
BRANCH  18  19
ATOM     19  C   UNL     1       5.211   4.083  16.583  0.00  0.00    +0.000 C 
BRANCH  19  20
ATOM     20  N   UNL     1       4.307   3.699  17.658  0.00  0.00    +0.000 N 
ATOM     21  C   UNL     1       2.973   3.448  17.483  0.00  0.00    +0.000 C 
ATOM     22  O   UNL     1       2.310   3.489  16.466  0.00  0.00    +0.000 OA
ATOM     23  C   UNL     1       2.431   3.129  18.805  0.00  0.00    +0.000 A 
ATOM     24  C   UNL     1       1.147   2.796  19.190  0.00  0.00    +0.000 A 
ATOM     25  C   UNL     1       0.930   2.552  20.552  0.00  0.00    +0.000 A 
ATOM     26  C   UNL     1       1.990   2.643  21.478  0.00  0.00    +0.000 A 
ATOM     27  C   UNL     1       3.282   2.983  21.063  0.00  0.00    +0.000 A 
ATOM     28  C   UNL     1       3.469   3.223  19.713  0.00  0.00    +0.000 A 
ATOM     29  C   UNL     1       4.670   3.612  18.975  0.00  0.00    +0.000 C 
ATOM     30  O   UNL     1       5.750   3.836  19.486  0.00  0.00    +0.000 OA
ENDBRANCH  19  20
ENDBRANCH  18  19
ENDBRANCH   2  18
TORSDOF 5
ENDMDL
MODEL 8
REMARK VINA RESULT:      -8.7      6.758     10.361
REMARK  Name = 
REMARK  5 active torsions:
REMARK  status: ('A' for Active; 'I' for Inactive)
REMARK    1  A    between atoms: C_2  and  C_3
REMARK    2  A    between atoms: C_3  and  C_4
REMARK    3  A    between atoms: C_4  and  N_5
REMARK    4  A    between atoms: N_16  and  C_17
REMARK    5  A    between atoms: C_21  and  C_22
REMARK                            x       y       z     vdW  Elec       q    Type
REMARK                         _______ _______ _______ _____ _____    ______ ____
ROOT
ATOM      1  O   UNL     1       2.084   8.057  19.217  0.00  0.00    +0.000 OA
ATOM      2  C   UNL     1       1.848   7.589  20.328  0.00  0.00    +0.000 C 
ATOM      3  N   UNL     1       2.027   6.264  20.700  0.00  0.00    +0.000 N 
ATOM      4  H   UNL     1       1.615   5.973  21.578  0.00  0.00    +0.000 HD
ENDROOT
BRANCH   3   5
ATOM      5  C   UNL     1       2.537   5.234  19.872  0.00  0.00    +0.000 A 
ATOM      6  C   UNL     1       1.787   4.120  19.484  0.00  0.00    +0.000 A 
ATOM      7  C   UNL     1       2.363   3.103  18.716  0.00  0.00    +0.000 A 
ATOM      8  C   UNL     1       3.682   3.216  18.280  0.00  0.00    +0.000 A 
ATOM      9  C   UNL     1       4.420   4.365  18.586  0.00  0.00    +0.000 A 
ATOM     10  C   UNL     1       3.856   5.348  19.415  0.00  0.00    +0.000 A 
BRANCH   9  11
ATOM     11  C   UNL     1       5.799   4.477  18.026  0.00  0.00    +0.000 C 
ATOM     12  O   UNL     1       6.749   4.259  18.774  0.00  0.00    +0.000 OA
ATOM     13  N   UNL     1       5.974   4.763  16.674  0.00  0.00    +0.000 N 
ATOM     14  C   UNL     1       4.969   4.942  15.646  0.00  0.00    +0.000 C 
ATOM     15  C   UNL     1       5.614   4.361  14.405  0.00  0.00    +0.000 C 
ATOM     16  C   UNL     1       7.084   4.719  14.576  0.00  0.00    +0.000 C 
ATOM     17  C   UNL     1       7.304   4.743  16.088  0.00  0.00    +0.000 C 
ENDBRANCH   9  11
ENDBRANCH   3   5
BRANCH   2  18
ATOM     18  C   UNL     1       1.333   8.468  21.454  0.00  0.00    +0.000 C 
BRANCH  18  19
ATOM     19  C   UNL     1      -0.175   8.689  21.325  0.00  0.00    +0.000 C 
BRANCH  19  20
ATOM     20  N   UNL     1      -0.528  10.099  21.390  0.00  0.00    +0.000 N 
ATOM     21  C   UNL     1      -0.759  10.883  20.292  0.00  0.00    +0.000 C 
ATOM     22  O   UNL     1      -0.721  10.585  19.114  0.00  0.00    +0.000 OA
ATOM     23  C   UNL     1      -1.049  12.227  20.790  0.00  0.00    +0.000 A 
ATOM     24  C   UNL     1      -1.355  13.389  20.108  0.00  0.00    +0.000 A 
ATOM     25  C   UNL     1      -1.575  14.541  20.874  0.00  0.00    +0.000 A 
ATOM     26  C   UNL     1      -1.490  14.500  22.280  0.00  0.00    +0.000 A 
ATOM     27  C   UNL     1      -1.178  13.310  22.948  0.00  0.00    +0.000 A 
ATOM     28  C   UNL     1      -0.961  12.187  22.169  0.00  0.00    +0.000 A 
ATOM     29  C   UNL     1      -0.602  10.821  22.550  0.00  0.00    +0.000 C 
ATOM     30  O   UNL     1      -0.390  10.458  23.691  0.00  0.00    +0.000 OA
ENDBRANCH  19  20
ENDBRANCH  18  19
ENDBRANCH   2  18
TORSDOF 5
ENDMDL
MODEL 9
REMARK VINA RESULT:      -8.7      7.016     10.271
REMARK  Name = 
REMARK  5 active torsions:
REMARK  status: ('A' for Active; 'I' for Inactive)
REMARK    1  A    between atoms: C_2  and  C_3
REMARK    2  A    between atoms: C_3  and  C_4
REMARK    3  A    between atoms: C_4  and  N_5
REMARK    4  A    between atoms: N_16  and  C_17
REMARK    5  A    between atoms: C_21  and  C_22
REMARK                            x       y       z     vdW  Elec       q    Type
REMARK                         _______ _______ _______ _____ _____    ______ ____
ROOT
ATOM      1  O   UNL     1       1.972   8.113  19.330  0.00  0.00    +0.000 OA
ATOM      2  C   UNL     1       1.616   7.679  20.422  0.00  0.00    +0.000 C 
ATOM      3  N   UNL     1       1.745   6.365  20.849  0.00  0.00    +0.000 N 
ATOM      4  H   UNL     1       1.240   6.101  21.686  0.00  0.00    +0.000 HD
ENDROOT
BRANCH   3   5
ATOM      5  C   UNL     1       2.332   5.308  20.110  0.00  0.00    +0.000 A 
ATOM      6  C   UNL     1       1.655   4.128  19.791  0.00  0.00    +0.000 A 
ATOM      7  C   UNL     1       2.305   3.093  19.111  0.00  0.00    +0.000 A 
ATOM      8  C   UNL     1       3.625   3.250  18.694  0.00  0.00    +0.000 A 
ATOM      9  C   UNL     1       4.290   4.459  18.928  0.00  0.00    +0.000 A 
ATOM     10  C   UNL     1       3.652   5.465  19.670  0.00  0.00    +0.000 A 
BRANCH   9  11
ATOM     11  C   UNL     1       5.673   4.610  18.388  0.00  0.00    +0.000 C 
ATOM     12  O   UNL     1       6.616   4.491  19.166  0.00  0.00    +0.000 OA
ATOM     13  N   UNL     1       5.863   4.819  17.024  0.00  0.00    +0.000 N 
ATOM     14  C   UNL     1       4.874   4.877  15.967  0.00  0.00    +0.000 C 
ATOM     15  C   UNL     1       5.576   4.255  14.778  0.00  0.00    +0.000 C 
ATOM     16  C   UNL     1       7.020   4.703  14.954  0.00  0.00    +0.000 C 
ATOM     17  C   UNL     1       7.205   4.834  16.465  0.00  0.00    +0.000 C 
ENDBRANCH   9  11
ENDBRANCH   3   5
BRANCH   2  18
ATOM     18  C   UNL     1       0.992   8.593  21.462  0.00  0.00    +0.000 C 
BRANCH  18  19
ATOM     19  C   UNL     1       1.211  10.062  21.095  0.00  0.00    +0.000 C 
BRANCH  19  20
ATOM     20  N   UNL     1      -0.013  10.842  21.210  0.00  0.00    +0.000 N 
ATOM     21  C   UNL     1      -0.666  11.071  22.391  0.00  0.00    +0.000 C 
ATOM     22  O   UNL     1      -0.381  10.698  23.512  0.00  0.00    +0.000 OA
ATOM     23  C   UNL     1      -1.853  11.862  22.066  0.00  0.00    +0.000 A 
ATOM     24  C   UNL     1      -2.846  12.365  22.883  0.00  0.00    +0.000 A 
ATOM     25  C   UNL     1      -3.877  13.087  22.268  0.00  0.00    +0.000 A 
ATOM     26  C   UNL     1      -3.884  13.287  20.872  0.00  0.00    +0.000 A 
ATOM     27  C   UNL     1      -2.866  12.767  20.065  0.00  0.00    +0.000 A 
ATOM     28  C   UNL     1      -1.861  12.054  20.697  0.00  0.00    +0.000 A 
ATOM     29  C   UNL     1      -0.688  11.376  20.147  0.00  0.00    +0.000 C 
ATOM     30  O   UNL     1      -0.427  11.304  18.961  0.00  0.00    +0.000 OA
ENDBRANCH  19  20
ENDBRANCH  18  19
ENDBRANCH   2  18
TORSDOF 5
ENDMDL
