MODEL 1
REMARK VINA RESULT:      -8.8      0.000      0.000
REMARK  Name = 
REMARK  4 active torsions:
REMARK  status: ('A' for Active; 'I' for Inactive)
REMARK    1  A    between atoms: C_1  and  C_2
REMARK    2  A    between atoms: C_5  and  C_6
REMARK    3  A    between atoms: C_9  and  C_10
REMARK    4  A    between atoms: C_14  and  C_15
REMARK                            x       y       z     vdW  Elec       q    Type
REMARK                         _______ _______ _______ _____ _____    ______ ____
ROOT
ATOM      1  C   UNL     1       1.983   6.646  19.856  0.00  0.00    +0.000 A 
ATOM      2  N   UNL     1       2.140   5.674  20.769  0.00  0.00    +0.000 NA
ATOM      3  O   UNL     1       2.372   4.531  20.001  0.00  0.00    +0.000 OA
ATOM      4  C   UNL     1       2.341   4.931  18.699  0.00  0.00    +0.000 A 
ATOM      5  N   UNL     1       2.153   6.219  18.561  0.00  0.00    +0.000 NA
ENDROOT
BRANCH   1  10
ATOM      6  C   UNL     1       0.380  12.084  20.961  0.00  0.00    +0.000 C 
ATOM      7  C   UNL     1       0.809  10.673  20.701  0.00  0.00    +0.000 A 
ATOM      8  C   UNL     1       0.889   9.733  21.733  0.00  0.00    +0.000 A 
ATOM      9  C   UNL     1       1.287   8.419  21.465  0.00  0.00    +0.000 A 
ATOM     10  C   UNL     1       1.606   8.021  20.159  0.00  0.00    +0.000 A 
ATOM     11  C   UNL     1       1.518   8.963  19.126  0.00  0.00    +0.000 A 
ATOM     12  C   UNL     1       1.122  10.267  19.403  0.00  0.00    +0.000 A 
ATOM     13  F   UNL     1       1.039  11.145  18.392  0.00  0.00    +0.000 F 
ENDBRANCH   1  10
BRANCH   4  14
ATOM     14  C   UNL     1       2.417   3.869  17.656  0.00  0.00    +0.000 C 
ATOM     15  C   UNL     1       1.757   2.589  18.133  0.00  0.00    +0.000 C 
ATOM     16  C   UNL     1       2.859   1.920  18.932  0.00  0.00    +0.000 C 
ATOM     17  O   UNL     1       4.105   2.304  18.331  0.00  0.00    +0.000 OA
ATOM     18  C   UNL     1       3.852   3.379  17.402  0.00  0.00    +0.000 C 
BRANCH  18  19
ATOM     19  C   UNL     1       4.937   4.435  17.452  0.00  0.00    +0.000 A 
ATOM     20  C   UNL     1       5.055   5.369  16.409  0.00  0.00    +0.000 A 
ATOM     21  C   UNL     1       5.969   6.424  16.497  0.00  0.00    +0.000 A 
ATOM     22  C   UNL     1       6.767   6.562  17.633  0.00  0.00    +0.000 A 
ATOM     23 CL   UNL     1       7.841   7.901  17.755  0.00  0.00    +0.000 Cl
ATOM     24  C   UNL     1       6.676   5.626  18.658  0.00  0.00    +0.000 A 
ATOM     25  F   UNL     1       7.430   5.742  19.762  0.00  0.00    +0.000 F 
ATOM     26  C   UNL     1       5.780   4.563  18.569  0.00  0.00    +0.000 A 
ENDBRANCH  18  19
ENDBRANCH   4  14
TORSDOF 3
ENDMDL
MODEL 2
REMARK VINA RESULT:      -8.8      0.949      1.338
REMARK  Name = 
REMARK  4 active torsions:
REMARK  status: ('A' for Active; 'I' for Inactive)
REMARK    1  A    between atoms: C_1  and  C_2
REMARK    2  A    between atoms: C_5  and  C_6
REMARK    3  A    between atoms: C_9  and  C_10
REMARK    4  A    between atoms: C_14  and  C_15
REMARK                            x       y       z     vdW  Elec       q    Type
REMARK                         _______ _______ _______ _____ _____    ______ ____
ROOT
ATOM      1  C   UNL     1       1.983   6.642  19.814  0.00  0.00    +0.000 A 
ATOM      2  N   UNL     1       2.231   5.687  20.726  0.00  0.00    +0.000 NA
ATOM      3  O   UNL     1       2.500   4.554  19.956  0.00  0.00    +0.000 OA
ATOM      4  C   UNL     1       2.396   4.941  18.654  0.00  0.00    +0.000 A 
ATOM      5  N   UNL     1       2.128   6.216  18.516  0.00  0.00    +0.000 NA
ENDROOT
BRANCH   1  10
ATOM      6  C   UNL     1       0.326  12.014  21.141  0.00  0.00    +0.000 C 
ATOM      7  C   UNL     1       0.743  10.624  20.770  0.00  0.00    +0.000 A 
ATOM      8  C   UNL     1       1.109  10.297  19.461  0.00  0.00    +0.000 A 
ATOM      9  C   UNL     1       1.500   8.992  19.139  0.00  0.00    +0.000 A 
ATOM     10  C   UNL     1       1.538   7.995  20.124  0.00  0.00    +0.000 A 
ATOM     11  C   UNL     1       1.179   8.327  21.436  0.00  0.00    +0.000 A 
ATOM     12  C   UNL     1       0.790   9.626  21.745  0.00  0.00    +0.000 A 
ATOM     13  F   UNL     1       0.458   9.917  23.012  0.00  0.00    +0.000 F 
ENDBRANCH   1  10
BRANCH   4  14
ATOM     14  C   UNL     1       2.494   3.878  17.615  0.00  0.00    +0.000 C 
ATOM     15  C   UNL     1       1.833   2.595  18.084  0.00  0.00    +0.000 C 
ATOM     16  C   UNL     1       2.925   1.933  18.902  0.00  0.00    +0.000 C 
ATOM     17  O   UNL     1       4.179   2.323  18.320  0.00  0.00    +0.000 OA
ATOM     18  C   UNL     1       3.935   3.394  17.385  0.00  0.00    +0.000 C 
BRANCH  18  19
ATOM     19  C   UNL     1       5.014   4.457  17.449  0.00  0.00    +0.000 A 
ATOM     20  C   UNL     1       5.128   5.404  16.419  0.00  0.00    +0.000 A 
ATOM     21  C   UNL     1       6.035   6.464  16.521  0.00  0.00    +0.000 A 
ATOM     22  C   UNL     1       6.831   6.591  17.659  0.00  0.00    +0.000 A 
ATOM     23 CL   UNL     1       7.897   7.936  17.800  0.00  0.00    +0.000 Cl
ATOM     24  C   UNL     1       6.744   5.642  18.672  0.00  0.00    +0.000 A 
ATOM     25  F   UNL     1       7.496   5.748  19.778  0.00  0.00    +0.000 F 
ATOM     26  C   UNL     1       5.855   4.575  18.568  0.00  0.00    +0.000 A 
ENDBRANCH  18  19
ENDBRANCH   4  14
TORSDOF 3
ENDMDL
MODEL 3
REMARK VINA RESULT:      -8.4      2.967      6.528
REMARK  Name = 
REMARK  4 active torsions:
REMARK  status: ('A' for Active; 'I' for Inactive)
REMARK    1  A    between atoms: C_1  and  C_2
REMARK    2  A    between atoms: C_5  and  C_6
REMARK    3  A    between atoms: C_9  and  C_10
REMARK    4  A    between atoms: C_14  and  C_15
REMARK                            x       y       z     vdW  Elec       q    Type
REMARK                         _______ _______ _______ _____ _____    ______ ____
ROOT
ATOM      1  C   UNL     1       5.538   4.514  17.627  0.00  0.00    +0.000 A 
ATOM      2  N   UNL     1       6.004   5.321  18.595  0.00  0.00    +0.000 NA
ATOM      3  O   UNL     1       5.186   5.033  19.690  0.00  0.00    +0.000 OA
ATOM      4  C   UNL     1       4.312   4.073  19.275  0.00  0.00    +0.000 A 
ATOM      5  N   UNL     1       4.518   3.691  18.039  0.00  0.00    +0.000 NA
ENDROOT
BRANCH   1  10
ATOM      6  C   UNL     1       7.245   4.625  12.111  0.00  0.00    +0.000 C 
ATOM      7  C   UNL     1       6.830   4.589  13.549  0.00  0.00    +0.000 A 
ATOM      8  C   UNL     1       7.688   5.019  14.566  0.00  0.00    +0.000 A 
ATOM      9  C   UNL     1       7.277   4.982  15.903  0.00  0.00    +0.000 A 
ATOM     10  C   UNL     1       5.997   4.521  16.244  0.00  0.00    +0.000 A 
ATOM     11  C   UNL     1       5.137   4.099  15.223  0.00  0.00    +0.000 A 
ATOM     12  C   UNL     1       5.556   4.138  13.897  0.00  0.00    +0.000 A 
ATOM     13  F   UNL     1       4.707   3.735  12.939  0.00  0.00    +0.000 F 
ENDBRANCH   1  10
BRANCH   4  14
ATOM     14  C   UNL     1       3.224   3.687  20.215  0.00  0.00    +0.000 C 
ATOM     15  C   UNL     1       2.794   2.249  19.991  0.00  0.00    +0.000 C 
ATOM     16  C   UNL     1       1.802   2.368  18.850  0.00  0.00    +0.000 C 
ATOM     17  O   UNL     1       1.170   3.650  18.977  0.00  0.00    +0.000 OA
ATOM     18  C   UNL     1       1.904   4.429  19.944  0.00  0.00    +0.000 C 
BRANCH  18  19
ATOM     19  C   UNL     1       2.029   5.880  19.525  0.00  0.00    +0.000 A 
ATOM     20  C   UNL     1       2.307   6.202  18.187  0.00  0.00    +0.000 A 
ATOM     21  C   UNL     1       2.305   7.533  17.758  0.00  0.00    +0.000 A 
ATOM     22  C   UNL     1       2.014   8.555  18.662  0.00  0.00    +0.000 A 
ATOM     23 CL   UNL     1       1.951  10.183  18.107  0.00  0.00    +0.000 Cl
ATOM     24  C   UNL     1       1.764   8.247  19.996  0.00  0.00    +0.000 A 
ATOM     25  F   UNL     1       1.477   9.213  20.881  0.00  0.00    +0.000 F 
ATOM     26  C   UNL     1       1.783   6.924  20.431  0.00  0.00    +0.000 A 
ENDBRANCH  18  19
ENDBRANCH   4  14
TORSDOF 3
ENDMDL
MODEL 4
REMARK VINA RESULT:      -8.1      2.909      6.651
REMARK  Name = 
REMARK  4 active torsions:
REMARK  status: ('A' for Active; 'I' for Inactive)
REMARK    1  A    between atoms: C_1  and  C_2
REMARK    2  A    between atoms: C_5  and  C_6
REMARK    3  A    between atoms: C_9  and  C_10
REMARK    4  A    between atoms: C_14  and  C_15
REMARK                            x       y       z     vdW  Elec       q    Type
REMARK                         _______ _______ _______ _____ _____    ______ ____
ROOT
ATOM      1  C   UNL     1       5.523   4.463  17.347  0.00  0.00    +0.000 A 
ATOM      2  N   UNL     1       5.988   5.343  18.249  0.00  0.00    +0.000 NA
ATOM      3  O   UNL     1       5.258   5.055  19.403  0.00  0.00    +0.000 OA
ATOM      4  C   UNL     1       4.429   4.021  19.085  0.00  0.00    +0.000 A 
ATOM      5  N   UNL     1       4.587   3.595  17.857  0.00  0.00    +0.000 NA
ENDROOT
BRANCH   1  10
ATOM      6  C   UNL     1       7.141   4.294  11.805  0.00  0.00    +0.000 C 
ATOM      7  C   UNL     1       6.693   4.338  13.234  0.00  0.00    +0.000 A 
ATOM      8  C   UNL     1       5.547   3.658  13.660  0.00  0.00    +0.000 A 
ATOM      9  C   UNL     1       5.151   3.709  15.001  0.00  0.00    +0.000 A 
ATOM     10  C   UNL     1       5.898   4.434  15.940  0.00  0.00    +0.000 A 
ATOM     11  C   UNL     1       7.050   5.107  15.512  0.00  0.00    +0.000 A 
ATOM     12  C   UNL     1       7.434   5.052  14.176  0.00  0.00    +0.000 A 
ATOM     13  F   UNL     1       8.547   5.699  13.797  0.00  0.00    +0.000 F 
ENDBRANCH   1  10
BRANCH   4  14
ATOM     14  C   UNL     1       3.427   3.609  20.107  0.00  0.00    +0.000 C 
ATOM     15  C   UNL     1       3.015   2.161  19.914  0.00  0.00    +0.000 C 
ATOM     16  C   UNL     1       1.934   2.257  18.854  0.00  0.00    +0.000 C 
ATOM     17  O   UNL     1       1.283   3.524  19.032  0.00  0.00    +0.000 OA
ATOM     18  C   UNL     1       2.073   4.320  19.941  0.00  0.00    +0.000 C 
BRANCH  18  19
ATOM     19  C   UNL     1       2.130   5.773  19.516  0.00  0.00    +0.000 A 
ATOM     20  C   UNL     1       2.315   6.102  18.163  0.00  0.00    +0.000 A 
ATOM     21  C   UNL     1       2.248   7.432  17.737  0.00  0.00    +0.000 A 
ATOM     22  C   UNL     1       1.986   8.446  18.658  0.00  0.00    +0.000 A 
ATOM     23 CL   UNL     1       1.842  10.071  18.109  0.00  0.00    +0.000 Cl
ATOM     24  C   UNL     1       1.829   8.132  20.004  0.00  0.00    +0.000 A 
ATOM     25  F   UNL     1       1.571   9.091  20.907  0.00  0.00    +0.000 F 
ATOM     26  C   UNL     1       1.912   6.811  20.437  0.00  0.00    +0.000 A 
ENDBRANCH  18  19
ENDBRANCH   4  14
TORSDOF 3
ENDMDL
MODEL 5
REMARK VINA RESULT:      -8.0      1.013      1.384
REMARK  Name = 
REMARK  4 active torsions:
REMARK  status: ('A' for Active; 'I' for Inactive)
REMARK    1  A    between atoms: C_1  and  C_2
REMARK    2  A    between atoms: C_5  and  C_6
REMARK    3  A    between atoms: C_9  and  C_10
REMARK    4  A    between atoms: C_14  and  C_15
REMARK                            x       y       z     vdW  Elec       q    Type
REMARK                         _______ _______ _______ _____ _____    ______ ____
ROOT
ATOM      1  C   UNL     1       1.702   6.552  20.122  0.00  0.00    +0.000 A 
ATOM      2  N   UNL     1       1.602   5.585  21.049  0.00  0.00    +0.000 NA
ATOM      3  O   UNL     1       1.835   4.411  20.330  0.00  0.00    +0.000 OA
ATOM      4  C   UNL     1       2.061   4.788  19.040  0.00  0.00    +0.000 A 
ATOM      5  N   UNL     1       2.036   6.086  18.873  0.00  0.00    +0.000 NA
ENDROOT
BRANCH   1  10
ATOM      6  C   UNL     1       0.511  12.141  20.961  0.00  0.00    +0.000 C 
ATOM      7  C   UNL     1       0.833  10.691  20.770  0.00  0.00    +0.000 A 
ATOM      8  C   UNL     1       0.830   9.796  21.845  0.00  0.00    +0.000 A 
ATOM      9  C   UNL     1       1.129   8.444  21.641  0.00  0.00    +0.000 A 
ATOM     10  C   UNL     1       1.429   7.964  20.358  0.00  0.00    +0.000 A 
ATOM     11  C   UNL     1       1.423   8.861  19.282  0.00  0.00    +0.000 A 
ATOM     12  C   UNL     1       1.126  10.203  19.496  0.00  0.00    +0.000 A 
ATOM     13  F   UNL     1       1.121  11.038  18.445  0.00  0.00    +0.000 F 
ENDBRANCH   1  10
BRANCH   4  14
ATOM     14  C   UNL     1       2.193   3.706  18.025  0.00  0.00    +0.000 C 
ATOM     15  C   UNL     1       1.679   2.385  18.565  0.00  0.00    +0.000 C 
ATOM     16  C   UNL     1       2.872   1.847  19.333  0.00  0.00    +0.000 C 
ATOM     17  O   UNL     1       4.049   2.328  18.667  0.00  0.00    +0.000 OA
ATOM     18  C   UNL     1       3.657   3.344  17.721  0.00  0.00    +0.000 C 
BRANCH  18  19
ATOM     19  C   UNL     1       4.637   4.499  17.693  0.00  0.00    +0.000 A 
ATOM     20  C   UNL     1       5.607   4.621  18.701  0.00  0.00    +0.000 A 
ATOM     21  C   UNL     1       6.596   5.608  18.625  0.00  0.00    +0.000 A 
ATOM     22  C   UNL     1       6.629   6.477  17.535  0.00  0.00    +0.000 A 
ATOM     23 CL   UNL     1       7.889   7.645  17.422  0.00  0.00    +0.000 Cl
ATOM     24  C   UNL     1       5.655   6.381  16.545  0.00  0.00    +0.000 A 
ATOM     25  F   UNL     1       5.672   7.204  15.485  0.00  0.00    +0.000 F 
ATOM     26  C   UNL     1       4.659   5.412  16.625  0.00  0.00    +0.000 A 
ENDBRANCH  18  19
ENDBRANCH   4  14
TORSDOF 3
ENDMDL
MODEL 6
REMARK VINA RESULT:      -7.9      1.333      1.887
REMARK  Name = 
REMARK  4 active torsions:
REMARK  status: ('A' for Active; 'I' for Inactive)
REMARK    1  A    between atoms: C_1  and  C_2
REMARK    2  A    between atoms: C_5  and  C_6
REMARK    3  A    between atoms: C_9  and  C_10
REMARK    4  A    between atoms: C_14  and  C_15
REMARK                            x       y       z     vdW  Elec       q    Type
REMARK                         _______ _______ _______ _____ _____    ______ ____
ROOT
ATOM      1  C   UNL     1       1.743   6.618  19.991  0.00  0.00    +0.000 A 
ATOM      2  N   UNL     1       1.692   5.589  20.852  0.00  0.00    +0.000 NA
ATOM      3  O   UNL     1       2.049   4.486  20.074  0.00  0.00    +0.000 OA
ATOM      4  C   UNL     1       2.289   4.962  18.820  0.00  0.00    +0.000 A 
ATOM      5  N   UNL     1       2.161   6.262  18.730  0.00  0.00    +0.000 NA
ENDROOT
BRANCH   1  10
ATOM      6  C   UNL     1       0.266  12.042  21.318  0.00  0.00    +0.000 C 
ATOM      7  C   UNL     1       0.636  10.638  20.948  0.00  0.00    +0.000 A 
ATOM      8  C   UNL     1       0.989  10.300  19.637  0.00  0.00    +0.000 A 
ATOM      9  C   UNL     1       1.336   8.983  19.316  0.00  0.00    +0.000 A 
ATOM     10  C   UNL     1       1.344   7.985  20.300  0.00  0.00    +0.000 A 
ATOM     11  C   UNL     1       0.998   8.329  21.613  0.00  0.00    +0.000 A 
ATOM     12  C   UNL     1       0.653   9.640  21.923  0.00  0.00    +0.000 A 
ATOM     13  F   UNL     1       0.333   9.942  23.191  0.00  0.00    +0.000 F 
ENDBRANCH   1  10
BRANCH   4  14
ATOM     14  C   UNL     1       2.549   3.962  17.747  0.00  0.00    +0.000 C 
ATOM     15  C   UNL     1       1.885   2.635  18.065  0.00  0.00    +0.000 C 
ATOM     16  C   UNL     1       2.895   1.963  18.974  0.00  0.00    +0.000 C 
ATOM     17  O   UNL     1       4.194   2.422  18.570  0.00  0.00    +0.000 OA
ATOM     18  C   UNL     1       4.025   3.536  17.668  0.00  0.00    +0.000 C 
BRANCH  18  19
ATOM     19  C   UNL     1       5.047   4.626  17.917  0.00  0.00    +0.000 A 
ATOM     20  C   UNL     1       5.837   4.595  19.078  0.00  0.00    +0.000 A 
ATOM     21  C   UNL     1       6.868   5.521  19.265  0.00  0.00    +0.000 A 
ATOM     22  C   UNL     1       7.126   6.482  18.287  0.00  0.00    +0.000 A 
ATOM     23 CL   UNL     1       8.439   7.575  18.500  0.00  0.00    +0.000 Cl
ATOM     24  C   UNL     1       6.331   6.537  17.146  0.00  0.00    +0.000 A 
ATOM     25  F   UNL     1       6.564   7.450  16.191  0.00  0.00    +0.000 F 
ATOM     26  C   UNL     1       5.292   5.628  16.964  0.00  0.00    +0.000 A 
ENDBRANCH  18  19
ENDBRANCH   4  14
TORSDOF 3
ENDMDL
MODEL 7
REMARK VINA RESULT:      -7.9      3.932      6.093
REMARK  Name = 
REMARK  4 active torsions:
REMARK  status: ('A' for Active; 'I' for Inactive)
REMARK    1  A    between atoms: C_1  and  C_2
REMARK    2  A    between atoms: C_5  and  C_6
REMARK    3  A    between atoms: C_9  and  C_10
REMARK    4  A    between atoms: C_14  and  C_15
REMARK                            x       y       z     vdW  Elec       q    Type
REMARK                         _______ _______ _______ _____ _____    ______ ____
ROOT
ATOM      1  C   UNL     1       7.977   7.259  18.214  0.00  0.00    +0.000 A 
ATOM      2  N   UNL     1       8.099   6.393  19.235  0.00  0.00    +0.000 NA
ATOM      3  O   UNL     1       7.589   5.200  18.720  0.00  0.00    +0.000 OA
ATOM      4  C   UNL     1       7.218   5.462  17.436  0.00  0.00    +0.000 A 
ATOM      5  N   UNL     1       7.477   6.691  17.066  0.00  0.00    +0.000 NA
ENDROOT
BRANCH   1  10
ATOM      6  C   UNL     1       9.294  12.875  18.501  0.00  0.00    +0.000 C 
ATOM      7  C   UNL     1       8.925  11.426  18.418  0.00  0.00    +0.000 A 
ATOM      8  C   UNL     1       8.059  10.949  17.428  0.00  0.00    +0.000 A 
ATOM      9  C   UNL     1       7.734   9.590  17.366  0.00  0.00    +0.000 A 
ATOM     10  C   UNL     1       8.273   8.683  18.290  0.00  0.00    +0.000 A 
ATOM     11  C   UNL     1       9.146   9.162  19.275  0.00  0.00    +0.000 A 
ATOM     12  C   UNL     1       9.463  10.516  19.329  0.00  0.00    +0.000 A 
ATOM     13  F   UNL     1      10.307  10.944  20.279  0.00  0.00    +0.000 F 
ENDBRANCH   1  10
BRANCH   4  14
ATOM     14  C   UNL     1       6.501   4.384  16.698  0.00  0.00    +0.000 C 
ATOM     15  C   UNL     1       7.047   4.231  15.290  0.00  0.00    +0.000 C 
ATOM     16  C   UNL     1       6.294   5.298  14.519  0.00  0.00    +0.000 C 
ATOM     17  O   UNL     1       5.008   5.436  15.142  0.00  0.00    +0.000 OA
ATOM     18  C   UNL     1       5.032   4.734  16.402  0.00  0.00    +0.000 C 
BRANCH  18  19
ATOM     19  C   UNL     1       4.296   5.493  17.487  0.00  0.00    +0.000 A 
ATOM     20  C   UNL     1       3.867   6.810  17.254  0.00  0.00    +0.000 A 
ATOM     21  C   UNL     1       3.081   7.481  18.197  0.00  0.00    +0.000 A 
ATOM     22  C   UNL     1       2.708   6.839  19.377  0.00  0.00    +0.000 A 
ATOM     23 CL   UNL     1       1.688   7.653  20.498  0.00  0.00    +0.000 Cl
ATOM     24  C   UNL     1       3.152   5.544  19.628  0.00  0.00    +0.000 A 
ATOM     25  F   UNL     1       2.801   4.905  20.755  0.00  0.00    +0.000 F 
ATOM     26  C   UNL     1       3.949   4.877  18.701  0.00  0.00    +0.000 A 
ENDBRANCH  18  19
ENDBRANCH   4  14
TORSDOF 3
ENDMDL
MODEL 8
REMARK VINA RESULT:      -7.8      1.572      2.087
REMARK  Name = 
REMARK  4 active torsions:
REMARK  status: ('A' for Active; 'I' for Inactive)
REMARK    1  A    between atoms: C_1  and  C_2
REMARK    2  A    between atoms: C_5  and  C_6
REMARK    3  A    between atoms: C_9  and  C_10
REMARK    4  A    between atoms: C_14  and  C_15
REMARK                            x       y       z     vdW  Elec       q    Type
REMARK                         _______ _______ _______ _____ _____    ______ ____
ROOT
ATOM      1  C   UNL     1       1.755   7.053  19.833  0.00  0.00    +0.000 A 
ATOM      2  N   UNL     1       1.449   6.472  21.005  0.00  0.00    +0.000 NA
ATOM      3  O   UNL     1       1.701   5.118  20.780  0.00  0.00    +0.000 OA
ATOM      4  C   UNL     1       2.143   5.017  19.495  0.00  0.00    +0.000 A 
ATOM      5  N   UNL     1       2.237   6.176  18.892  0.00  0.00    +0.000 NA
ENDROOT
BRANCH   1  10
ATOM      6  C   UNL     1       1.030  12.675  18.724  0.00  0.00    +0.000 C 
ATOM      7  C   UNL     1       1.213  11.211  18.983  0.00  0.00    +0.000 A 
ATOM      8  C   UNL     1       1.802  10.371  18.033  0.00  0.00    +0.000 A 
ATOM      9  C   UNL     1       1.967   9.007  18.300  0.00  0.00    +0.000 A 
ATOM     10  C   UNL     1       1.553   8.463  19.523  0.00  0.00    +0.000 A 
ATOM     11  C   UNL     1       0.970   9.309  20.476  0.00  0.00    +0.000 A 
ATOM     12  C   UNL     1       0.809  10.663  20.201  0.00  0.00    +0.000 A 
ATOM     13  F   UNL     1       0.255  11.450  21.135  0.00  0.00    +0.000 F 
ENDBRANCH   1  10
BRANCH   4  14
ATOM     14  C   UNL     1       2.347   3.647  18.947  0.00  0.00    +0.000 C 
ATOM     15  C   UNL     1       1.893   2.591  19.938  0.00  0.00    +0.000 C 
ATOM     16  C   UNL     1       3.101   2.438  20.843  0.00  0.00    +0.000 C 
ATOM     17  O   UNL     1       4.262   2.703  20.041  0.00  0.00    +0.000 OA
ATOM     18  C   UNL     1       3.832   3.278  18.790  0.00  0.00    +0.000 C 
BRANCH  18  19
ATOM     19  C   UNL     1       4.751   4.393  18.334  0.00  0.00    +0.000 A 
ATOM     20  C   UNL     1       5.706   4.920  19.219  0.00  0.00    +0.000 A 
ATOM     21  C   UNL     1       6.643   5.862  18.779  0.00  0.00    +0.000 A 
ATOM     22  C   UNL     1       6.639   6.279  17.448  0.00  0.00    +0.000 A 
ATOM     23 CL   UNL     1       7.837   7.389  16.906  0.00  0.00    +0.000 Cl
ATOM     24  C   UNL     1       5.679   5.782  16.572  0.00  0.00    +0.000 A 
ATOM     25  F   UNL     1       5.660   6.165  15.286  0.00  0.00    +0.000 F 
ATOM     26  C   UNL     1       4.733   4.857  17.009  0.00  0.00    +0.000 A 
ENDBRANCH  18  19
ENDBRANCH   4  14
TORSDOF 3
ENDMDL
MODEL 9
REMARK VINA RESULT:      -7.8      3.060      4.332
REMARK  Name = 
REMARK  4 active torsions:
REMARK  status: ('A' for Active; 'I' for Inactive)
REMARK    1  A    between atoms: C_1  and  C_2
REMARK    2  A    between atoms: C_5  and  C_6
REMARK    3  A    between atoms: C_9  and  C_10
REMARK    4  A    between atoms: C_14  and  C_15
REMARK                            x       y       z     vdW  Elec       q    Type
REMARK                         _______ _______ _______ _____ _____    ______ ____
ROOT
ATOM      1  C   UNL     1       3.314   7.530  17.653  0.00  0.00    +0.000 A 
ATOM      2  N   UNL     1       3.637   7.838  16.386  0.00  0.00    +0.000 NA
ATOM      3  O   UNL     1       4.689   6.969  16.091  0.00  0.00    +0.000 OA
ATOM      4  C   UNL     1       4.891   6.216  17.208  0.00  0.00    +0.000 A 
ATOM      5  N   UNL     1       4.047   6.489  18.172  0.00  0.00    +0.000 NA
ENDROOT
BRANCH   1  10
ATOM      6  C   UNL     1      -0.469  10.385  20.955  0.00  0.00    +0.000 C 
ATOM      7  C   UNL     1       0.495   9.650  20.075  0.00  0.00    +0.000 A 
ATOM      8  C   UNL     1       0.741  10.060  18.761  0.00  0.00    +0.000 A 
ATOM      9  C   UNL     1       1.650   9.360  17.959  0.00  0.00    +0.000 A 
ATOM     10  C   UNL     1       2.334   8.244  18.461  0.00  0.00    +0.000 A 
ATOM     11  C   UNL     1       2.092   7.841  19.780  0.00  0.00    +0.000 A 
ATOM     12  C   UNL     1       1.185   8.541  20.569  0.00  0.00    +0.000 A 
ATOM     13  F   UNL     1       0.978   8.137  21.831  0.00  0.00    +0.000 F 
ENDBRANCH   1  10
BRANCH   4  14
ATOM     14  C   UNL     1       6.065   5.299  17.212  0.00  0.00    +0.000 C 
ATOM     15  C   UNL     1       6.813   5.365  15.893  0.00  0.00    +0.000 C 
ATOM     16  C   UNL     1       6.032   4.407  15.014  0.00  0.00    +0.000 C 
ATOM     17  O   UNL     1       5.500   3.388  15.875  0.00  0.00    +0.000 OA
ATOM     18  C   UNL     1       5.666   3.813  17.244  0.00  0.00    +0.000 C 
BRANCH  18  19
ATOM     19  C   UNL     1       4.462   3.465  18.094  0.00  0.00    +0.000 A 
ATOM     20  C   UNL     1       4.615   3.249  19.473  0.00  0.00    +0.000 A 
ATOM     21  C   UNL     1       3.499   3.047  20.293  0.00  0.00    +0.000 A 
ATOM     22  C   UNL     1       2.218   3.069  19.742  0.00  0.00    +0.000 A 
ATOM     23 CL   UNL     1       0.851   2.884  20.771  0.00  0.00    +0.000 Cl
ATOM     24  C   UNL     1       2.059   3.255  18.372  0.00  0.00    +0.000 A 
ATOM     25  F   UNL     1       0.835   3.285  17.822  0.00  0.00    +0.000 F 
ATOM     26  C   UNL     1       3.167   3.439  17.549  0.00  0.00    +0.000 A 
ENDBRANCH  18  19
ENDBRANCH   4  14
TORSDOF 3
ENDMDL
