MODEL 1
REMARK VINA RESULT:      -8.2      0.000      0.000
REMARK  Name = 
REMARK  8 active torsions:
REMARK  status: ('A' for Active; 'I' for Inactive)
REMARK    1  A    between atoms: C_1  and  O_2
REMARK    2  A    between atoms: O_2  and  C_3
REMARK    3  A    between atoms: C_3  and  C_4
REMARK    4  A    between atoms: C_4  and  C_6
REMARK    5  A    between atoms: C_10  and  N_11
REMARK    6  A    between atoms: C_16  and  C_17
REMARK    7  A    between atoms: C_17  and  C_18
REMARK    8  A    between atoms: C_23  and  C_24
REMARK                            x       y       z     vdW  Elec       q    Type
REMARK                         _______ _______ _______ _____ _____    ______ ____
ROOT
ATOM      1  N   UNL     1       4.021   4.768  18.983  0.00  0.00    +0.000 N 
ATOM      2  C   UNL     1       5.375   5.342  19.196  0.00  0.00    +0.000 C 
ATOM      3  C   UNL     1       5.980   5.209  17.825  0.00  0.00    +0.000 A 
ATOM      4  C   UNL     1       5.352   4.127  17.193  0.00  0.00    +0.000 A 
ATOM      5  C   UNL     1       5.536   3.811  15.859  0.00  0.00    +0.000 A 
ATOM      6  C   UNL     1       6.413   4.619  15.117  0.00  0.00    +0.000 A 
ATOM      7  C   UNL     1       7.054   5.716  15.744  0.00  0.00    +0.000 A 
ATOM      8  C   UNL     1       6.838   6.039  17.108  0.00  0.00    +0.000 A 
ATOM      9  C   UNL     1       4.199   3.731  18.035  0.00  0.00    +0.000 C 
ATOM     10  O   UNL     1       3.452   2.804  17.773  0.00  0.00    +0.000 OA
ENDROOT
BRANCH   1  15
ATOM     11  C   UNL     1       2.031   7.760  19.528  0.00  0.00    +0.000 A 
ATOM     12  C   UNL     1       2.484   8.516  18.441  0.00  0.00    +0.000 A 
ATOM     13  C   UNL     1       3.064   7.881  17.348  0.00  0.00    +0.000 A 
ATOM     14  C   UNL     1       3.296   6.514  17.391  0.00  0.00    +0.000 A 
ATOM     15  C   UNL     1       3.080   5.810  18.590  0.00  0.00    +0.000 A 
ATOM     16  C   UNL     1       2.298   6.391  19.591  0.00  0.00    +0.000 A 
BRANCH  11  17
ATOM     17  C   UNL     1       1.358   8.406  20.687  0.00  0.00    +0.000 C 
ATOM     18  O   UNL     1       1.213   7.780  21.735  0.00  0.00    +0.000 OA
BRANCH  17  19
ATOM     19  C   UNL     1       0.851   9.830  20.512  0.00  0.00    +0.000 C 
BRANCH  19  21
ATOM     20  C   UNL     1      -0.837  10.270  18.921  0.00  0.00    +0.000 C 
ATOM     21  O   UNL     1      -0.547   9.916  20.270  0.00  0.00    +0.000 OA
ENDBRANCH  19  21
ENDBRANCH  17  19
ENDBRANCH  11  17
ENDBRANCH   1  15
BRANCH   8  22
ATOM     22  C   UNL     1       7.456   7.295  17.672  0.00  0.00    +0.000 C 
ATOM     23  F   UNL     1       8.142   7.106  18.828  0.00  0.00    +0.000 F 
ATOM     24  F   UNL     1       8.334   7.876  16.811  0.00  0.00    +0.000 F 
ATOM     25  F   UNL     1       6.519   8.245  17.949  0.00  0.00    +0.000 F 
ENDBRANCH   8  22
BRANCH   6  26
ATOM     26  C   UNL     1       6.648   4.317  13.654  0.00  0.00    +0.000 C 
BRANCH  26  27
ATOM     27  C   UNL     1       5.716   3.233  13.113  0.00  0.00    +0.000 C 
ATOM     28  C   UNL     1       6.340   2.478  11.911  0.00  0.00    +0.000 C 
ATOM     29  C   UNL     1       5.022   2.619  11.144  0.00  0.00    +0.000 C 
ATOM     30  C   UNL     1       4.548   3.649  12.181  0.00  0.00    +0.000 C 
ENDBRANCH  26  27
ENDBRANCH   6  26
TORSDOF 7
ENDMDL
MODEL 2
REMARK VINA RESULT:      -7.5      0.854      1.206
REMARK  Name = 
REMARK  8 active torsions:
REMARK  status: ('A' for Active; 'I' for Inactive)
REMARK    1  A    between atoms: C_1  and  O_2
REMARK    2  A    between atoms: O_2  and  C_3
REMARK    3  A    between atoms: C_3  and  C_4
REMARK    4  A    between atoms: C_4  and  C_6
REMARK    5  A    between atoms: C_10  and  N_11
REMARK    6  A    between atoms: C_16  and  C_17
REMARK    7  A    between atoms: C_17  and  C_18
REMARK    8  A    between atoms: C_23  and  C_24
REMARK                            x       y       z     vdW  Elec       q    Type
REMARK                         _______ _______ _______ _____ _____    ______ ____
ROOT
ATOM      1  N   UNL     1       4.097   4.663  19.122  0.00  0.00    +0.000 N 
ATOM      2  C   UNL     1       5.440   5.276  19.296  0.00  0.00    +0.000 C 
ATOM      3  C   UNL     1       6.001   5.179  17.904  0.00  0.00    +0.000 A 
ATOM      4  C   UNL     1       5.385   4.086  17.279  0.00  0.00    +0.000 A 
ATOM      5  C   UNL     1       5.533   3.792  15.936  0.00  0.00    +0.000 A 
ATOM      6  C   UNL     1       6.358   4.637  15.174  0.00  0.00    +0.000 A 
ATOM      7  C   UNL     1       6.986   5.745  15.794  0.00  0.00    +0.000 A 
ATOM      8  C   UNL     1       6.807   6.044  17.169  0.00  0.00    +0.000 A 
ATOM      9  C   UNL     1       4.275   3.643  18.154  0.00  0.00    +0.000 C 
ATOM     10  O   UNL     1       3.548   2.697  17.905  0.00  0.00    +0.000 OA
ENDROOT
BRANCH   1  15
ATOM     11  C   UNL     1       2.084   7.623  19.750  0.00  0.00    +0.000 A 
ATOM     12  C   UNL     1       2.450   8.369  18.625  0.00  0.00    +0.000 A 
ATOM     13  C   UNL     1       2.972   7.729  17.507  0.00  0.00    +0.000 A 
ATOM     14  C   UNL     1       3.235   6.368  17.554  0.00  0.00    +0.000 A 
ATOM     15  C   UNL     1       3.112   5.679  18.775  0.00  0.00    +0.000 A 
ATOM     16  C   UNL     1       2.384   6.260  19.816  0.00  0.00    +0.000 A 
BRANCH  11  17
ATOM     17  C   UNL     1       1.474   8.273  20.940  0.00  0.00    +0.000 C 
ATOM     18  O   UNL     1       2.115   9.107  21.576  0.00  0.00    +0.000 OA
BRANCH  17  19
ATOM     19  C   UNL     1       0.065   7.855  21.335  0.00  0.00    +0.000 C 
BRANCH  19  21
ATOM     20  C   UNL     1      -0.542   9.376  23.036  0.00  0.00    +0.000 C 
ATOM     21  O   UNL     1      -0.775   8.943  21.698  0.00  0.00    +0.000 OA
ENDBRANCH  19  21
ENDBRANCH  17  19
ENDBRANCH  11  17
ENDBRANCH   1  15
BRANCH   8  22
ATOM     22  C   UNL     1       7.405   7.312  17.728  0.00  0.00    +0.000 C 
ATOM     23  F   UNL     1       8.285   7.926  16.896  0.00  0.00    +0.000 F 
ATOM     24  F   UNL     1       6.463   8.247  18.024  0.00  0.00    +0.000 F 
ATOM     25  F   UNL     1       8.087   7.087  18.886  0.00  0.00    +0.000 F 
ENDBRANCH   8  22
BRANCH   6  26
ATOM     26  C   UNL     1       6.551   4.360  13.701  0.00  0.00    +0.000 C 
BRANCH  26  27
ATOM     27  C   UNL     1       5.593   3.297  13.163  0.00  0.00    +0.000 C 
ATOM     28  C   UNL     1       6.203   2.516  11.971  0.00  0.00    +0.000 C 
ATOM     29  C   UNL     1       4.892   2.686  11.196  0.00  0.00    +0.000 C 
ATOM     30  C   UNL     1       4.442   3.738  12.222  0.00  0.00    +0.000 C 
ENDBRANCH  26  27
ENDBRANCH   6  26
TORSDOF 7
ENDMDL
MODEL 3
REMARK VINA RESULT:      -7.3      1.159      1.621
REMARK  Name = 
REMARK  8 active torsions:
REMARK  status: ('A' for Active; 'I' for Inactive)
REMARK    1  A    between atoms: C_1  and  O_2
REMARK    2  A    between atoms: O_2  and  C_3
REMARK    3  A    between atoms: C_3  and  C_4
REMARK    4  A    between atoms: C_4  and  C_6
REMARK    5  A    between atoms: C_10  and  N_11
REMARK    6  A    between atoms: C_16  and  C_17
REMARK    7  A    between atoms: C_17  and  C_18
REMARK    8  A    between atoms: C_23  and  C_24
REMARK                            x       y       z     vdW  Elec       q    Type
REMARK                         _______ _______ _______ _____ _____    ______ ____
ROOT
ATOM      1  N   UNL     1       3.563   5.229  19.701  0.00  0.00    +0.000 N 
ATOM      2  C   UNL     1       4.974   5.694  19.707  0.00  0.00    +0.000 C 
ATOM      3  C   UNL     1       5.478   5.151  18.398  0.00  0.00    +0.000 A 
ATOM      4  C   UNL     1       4.717   4.015  18.094  0.00  0.00    +0.000 A 
ATOM      5  C   UNL     1       4.788   3.350  16.883  0.00  0.00    +0.000 A 
ATOM      6  C   UNL     1       5.686   3.844  15.923  0.00  0.00    +0.000 A 
ATOM      7  C   UNL     1       6.462   4.992  16.218  0.00  0.00    +0.000 A 
ATOM      8  C   UNL     1       6.362   5.675  17.457  0.00  0.00    +0.000 A 
ATOM      9  C   UNL     1       3.586   3.970  19.051  0.00  0.00    +0.000 C 
ATOM     10  O   UNL     1       2.744   3.090  19.067  0.00  0.00    +0.000 OA
ENDROOT
BRANCH   1  15
ATOM     11  C   UNL     1       1.779   8.393  19.580  0.00  0.00    +0.000 A 
ATOM     12  C   UNL     1       2.289   8.876  18.370  0.00  0.00    +0.000 A 
ATOM     13  C   UNL     1       2.831   7.993  17.442  0.00  0.00    +0.000 A 
ATOM     14  C   UNL     1       2.968   6.652  17.770  0.00  0.00    +0.000 A 
ATOM     15  C   UNL     1       2.698   6.226  19.084  0.00  0.00    +0.000 A 
ATOM     16  C   UNL     1       1.952   7.052  19.928  0.00  0.00    +0.000 A 
BRANCH  11  17
ATOM     17  C   UNL     1       1.146   9.307  20.567  0.00  0.00    +0.000 C 
ATOM     18  O   UNL     1       0.691  10.387  20.195  0.00  0.00    +0.000 OA
BRANCH  17  19
ATOM     19  C   UNL     1       1.106   8.864  22.023  0.00  0.00    +0.000 C 
BRANCH  19  21
ATOM     20  C   UNL     1      -0.593   9.958  23.242  0.00  0.00    +0.000 C 
ATOM     21  O   UNL     1       0.797   9.911  22.932  0.00  0.00    +0.000 OA
ENDBRANCH  19  21
ENDBRANCH  17  19
ENDBRANCH  11  17
ENDBRANCH   1  15
BRANCH   8  22
ATOM     22  C   UNL     1       7.125   6.963  17.650  0.00  0.00    +0.000 C 
ATOM     23  F   UNL     1       7.900   6.988  18.765  0.00  0.00    +0.000 F 
ATOM     24  F   UNL     1       7.961   7.234  16.613  0.00  0.00    +0.000 F 
ATOM     25  F   UNL     1       6.295   8.039  17.753  0.00  0.00    +0.000 F 
ENDBRANCH   8  22
BRANCH   6  26
ATOM     26  C   UNL     1       5.802   3.154  14.584  0.00  0.00    +0.000 C 
BRANCH  26  27
ATOM     27  C   UNL     1       5.954   4.134  13.420  0.00  0.00    +0.000 C 
ATOM     28  C   UNL     1       5.938   3.411  12.048  0.00  0.00    +0.000 C 
ATOM     29  C   UNL     1       7.160   4.226  11.611  0.00  0.00    +0.000 C 
ATOM     30  C   UNL     1       7.368   4.663  13.069  0.00  0.00    +0.000 C 
ENDBRANCH  26  27
ENDBRANCH   6  26
TORSDOF 7
ENDMDL
MODEL 4
REMARK VINA RESULT:      -7.2      3.836      8.242
REMARK  Name = 
REMARK  8 active torsions:
REMARK  status: ('A' for Active; 'I' for Inactive)
REMARK    1  A    between atoms: C_1  and  O_2
REMARK    2  A    between atoms: O_2  and  C_3
REMARK    3  A    between atoms: C_3  and  C_4
REMARK    4  A    between atoms: C_4  and  C_6
REMARK    5  A    between atoms: C_10  and  N_11
REMARK    6  A    between atoms: C_16  and  C_17
REMARK    7  A    between atoms: C_17  and  C_18
REMARK    8  A    between atoms: C_23  and  C_24
REMARK                            x       y       z     vdW  Elec       q    Type
REMARK                         _______ _______ _______ _____ _____    ______ ____
ROOT
ATOM      1  N   UNL     1       2.510   7.873  19.353  0.00  0.00    +0.000 N 
ATOM      2  C   UNL     1       2.182   8.628  20.590  0.00  0.00    +0.000 C 
ATOM      3  C   UNL     1       0.933   9.359  20.177  0.00  0.00    +0.000 A 
ATOM      4  C   UNL     1       0.989   9.533  18.788  0.00  0.00    +0.000 A 
ATOM      5  C   UNL     1      -0.065  10.019  18.037  0.00  0.00    +0.000 A 
ATOM      6  C   UNL     1      -1.243  10.365  18.720  0.00  0.00    +0.000 A 
ATOM      7  C   UNL     1      -1.313  10.194  20.125  0.00  0.00    +0.000 A 
ATOM      8  C   UNL     1      -0.228   9.674  20.878  0.00  0.00    +0.000 A 
ATOM      9  C   UNL     1       2.118   8.717  18.284  0.00  0.00    +0.000 C 
ATOM     10  O   UNL     1       2.449   8.663  17.112  0.00  0.00    +0.000 OA
ENDROOT
BRANCH   1  15
ATOM     11  C   UNL     1       2.312   4.317  18.625  0.00  0.00    +0.000 A 
ATOM     12  C   UNL     1       2.071   3.850  19.921  0.00  0.00    +0.000 A 
ATOM     13  C   UNL     1       1.550   4.708  20.884  0.00  0.00    +0.000 A 
ATOM     14  C   UNL     1       1.380   6.052  20.585  0.00  0.00    +0.000 A 
ATOM     15  C   UNL     1       1.872   6.562  19.369  0.00  0.00    +0.000 A 
ATOM     16  C   UNL     1       2.179   5.677  18.334  0.00  0.00    +0.000 A 
BRANCH  11  17
ATOM     17  C   UNL     1       2.817   3.410  17.561  0.00  0.00    +0.000 C 
ATOM     18  O   UNL     1       2.050   3.002  16.692  0.00  0.00    +0.000 OA
BRANCH  17  19
ATOM     19  C   UNL     1       4.283   3.003  17.610  0.00  0.00    +0.000 C 
BRANCH  19  21
ATOM     20  C   UNL     1       5.131   4.592  16.084  0.00  0.00    +0.000 C 
ATOM     21  O   UNL     1       5.185   4.084  17.414  0.00  0.00    +0.000 OA
ENDBRANCH  19  21
ENDBRANCH  17  19
ENDBRANCH  11  17
ENDBRANCH   1  15
BRANCH   8  22
ATOM     22  C   UNL     1      -0.421   9.401  22.350  0.00  0.00    +0.000 C 
ATOM     23  F   UNL     1       0.723   9.458  23.080  0.00  0.00    +0.000 F 
ATOM     24  F   UNL     1      -1.277  10.280  22.935  0.00  0.00    +0.000 F 
ATOM     25  F   UNL     1      -0.942   8.162  22.575  0.00  0.00    +0.000 F 
ENDBRANCH   8  22
BRANCH   6  26
ATOM     26  C   UNL     1      -2.425  10.900  17.946  0.00  0.00    +0.000 C 
BRANCH  26  27
ATOM     27  C   UNL     1      -2.289  10.701  16.436  0.00  0.00    +0.000 C 
ATOM     28  C   UNL     1      -3.405  11.436  15.650  0.00  0.00    +0.000 C 
ATOM     29  C   UNL     1      -3.633  10.177  14.808  0.00  0.00    +0.000 C 
ATOM     30  C   UNL     1      -2.790   9.374  15.810  0.00  0.00    +0.000 C 
ENDBRANCH  26  27
ENDBRANCH   6  26
TORSDOF 7
ENDMDL
MODEL 5
REMARK VINA RESULT:      -7.1      1.072      1.535
REMARK  Name = 
REMARK  8 active torsions:
REMARK  status: ('A' for Active; 'I' for Inactive)
REMARK    1  A    between atoms: C_1  and  O_2
REMARK    2  A    between atoms: O_2  and  C_3
REMARK    3  A    between atoms: C_3  and  C_4
REMARK    4  A    between atoms: C_4  and  C_6
REMARK    5  A    between atoms: C_10  and  N_11
REMARK    6  A    between atoms: C_16  and  C_17
REMARK    7  A    between atoms: C_17  and  C_18
REMARK    8  A    between atoms: C_23  and  C_24
REMARK                            x       y       z     vdW  Elec       q    Type
REMARK                         _______ _______ _______ _____ _____    ______ ____
ROOT
ATOM      1  N   UNL     1       3.711   5.089  19.727  0.00  0.00    +0.000 N 
ATOM      2  C   UNL     1       5.107   5.596  19.700  0.00  0.00    +0.000 C 
ATOM      3  C   UNL     1       5.581   5.109  18.358  0.00  0.00    +0.000 A 
ATOM      4  C   UNL     1       4.843   3.960  18.044  0.00  0.00    +0.000 A 
ATOM      5  C   UNL     1       4.891   3.335  16.812  0.00  0.00    +0.000 A 
ATOM      6  C   UNL     1       5.742   3.885  15.838  0.00  0.00    +0.000 A 
ATOM      7  C   UNL     1       6.494   5.047  16.143  0.00  0.00    +0.000 A 
ATOM      8  C   UNL     1       6.416   5.688  17.406  0.00  0.00    +0.000 A 
ATOM      9  C   UNL     1       3.748   3.852  19.037  0.00  0.00    +0.000 C 
ATOM     10  O   UNL     1       2.933   2.947  19.054  0.00  0.00    +0.000 OA
ENDROOT
BRANCH   1  15
ATOM     11  C   UNL     1       1.804   8.183  19.782  0.00  0.00    +0.000 A 
ATOM     12  C   UNL     1       2.272   8.740  18.587  0.00  0.00    +0.000 A 
ATOM     13  C   UNL     1       2.831   7.922  17.611  0.00  0.00    +0.000 A 
ATOM     14  C   UNL     1       3.025   6.574  17.874  0.00  0.00    +0.000 A 
ATOM     15  C   UNL     1       2.797   6.078  19.171  0.00  0.00    +0.000 A 
ATOM     16  C   UNL     1       2.035   6.835  20.065  0.00  0.00    +0.000 A 
BRANCH  11  17
ATOM     17  C   UNL     1       1.154   9.025  20.821  0.00  0.00    +0.000 C 
ATOM     18  O   UNL     1       1.086   8.621  21.980  0.00  0.00    +0.000 OA
BRANCH  17  19
ATOM     19  C   UNL     1       0.574  10.364  20.390  0.00  0.00    +0.000 C 
BRANCH  19  21
ATOM     20  C   UNL     1       1.473  12.540  20.570  0.00  0.00    +0.000 C 
ATOM     21  O   UNL     1       0.898  11.437  21.265  0.00  0.00    +0.000 OA
ENDBRANCH  19  21
ENDBRANCH  17  19
ENDBRANCH  11  17
ENDBRANCH   1  15
BRANCH   8  22
ATOM     22  C   UNL     1       7.149   6.991  17.614  0.00  0.00    +0.000 C 
ATOM     23  F   UNL     1       8.006   7.313  16.611  0.00  0.00    +0.000 F 
ATOM     24  F   UNL     1       6.305   8.051  17.732  0.00  0.00    +0.000 F 
ATOM     25  F   UNL     1       7.898   6.980  18.752  0.00  0.00    +0.000 F 
ENDBRANCH   8  22
BRANCH   6  26
ATOM     26  C   UNL     1       5.831   3.240  14.474  0.00  0.00    +0.000 C 
BRANCH  26  27
ATOM     27  C   UNL     1       6.022   4.255  13.347  0.00  0.00    +0.000 C 
ATOM     28  C   UNL     1       6.094   3.570  11.957  0.00  0.00    +0.000 C 
ATOM     29  C   UNL     1       7.318   4.422  11.608  0.00  0.00    +0.000 C 
ATOM     30  C   UNL     1       7.441   4.822  13.086  0.00  0.00    +0.000 C 
ENDBRANCH  26  27
ENDBRANCH   6  26
TORSDOF 7
ENDMDL
MODEL 6
REMARK VINA RESULT:      -7.1      7.705     10.981
REMARK  Name = 
REMARK  8 active torsions:
REMARK  status: ('A' for Active; 'I' for Inactive)
REMARK    1  A    between atoms: C_1  and  O_2
REMARK    2  A    between atoms: O_2  and  C_3
REMARK    3  A    between atoms: C_3  and  C_4
REMARK    4  A    between atoms: C_4  and  C_6
REMARK    5  A    between atoms: C_10  and  N_11
REMARK    6  A    between atoms: C_16  and  C_17
REMARK    7  A    between atoms: C_17  and  C_18
REMARK    8  A    between atoms: C_23  and  C_24
REMARK                            x       y       z     vdW  Elec       q    Type
REMARK                         _______ _______ _______ _____ _____    ______ ____
ROOT
ATOM      1  N   UNL     1      -0.267  11.276  18.326  0.00  0.00    +0.000 N 
ATOM      2  C   UNL     1       0.490  10.487  19.332  0.00  0.00    +0.000 C 
ATOM      3  C   UNL     1       0.101  11.173  20.612  0.00  0.00    +0.000 A 
ATOM      4  C   UNL     1      -0.214  12.501  20.297  0.00  0.00    +0.000 A 
ATOM      5  C   UNL     1      -0.774  13.388  21.199  0.00  0.00    +0.000 A 
ATOM      6  C   UNL     1      -1.019  12.920  22.500  0.00  0.00    +0.000 A 
ATOM      7  C   UNL     1      -0.704  11.580  22.833  0.00  0.00    +0.000 A 
ATOM      8  C   UNL     1      -0.150  10.677  21.889  0.00  0.00    +0.000 A 
ATOM      9  C   UNL     1      -0.272  12.604  18.820  0.00  0.00    +0.000 C 
ATOM     10  O   UNL     1      -0.507  13.638  18.218  0.00  0.00    +0.000 OA
ENDROOT
BRANCH   1  15
ATOM     11  C   UNL     1      -3.869  11.407  17.858  0.00  0.00    +0.000 A 
ATOM     12  C   UNL     1      -3.951  10.695  16.657  0.00  0.00    +0.000 A 
ATOM     13  C   UNL     1      -2.921   9.837  16.285  0.00  0.00    +0.000 A 
ATOM     14  C   UNL     1      -1.766   9.780  17.051  0.00  0.00    +0.000 A 
ATOM     15  C   UNL     1      -1.585  10.694  18.106  0.00  0.00    +0.000 A 
ATOM     16  C   UNL     1      -2.691  11.382  18.608  0.00  0.00    +0.000 A 
BRANCH  11  17
ATOM     17  C   UNL     1      -4.978  12.290  18.306  0.00  0.00    +0.000 C 
ATOM     18  O   UNL     1      -5.054  12.622  19.487  0.00  0.00    +0.000 OA
BRANCH  17  19
ATOM     19  C   UNL     1      -5.999  12.733  17.268  0.00  0.00    +0.000 C 
BRANCH  19  21
ATOM     20  C   UNL     1      -7.433  14.433  16.477  0.00  0.00    +0.000 C 
ATOM     21  O   UNL     1      -6.469  14.061  17.458  0.00  0.00    +0.000 OA
ENDBRANCH  19  21
ENDBRANCH  17  19
ENDBRANCH  11  17
ENDBRANCH   1  15
BRANCH   8  22
ATOM     22  C   UNL     1       0.040   9.232  22.279  0.00  0.00    +0.000 C 
ATOM     23  F   UNL     1       1.282   8.745  22.023  0.00  0.00    +0.000 F 
ATOM     24  F   UNL     1      -0.175   9.017  23.605  0.00  0.00    +0.000 F 
ATOM     25  F   UNL     1      -0.823   8.407  21.621  0.00  0.00    +0.000 F 
ENDBRANCH   8  22
BRANCH   6  26
ATOM     26  C   UNL     1      -1.630  13.849  23.524  0.00  0.00    +0.000 C 
BRANCH  26  27
ATOM     27  C   UNL     1      -3.153  13.931  23.422  0.00  0.00    +0.000 C 
ATOM     28  C   UNL     1      -3.841  13.666  24.786  0.00  0.00    +0.000 C 
ATOM     29  C   UNL     1      -4.825  12.714  24.099  0.00  0.00    +0.000 C 
ATOM     30  C   UNL     1      -3.928  12.715  22.851  0.00  0.00    +0.000 C 
ENDBRANCH  26  27
ENDBRANCH   6  26
TORSDOF 7
ENDMDL
MODEL 7
REMARK VINA RESULT:      -7.1      3.771      8.537
REMARK  Name = 
REMARK  8 active torsions:
REMARK  status: ('A' for Active; 'I' for Inactive)
REMARK    1  A    between atoms: C_1  and  O_2
REMARK    2  A    between atoms: O_2  and  C_3
REMARK    3  A    between atoms: C_3  and  C_4
REMARK    4  A    between atoms: C_4  and  C_6
REMARK    5  A    between atoms: C_10  and  N_11
REMARK    6  A    between atoms: C_16  and  C_17
REMARK    7  A    between atoms: C_17  and  C_18
REMARK    8  A    between atoms: C_23  and  C_24
REMARK                            x       y       z     vdW  Elec       q    Type
REMARK                         _______ _______ _______ _____ _____    ______ ____
ROOT
ATOM      1  N   UNL     1       2.670   7.475  19.355  0.00  0.00    +0.000 N 
ATOM      2  C   UNL     1       2.294   8.268  20.554  0.00  0.00    +0.000 C 
ATOM      3  C   UNL     1       1.168   9.110  20.020  0.00  0.00    +0.000 A 
ATOM      4  C   UNL     1       1.378   9.267  18.643  0.00  0.00    +0.000 A 
ATOM      5  C   UNL     1       0.455   9.845  17.791  0.00  0.00    +0.000 A 
ATOM      6  C   UNL     1      -0.746  10.307  18.354  0.00  0.00    +0.000 A 
ATOM      7  C   UNL     1      -0.972  10.154  19.744  0.00  0.00    +0.000 A 
ATOM      8  C   UNL     1      -0.022   9.540  20.601  0.00  0.00    +0.000 A 
ATOM      9  C   UNL     1       2.469   8.344  18.254  0.00  0.00    +0.000 C 
ATOM     10  O   UNL     1       2.909   8.249  17.121  0.00  0.00    +0.000 OA
ENDROOT
BRANCH   1  15
ATOM     11  C   UNL     1       2.222   3.938  18.648  0.00  0.00    +0.000 A 
ATOM     12  C   UNL     1       1.778   3.526  19.909  0.00  0.00    +0.000 A 
ATOM     13  C   UNL     1       1.226   4.452  20.788  0.00  0.00    +0.000 A 
ATOM     14  C   UNL     1       1.225   5.798  20.455  0.00  0.00    +0.000 A 
ATOM     15  C   UNL     1       1.912   6.231  19.306  0.00  0.00    +0.000 A 
ATOM     16  C   UNL     1       2.259   5.296  18.327  0.00  0.00    +0.000 A 
BRANCH  11  17
ATOM     17  C   UNL     1       2.767   2.962  17.667  0.00  0.00    +0.000 C 
ATOM     18  O   UNL     1       2.028   2.107  17.183  0.00  0.00    +0.000 OA
BRANCH  17  19
ATOM     19  C   UNL     1       4.245   3.055  17.317  0.00  0.00    +0.000 C 
BRANCH  19  21
ATOM     20  C   UNL     1       5.920   4.143  16.059  0.00  0.00    +0.000 C 
ATOM     21  O   UNL     1       4.522   3.922  16.226  0.00  0.00    +0.000 OA
ENDBRANCH  19  21
ENDBRANCH  17  19
ENDBRANCH  11  17
ENDBRANCH   1  15
BRANCH   8  22
ATOM     22  C   UNL     1      -0.385   9.298  22.046  0.00  0.00    +0.000 C 
ATOM     23  F   UNL     1      -1.258  10.204  22.559  0.00  0.00    +0.000 F 
ATOM     24  F   UNL     1      -0.958   8.081  22.243  0.00  0.00    +0.000 F 
ATOM     25  F   UNL     1       0.707   9.336  22.860  0.00  0.00    +0.000 F 
ENDBRANCH   8  22
BRANCH   6  26
ATOM     26  C   UNL     1      -1.789  10.946  17.466  0.00  0.00    +0.000 C 
BRANCH  26  27
ATOM     27  C   UNL     1      -3.219  10.605  17.885  0.00  0.00    +0.000 C 
ATOM     28  C   UNL     1      -4.207  10.679  16.692  0.00  0.00    +0.000 C 
ATOM     29  C   UNL     1      -5.186  11.477  17.559  0.00  0.00    +0.000 C 
ATOM     30  C   UNL     1      -4.069  11.693  18.592  0.00  0.00    +0.000 C 
ENDBRANCH  26  27
ENDBRANCH   6  26
TORSDOF 7
ENDMDL
MODEL 8
REMARK VINA RESULT:      -7.1      6.162      8.882
REMARK  Name = 
REMARK  8 active torsions:
REMARK  status: ('A' for Active; 'I' for Inactive)
REMARK    1  A    between atoms: C_1  and  O_2
REMARK    2  A    between atoms: O_2  and  C_3
REMARK    3  A    between atoms: C_3  and  C_4
REMARK    4  A    between atoms: C_4  and  C_6
REMARK    5  A    between atoms: C_10  and  N_11
REMARK    6  A    between atoms: C_16  and  C_17
REMARK    7  A    between atoms: C_17  and  C_18
REMARK    8  A    between atoms: C_23  and  C_24
REMARK                            x       y       z     vdW  Elec       q    Type
REMARK                         _______ _______ _______ _____ _____    ______ ____
ROOT
ATOM      1  N   UNL     1       0.312  13.573  20.352  0.00  0.00    +0.000 N 
ATOM      2  C   UNL     1      -0.769  13.374  19.353  0.00  0.00    +0.000 C 
ATOM      3  C   UNL     1      -0.362  12.071  18.721  0.00  0.00    +0.000 A 
ATOM      4  C   UNL     1       1.029  11.963  18.842  0.00  0.00    +0.000 A 
ATOM      5  C   UNL     1       1.737  10.819  18.520  0.00  0.00    +0.000 A 
ATOM      6  C   UNL     1       1.008   9.721  18.035  0.00  0.00    +0.000 A 
ATOM      7  C   UNL     1      -0.400   9.817  17.907  0.00  0.00    +0.000 A 
ATOM      8  C   UNL     1      -1.112  10.991  18.261  0.00  0.00    +0.000 A 
ATOM      9  C   UNL     1       1.480  13.043  19.750  0.00  0.00    +0.000 C 
ATOM     10  O   UNL     1       2.646  13.238  20.050  0.00  0.00    +0.000 OA
ENDROOT
BRANCH   1  15
ATOM     11  C   UNL     1      -1.969  12.781  23.068  0.00  0.00    +0.000 A 
ATOM     12  C   UNL     1      -1.820  11.390  23.070  0.00  0.00    +0.000 A 
ATOM     13  C   UNL     1      -0.684  10.813  22.512  0.00  0.00    +0.000 A 
ATOM     14  C   UNL     1       0.239  11.611  21.854  0.00  0.00    +0.000 A 
ATOM     15  C   UNL     1      -0.052  12.969  21.628  0.00  0.00    +0.000 A 
ATOM     16  C   UNL     1      -1.062  13.583  22.372  0.00  0.00    +0.000 A 
BRANCH  11  17
ATOM     17  C   UNL     1      -3.146  13.429  23.705  0.00  0.00    +0.000 C 
ATOM     18  O   UNL     1      -2.989  14.426  24.407  0.00  0.00    +0.000 OA
BRANCH  17  19
ATOM     19  C   UNL     1      -4.515  12.806  23.470  0.00  0.00    +0.000 C 
BRANCH  19  21
ATOM     20  C   UNL     1      -6.182  12.597  21.813  0.00  0.00    +0.000 C 
ATOM     21  O   UNL     1      -4.790  12.523  22.105  0.00  0.00    +0.000 OA
ENDBRANCH  19  21
ENDBRANCH  17  19
ENDBRANCH  11  17
ENDBRANCH   1  15
BRANCH   8  22
ATOM     22  C   UNL     1      -2.621  10.975  18.218  0.00  0.00    +0.000 C 
ATOM     23  F   UNL     1      -3.159   9.744  18.020  0.00  0.00    +0.000 F 
ATOM     24  F   UNL     1      -3.180  11.442  19.366  0.00  0.00    +0.000 F 
ATOM     25  F   UNL     1      -3.111  11.759  17.217  0.00  0.00    +0.000 F 
ENDBRANCH   8  22
BRANCH   6  26
ATOM     26  C   UNL     1       1.734   8.446  17.669  0.00  0.00    +0.000 C 
BRANCH  26  27
ATOM     27  C   UNL     1       2.465   7.816  18.855  0.00  0.00    +0.000 C 
ATOM     28  C   UNL     1       2.468   6.267  18.777  0.00  0.00    +0.000 C 
ATOM     29  C   UNL     1       2.058   6.197  20.251  0.00  0.00    +0.000 C 
ATOM     30  C   UNL     1       1.722   7.696  20.211  0.00  0.00    +0.000 C 
ENDBRANCH  26  27
ENDBRANCH   6  26
TORSDOF 7
ENDMDL
MODEL 9
REMARK VINA RESULT:      -7.0      5.173      9.247
REMARK  Name = 
REMARK  8 active torsions:
REMARK  status: ('A' for Active; 'I' for Inactive)
REMARK    1  A    between atoms: C_1  and  O_2
REMARK    2  A    between atoms: O_2  and  C_3
REMARK    3  A    between atoms: C_3  and  C_4
REMARK    4  A    between atoms: C_4  and  C_6
REMARK    5  A    between atoms: C_10  and  N_11
REMARK    6  A    between atoms: C_16  and  C_17
REMARK    7  A    between atoms: C_17  and  C_18
REMARK    8  A    between atoms: C_23  and  C_24
REMARK                            x       y       z     vdW  Elec       q    Type
REMARK                         _______ _______ _______ _____ _____    ______ ____
ROOT
ATOM      1  N   UNL     1       0.112   9.170  20.891  0.00  0.00    +0.000 N 
ATOM      2  C   UNL     1      -1.092   9.201  20.020  0.00  0.00    +0.000 C 
ATOM      3  C   UNL     1      -1.097  10.632  19.558  0.00  0.00    +0.000 A 
ATOM      4  C   UNL     1      -0.459  11.394  20.546  0.00  0.00    +0.000 A 
ATOM      5  C   UNL     1      -0.132  12.728  20.389  0.00  0.00    +0.000 A 
ATOM      6  C   UNL     1      -0.478  13.341  19.173  0.00  0.00    +0.000 A 
ATOM      7  C   UNL     1      -1.123  12.583  18.166  0.00  0.00    +0.000 A 
ATOM      8  C   UNL     1      -1.432  11.209  18.336  0.00  0.00    +0.000 A 
ATOM      9  C   UNL     1       0.164  10.448  21.501  0.00  0.00    +0.000 C 
ATOM     10  O   UNL     1       0.784  10.792  22.493  0.00  0.00    +0.000 OA
ENDROOT
BRANCH   1  15
ATOM     11  C   UNL     1       2.376   6.832  19.274  0.00  0.00    +0.000 A 
ATOM     12  C   UNL     1       2.376   7.391  17.992  0.00  0.00    +0.000 A 
ATOM     13  C   UNL     1       2.011   8.721  17.814  0.00  0.00    +0.000 A 
ATOM     14  C   UNL     1       1.539   9.454  18.893  0.00  0.00    +0.000 A 
ATOM     15  C   UNL     1       1.293   8.807  20.118  0.00  0.00    +0.000 A 
ATOM     16  C   UNL     1       1.864   7.554  20.354  0.00  0.00    +0.000 A 
BRANCH  11  17
ATOM     17  C   UNL     1       2.812   5.429  19.501  0.00  0.00    +0.000 C 
ATOM     18  O   UNL     1       3.996   5.187  19.726  0.00  0.00    +0.000 OA
BRANCH  17  19
ATOM     19  C   UNL     1       1.758   4.334  19.425  0.00  0.00    +0.000 C 
BRANCH  19  21
ATOM     20  C   UNL     1       1.698   3.192  21.490  0.00  0.00    +0.000 C 
ATOM     21  O   UNL     1       1.050   4.135  20.642  0.00  0.00    +0.000 OA
ENDBRANCH  19  21
ENDBRANCH  17  19
ENDBRANCH  11  17
ENDBRANCH   1  15
BRANCH   8  22
ATOM     22  C   UNL     1      -2.004  10.436  17.173  0.00  0.00    +0.000 C 
ATOM     23  F   UNL     1      -3.178   9.809  17.444  0.00  0.00    +0.000 F 
ATOM     24  F   UNL     1      -2.248  11.224  16.092  0.00  0.00    +0.000 F 
ATOM     25  F   UNL     1      -1.155   9.460  16.741  0.00  0.00    +0.000 F 
ENDBRANCH   8  22
BRANCH   6  26
ATOM     26  C   UNL     1      -0.142  14.798  18.951  0.00  0.00    +0.000 C 
BRANCH  26  27
ATOM     27  C   UNL     1       1.342  15.106  19.155  0.00  0.00    +0.000 C 
ATOM     28  C   UNL     1       1.772  16.402  18.421  0.00  0.00    +0.000 C 
ATOM     29  C   UNL     1       3.004  15.676  17.871  0.00  0.00    +0.000 C 
ATOM     30  C   UNL     1       2.387  14.337  18.306  0.00  0.00    +0.000 C 
ENDBRANCH  26  27
ENDBRANCH   6  26
TORSDOF 7
ENDMDL
