MODEL 1
REMARK VINA RESULT:      -8.7      0.000      0.000
REMARK  Name = 
REMARK  4 active torsions:
REMARK  status: ('A' for Active; 'I' for Inactive)
REMARK    1  A    between atoms: S_2  and  N_4
REMARK    2  A    between atoms: S_2  and  C_19
REMARK    3  A    between atoms: C_8  and  C_9
REMARK    4  A    between atoms: C_9  and  C_10
REMARK                            x       y       z     vdW  Elec       q    Type
REMARK                         _______ _______ _______ _____ _____    ______ ____
ROOT
ATOM      1  N   UNL     1       6.152   3.850  16.122  0.00  0.00    +0.000 N 
ATOM      2  C   UNL     1       5.321   4.456  17.109  0.00  0.00    +0.000 A 
ATOM      3  N   UNL     1       5.881   5.056  18.129  0.00  0.00    +0.000 NA
ATOM      4  N   UNL     1       4.939   5.519  19.021  0.00  0.00    +0.000 NA
ATOM      5  C   UNL     1       3.714   5.197  18.655  0.00  0.00    +0.000 A 
ATOM      6  S   UNL     1       3.618   4.314  17.188  0.00  0.00    +0.000 S 
ATOM      7  H   UNL     1       7.067   3.780  16.576  0.00  0.00    +0.000 HD
ENDROOT
BRANCH   1   9
ATOM      8  O   UNL     1       5.421   5.993  14.874  0.00  0.00    +0.000 OA
ATOM      9  S   UNL     1       6.417   4.958  14.861  0.00  0.00    +0.000 S 
ATOM     10  O   UNL     1       7.833   5.242  14.847  0.00  0.00    +0.000 OA
BRANCH   9  11
ATOM     11  C   UNL     1       6.075   3.932  13.448  0.00  0.00    +0.000 A 
ATOM     12  C   UNL     1       4.764   3.836  12.973  0.00  0.00    +0.000 A 
ATOM     13  C   UNL     1       4.521   3.106  11.815  0.00  0.00    +0.000 A 
ATOM     14  F   UNL     1       3.270   3.012  11.349  0.00  0.00    +0.000 F 
ATOM     15  C   UNL     1       5.554   2.481  11.127  0.00  0.00    +0.000 A 
ATOM     16  C   UNL     1       6.850   2.589  11.616  0.00  0.00    +0.000 A 
ATOM     17  F   UNL     1       7.853   1.994  10.956  0.00  0.00    +0.000 F 
ATOM     18  C   UNL     1       7.127   3.311  12.771  0.00  0.00    +0.000 A 
ENDBRANCH   9  11
ENDBRANCH   1   9
BRANCH   5  19
ATOM     19  C   UNL     1       2.521   5.493  19.576  0.00  0.00    +0.000 C 
ATOM     20  C   UNL     1       2.482   4.678  20.869  0.00  0.00    +0.000 C 
ATOM     21  C   UNL     1       1.442   4.453  19.806  0.00  0.00    +0.000 C 
BRANCH  19  22
ATOM     22  C   UNL     1       2.176   6.964  19.771  0.00  0.00    +0.000 A 
ATOM     23  C   UNL     1       2.269   7.882  18.710  0.00  0.00    +0.000 A 
ATOM     24  C   UNL     1       1.576   9.092  18.747  0.00  0.00    +0.000 A 
ATOM     25  C   UNL     1       0.834   9.434  19.874  0.00  0.00    +0.000 A 
ATOM     26  C   UNL     1       0.855   8.609  20.995  0.00  0.00    +0.000 A 
ATOM     27  C   UNL     1       1.536   7.393  20.948  0.00  0.00    +0.000 A 
ENDBRANCH  19  22
ENDBRANCH   5  19
TORSDOF 4
ENDMDL
MODEL 2
REMARK VINA RESULT:      -8.5      0.173      1.621
REMARK  Name = 
REMARK  4 active torsions:
REMARK  status: ('A' for Active; 'I' for Inactive)
REMARK    1  A    between atoms: S_2  and  N_4
REMARK    2  A    between atoms: S_2  and  C_19
REMARK    3  A    between atoms: C_8  and  C_9
REMARK    4  A    between atoms: C_9  and  C_10
REMARK                            x       y       z     vdW  Elec       q    Type
REMARK                         _______ _______ _______ _____ _____    ______ ____
ROOT
ATOM      1  N   UNL     1       6.256   3.876  15.983  0.00  0.00    +0.000 N 
ATOM      2  C   UNL     1       5.411   4.449  16.977  0.00  0.00    +0.000 A 
ATOM      3  N   UNL     1       5.955   5.047  18.007  0.00  0.00    +0.000 NA
ATOM      4  N   UNL     1       5.002   5.475  18.903  0.00  0.00    +0.000 NA
ATOM      5  C   UNL     1       3.785   5.131  18.531  0.00  0.00    +0.000 A 
ATOM      6  S   UNL     1       3.711   4.267  17.052  0.00  0.00    +0.000 S 
ATOM      7  H   UNL     1       7.172   3.821  16.438  0.00  0.00    +0.000 HD
ENDROOT
BRANCH   1   9
ATOM      8  O   UNL     1       5.513   6.052  14.801  0.00  0.00    +0.000 OA
ATOM      9  S   UNL     1       6.497   5.008  14.738  0.00  0.00    +0.000 S 
ATOM     10  O   UNL     1       7.915   5.279  14.691  0.00  0.00    +0.000 OA
BRANCH   9  11
ATOM     11  C   UNL     1       6.106   4.016  13.314  0.00  0.00    +0.000 A 
ATOM     12  C   UNL     1       7.113   3.256  12.712  0.00  0.00    +0.000 A 
ATOM     13  C   UNL     1       6.780   2.414  11.658  0.00  0.00    +0.000 A 
ATOM     14  F   UNL     1       7.736   1.678  11.078  0.00  0.00    +0.000 F 
ATOM     15  C   UNL     1       5.471   2.313  11.203  0.00  0.00    +0.000 A 
ATOM     16  C   UNL     1       4.485   3.076  11.815  0.00  0.00    +0.000 A 
ATOM     17  F   UNL     1       3.219   2.981  11.386  0.00  0.00    +0.000 F 
ATOM     18  C   UNL     1       4.784   3.929  12.871  0.00  0.00    +0.000 A 
ENDBRANCH   9  11
ENDBRANCH   1   9
BRANCH   5  19
ATOM     19  C   UNL     1       2.585   5.386  19.455  0.00  0.00    +0.000 C 
ATOM     20  C   UNL     1       2.532   4.510  20.707  0.00  0.00    +0.000 C 
ATOM     21  C   UNL     1       1.501   4.340  19.625  0.00  0.00    +0.000 C 
BRANCH  19  22
ATOM     22  C   UNL     1       2.242   6.847  19.716  0.00  0.00    +0.000 A 
ATOM     23  C   UNL     1       2.283   7.802  18.685  0.00  0.00    +0.000 A 
ATOM     24  C   UNL     1       1.587   9.006  18.795  0.00  0.00    +0.000 A 
ATOM     25  C   UNL     1       0.894   9.303  19.965  0.00  0.00    +0.000 A 
ATOM     26  C   UNL     1       0.967   8.439  21.054  0.00  0.00    +0.000 A 
ATOM     27  C   UNL     1       1.651   7.230  20.935  0.00  0.00    +0.000 A 
ENDBRANCH  19  22
ENDBRANCH   5  19
TORSDOF 4
ENDMDL
MODEL 3
REMARK VINA RESULT:      -8.5      1.508      1.670
REMARK  Name = 
REMARK  4 active torsions:
REMARK  status: ('A' for Active; 'I' for Inactive)
REMARK    1  A    between atoms: S_2  and  N_4
REMARK    2  A    between atoms: S_2  and  C_19
REMARK    3  A    between atoms: C_8  and  C_9
REMARK    4  A    between atoms: C_9  and  C_10
REMARK                            x       y       z     vdW  Elec       q    Type
REMARK                         _______ _______ _______ _____ _____    ______ ____
ROOT
ATOM      1  N   UNL     1       5.741   3.584  16.584  0.00  0.00    +0.000 N 
ATOM      2  C   UNL     1       4.949   4.066  17.666  0.00  0.00    +0.000 A 
ATOM      3  N   UNL     1       5.283   3.744  18.891  0.00  0.00    +0.000 NA
ATOM      4  N   UNL     1       4.373   4.227  19.805  0.00  0.00    +0.000 NA
ATOM      5  C   UNL     1       3.366   4.845  19.220  0.00  0.00    +0.000 A 
ATOM      6  S   UNL     1       3.459   4.892  17.508  0.00  0.00    +0.000 S 
ATOM      7  H   UNL     1       6.292   2.826  16.997  0.00  0.00    +0.000 HD
ENDROOT
BRANCH   1   9
ATOM      8  O   UNL     1       6.408   6.077  16.433  0.00  0.00    +0.000 OA
ATOM      9  S   UNL     1       6.908   4.753  16.185  0.00  0.00    +0.000 S 
ATOM     10  O   UNL     1       8.165   4.285  16.720  0.00  0.00    +0.000 OA
BRANCH   9  11
ATOM     11  C   UNL     1       6.982   4.552  14.419  0.00  0.00    +0.000 A 
ATOM     12  C   UNL     1       6.263   3.514  13.818  0.00  0.00    +0.000 A 
ATOM     13  C   UNL     1       6.253   3.420  12.432  0.00  0.00    +0.000 A 
ATOM     14  F   UNL     1       5.564   2.433  11.846  0.00  0.00    +0.000 F 
ATOM     15  C   UNL     1       6.936   4.337  11.642  0.00  0.00    +0.000 A 
ATOM     16  C   UNL     1       7.645   5.360  12.259  0.00  0.00    +0.000 A 
ATOM     17  F   UNL     1       8.302   6.252  11.505  0.00  0.00    +0.000 F 
ATOM     18  C   UNL     1       7.676   5.483  13.643  0.00  0.00    +0.000 A 
ENDBRANCH   9  11
ENDBRANCH   1   9
BRANCH   5  19
ATOM     19  C   UNL     1       2.168   5.338  20.044  0.00  0.00    +0.000 C 
ATOM     20  C   UNL     1       1.987   4.654  21.399  0.00  0.00    +0.000 C 
ATOM     21  C   UNL     1       0.980   4.433  20.304  0.00  0.00    +0.000 C 
BRANCH  19  22
ATOM     22  C   UNL     1       1.964   6.847  20.089  0.00  0.00    +0.000 A 
ATOM     23  C   UNL     1       2.269   7.658  18.982  0.00  0.00    +0.000 A 
ATOM     24  C   UNL     1       1.711   8.929  18.849  0.00  0.00    +0.000 A 
ATOM     25  C   UNL     1       0.892   9.437  19.854  0.00  0.00    +0.000 A 
ATOM     26  C   UNL     1       0.703   8.712  21.028  0.00  0.00    +0.000 A 
ATOM     27  C   UNL     1       1.250   7.436  21.149  0.00  0.00    +0.000 A 
ENDBRANCH  19  22
ENDBRANCH   5  19
TORSDOF 4
ENDMDL
MODEL 4
REMARK VINA RESULT:      -8.4      1.523      1.977
REMARK  Name = 
REMARK  4 active torsions:
REMARK  status: ('A' for Active; 'I' for Inactive)
REMARK    1  A    between atoms: S_2  and  N_4
REMARK    2  A    between atoms: S_2  and  C_19
REMARK    3  A    between atoms: C_8  and  C_9
REMARK    4  A    between atoms: C_9  and  C_10
REMARK                            x       y       z     vdW  Elec       q    Type
REMARK                         _______ _______ _______ _____ _____    ______ ____
ROOT
ATOM      1  N   UNL     1       5.726   3.590  16.626  0.00  0.00    +0.000 N 
ATOM      2  C   UNL     1       4.916   4.049  17.704  0.00  0.00    +0.000 A 
ATOM      3  N   UNL     1       5.263   3.752  18.932  0.00  0.00    +0.000 NA
ATOM      4  N   UNL     1       4.335   4.207  19.842  0.00  0.00    +0.000 NA
ATOM      5  C   UNL     1       3.304   4.779  19.252  0.00  0.00    +0.000 A 
ATOM      6  S   UNL     1       3.394   4.814  17.540  0.00  0.00    +0.000 S 
ATOM      7  H   UNL     1       6.307   2.858  17.046  0.00  0.00    +0.000 HD
ENDROOT
BRANCH   1   9
ATOM      8  O   UNL     1       6.324   6.103  16.525  0.00  0.00    +0.000 OA
ATOM      9  S   UNL     1       6.846   4.801  16.216  0.00  0.00    +0.000 S 
ATOM     10  O   UNL     1       8.136   4.350  16.683  0.00  0.00    +0.000 OA
BRANCH   9  11
ATOM     11  C   UNL     1       6.850   4.654  14.443  0.00  0.00    +0.000 A 
ATOM     12  C   UNL     1       7.599   5.557  13.683  0.00  0.00    +0.000 A 
ATOM     13  C   UNL     1       7.670   5.379  12.307  0.00  0.00    +0.000 A 
ATOM     14  F   UNL     1       8.390   6.235  11.570  0.00  0.00    +0.000 F 
ATOM     15  C   UNL     1       7.017   4.323  11.682  0.00  0.00    +0.000 A 
ATOM     16  C   UNL     1       6.277   3.437  12.455  0.00  0.00    +0.000 A 
ATOM     17  F   UNL     1       5.650   2.414  11.862  0.00  0.00    +0.000 F 
ATOM     18  C   UNL     1       6.186   3.586  13.834  0.00  0.00    +0.000 A 
ENDBRANCH   9  11
ENDBRANCH   1   9
BRANCH   5  19
ATOM     19  C   UNL     1       2.088   5.232  20.073  0.00  0.00    +0.000 C 
ATOM     20  C   UNL     1       1.869   4.473  21.382  0.00  0.00    +0.000 C 
ATOM     21  C   UNL     1       0.890   4.320  20.251  0.00  0.00    +0.000 C 
BRANCH  19  22
ATOM     22  C   UNL     1       1.890   6.737  20.199  0.00  0.00    +0.000 A 
ATOM     23  C   UNL     1       2.231   7.608  19.149  0.00  0.00    +0.000 A 
ATOM     24  C   UNL     1       1.683   8.889  19.074  0.00  0.00    +0.000 A 
ATOM     25  C   UNL     1       0.837   9.343  20.082  0.00  0.00    +0.000 A 
ATOM     26  C   UNL     1       0.610   8.553  21.206  0.00  0.00    +0.000 A 
ATOM     27  C   UNL     1       1.148   7.268  21.270  0.00  0.00    +0.000 A 
ENDBRANCH  19  22
ENDBRANCH   5  19
TORSDOF 4
ENDMDL
MODEL 5
REMARK VINA RESULT:      -8.1      5.077      6.751
REMARK  Name = 
REMARK  4 active torsions:
REMARK  status: ('A' for Active; 'I' for Inactive)
REMARK    1  A    between atoms: S_2  and  N_4
REMARK    2  A    between atoms: S_2  and  C_19
REMARK    3  A    between atoms: C_8  and  C_9
REMARK    4  A    between atoms: C_9  and  C_10
REMARK                            x       y       z     vdW  Elec       q    Type
REMARK                         _______ _______ _______ _____ _____    ______ ____
ROOT
ATOM      1  N   UNL     1       3.670   6.355  18.496  0.00  0.00    +0.000 N 
ATOM      2  C   UNL     1       2.800   7.480  18.412  0.00  0.00    +0.000 A 
ATOM      3  N   UNL     1       2.848   8.243  17.349  0.00  0.00    +0.000 NA
ATOM      4  N   UNL     1       2.000   9.322  17.464  0.00  0.00    +0.000 NA
ATOM      5  C   UNL     1       1.393   9.350  18.635  0.00  0.00    +0.000 A 
ATOM      6  S   UNL     1       1.804   8.054  19.680  0.00  0.00    +0.000 S 
ATOM      7  H   UNL     1       4.378   6.534  17.777  0.00  0.00    +0.000 HD
ENDROOT
BRANCH   1   9
ATOM      8  O   UNL     1       1.468   5.267  17.690  0.00  0.00    +0.000 OA
ATOM      9  S   UNL     1       2.856   4.979  17.918  0.00  0.00    +0.000 S 
ATOM     10  O   UNL     1       3.703   4.388  16.909  0.00  0.00    +0.000 OA
BRANCH   9  11
ATOM     11  C   UNL     1       2.937   3.927  19.351  0.00  0.00    +0.000 A 
ATOM     12  C   UNL     1       1.812   3.802  20.172  0.00  0.00    +0.000 A 
ATOM     13  C   UNL     1       1.854   2.908  21.235  0.00  0.00    +0.000 A 
ATOM     14  F   UNL     1       0.780   2.776  22.025  0.00  0.00    +0.000 F 
ATOM     15  C   UNL     1       2.985   2.142  21.489  0.00  0.00    +0.000 A 
ATOM     16  C   UNL     1       4.092   2.282  20.662  0.00  0.00    +0.000 A 
ATOM     17  F   UNL     1       5.185   1.543  20.895  0.00  0.00    +0.000 F 
ATOM     18  C   UNL     1       4.083   3.166  19.589  0.00  0.00    +0.000 A 
ENDBRANCH   9  11
ENDBRANCH   1   9
BRANCH   5  19
ATOM     19  C   UNL     1       0.510  10.543  19.028  0.00  0.00    +0.000 C 
ATOM     20  C   UNL     1       1.160  11.916  18.855  0.00  0.00    +0.000 C 
ATOM     21  C   UNL     1       0.853  11.398  20.232  0.00  0.00    +0.000 C 
BRANCH  19  22
ATOM     22  C   UNL     1      -0.937  10.488  18.554  0.00  0.00    +0.000 A 
ATOM     23  C   UNL     1      -1.923  11.310  19.127  0.00  0.00    +0.000 A 
ATOM     24  C   UNL     1      -3.112  11.581  18.450  0.00  0.00    +0.000 A 
ATOM     25  C   UNL     1      -3.363  10.980  17.219  0.00  0.00    +0.000 A 
ATOM     26  C   UNL     1      -2.467  10.045  16.708  0.00  0.00    +0.000 A 
ATOM     27  C   UNL     1      -1.274   9.789  17.380  0.00  0.00    +0.000 A 
ENDBRANCH  19  22
ENDBRANCH   5  19
TORSDOF 4
ENDMDL
MODEL 6
REMARK VINA RESULT:      -8.1      1.045      2.646
REMARK  Name = 
REMARK  4 active torsions:
REMARK  status: ('A' for Active; 'I' for Inactive)
REMARK    1  A    between atoms: S_2  and  N_4
REMARK    2  A    between atoms: S_2  and  C_19
REMARK    3  A    between atoms: C_8  and  C_9
REMARK    4  A    between atoms: C_9  and  C_10
REMARK                            x       y       z     vdW  Elec       q    Type
REMARK                         _______ _______ _______ _____ _____    ______ ____
ROOT
ATOM      1  N   UNL     1       6.416   4.042  15.772  0.00  0.00    +0.000 N 
ATOM      2  C   UNL     1       5.561   4.732  16.680  0.00  0.00    +0.000 A 
ATOM      3  N   UNL     1       6.096   5.455  17.631  0.00  0.00    +0.000 NA
ATOM      4  N   UNL     1       5.135   5.989  18.459  0.00  0.00    +0.000 NA
ATOM      5  C   UNL     1       3.921   5.598  18.123  0.00  0.00    +0.000 A 
ATOM      6  S   UNL     1       3.861   4.556  16.763  0.00  0.00    +0.000 S 
ATOM      7  H   UNL     1       7.328   4.046  16.238  0.00  0.00    +0.000 HD
ENDROOT
BRANCH   1   9
ATOM      8  O   UNL     1       5.717   6.087  14.354  0.00  0.00    +0.000 OA
ATOM      9  S   UNL     1       6.666   5.010  14.397  0.00  0.00    +0.000 S 
ATOM     10  O   UNL     1       8.090   5.223  14.293  0.00  0.00    +0.000 OA
BRANCH   9  11
ATOM     11  C   UNL     1       6.211   3.870  13.109  0.00  0.00    +0.000 A 
ATOM     12  C   UNL     1       4.868   3.759  12.736  0.00  0.00    +0.000 A 
ATOM     13  C   UNL     1       4.534   2.936  11.668  0.00  0.00    +0.000 A 
ATOM     14  F   UNL     1       3.252   2.827  11.298  0.00  0.00    +0.000 F 
ATOM     15  C   UNL     1       5.507   2.231  10.969  0.00  0.00    +0.000 A 
ATOM     16  C   UNL     1       6.836   2.354  11.356  0.00  0.00    +0.000 A 
ATOM     17  F   UNL     1       7.781   1.683  10.685  0.00  0.00    +0.000 F 
ATOM     18  C   UNL     1       7.204   3.170  12.420  0.00  0.00    +0.000 A 
ENDBRANCH   9  11
ENDBRANCH   1   9
BRANCH   5  19
ATOM     19  C   UNL     1       2.713   5.963  18.998  0.00  0.00    +0.000 C 
ATOM     20  C   UNL     1       1.754   6.985  18.386  0.00  0.00    +0.000 C 
ATOM     21  C   UNL     1       2.576   7.352  19.591  0.00  0.00    +0.000 C 
BRANCH  19  22
ATOM     22  C   UNL     1       2.008   4.799  19.684  0.00  0.00    +0.000 A 
ATOM     23  C   UNL     1       1.396   3.777  18.939  0.00  0.00    +0.000 A 
ATOM     24  C   UNL     1       1.133   2.532  19.513  0.00  0.00    +0.000 A 
ATOM     25  C   UNL     1       1.416   2.313  20.858  0.00  0.00    +0.000 A 
ATOM     26  C   UNL     1       1.879   3.361  21.649  0.00  0.00    +0.000 A 
ATOM     27  C   UNL     1       2.155   4.598  21.069  0.00  0.00    +0.000 A 
ENDBRANCH  19  22
ENDBRANCH   5  19
TORSDOF 4
ENDMDL
MODEL 7
REMARK VINA RESULT:      -8.1      5.066      6.890
REMARK  Name = 
REMARK  4 active torsions:
REMARK  status: ('A' for Active; 'I' for Inactive)
REMARK    1  A    between atoms: S_2  and  N_4
REMARK    2  A    between atoms: S_2  and  C_19
REMARK    3  A    between atoms: C_8  and  C_9
REMARK    4  A    between atoms: C_9  and  C_10
REMARK                            x       y       z     vdW  Elec       q    Type
REMARK                         _______ _______ _______ _____ _____    ______ ____
ROOT
ATOM      1  N   UNL     1       3.660   6.195  18.485  0.00  0.00    +0.000 N 
ATOM      2  C   UNL     1       2.816   7.342  18.427  0.00  0.00    +0.000 A 
ATOM      3  N   UNL     1       2.899   8.141  17.392  0.00  0.00    +0.000 NA
ATOM      4  N   UNL     1       2.072   9.233  17.532  0.00  0.00    +0.000 NA
ATOM      5  C   UNL     1       1.445   9.233  18.691  0.00  0.00    +0.000 A 
ATOM      6  S   UNL     1       1.809   7.892  19.697  0.00  0.00    +0.000 S 
ATOM      7  H   UNL     1       4.384   6.384  17.786  0.00  0.00    +0.000 HD
ENDROOT
BRANCH   1   9
ATOM      8  O   UNL     1       1.450   5.186  17.600  0.00  0.00    +0.000 OA
ATOM      9  S   UNL     1       2.827   4.859  17.845  0.00  0.00    +0.000 S 
ATOM     10  O   UNL     1       3.681   4.283  16.832  0.00  0.00    +0.000 OA
BRANCH   9  11
ATOM     11  C   UNL     1       2.855   3.757  19.242  0.00  0.00    +0.000 A 
ATOM     12  C   UNL     1       4.025   3.049  19.532  0.00  0.00    +0.000 A 
ATOM     13  C   UNL     1       4.067   2.262  20.676  0.00  0.00    +0.000 A 
ATOM     14  F   UNL     1       5.184   1.584  20.966  0.00  0.00    +0.000 F 
ATOM     15  C   UNL     1       2.975   2.175  21.532  0.00  0.00    +0.000 A 
ATOM     16  C   UNL     1       1.822   2.886  21.225  0.00  0.00    +0.000 A 
ATOM     17  F   UNL     1       0.767   2.813  22.047  0.00  0.00    +0.000 F 
ATOM     18  C   UNL     1       1.747   3.683  20.089  0.00  0.00    +0.000 A 
ENDBRANCH   9  11
ENDBRANCH   1   9
BRANCH   5  19
ATOM     19  C   UNL     1       0.581  10.430  19.112  0.00  0.00    +0.000 C 
ATOM     20  C   UNL     1       1.266  11.793  19.010  0.00  0.00    +0.000 C 
ATOM     21  C   UNL     1       0.913  11.228  20.357  0.00  0.00    +0.000 C 
BRANCH  19  22
ATOM     22  C   UNL     1      -0.856  10.430  18.602  0.00  0.00    +0.000 A 
ATOM     23  C   UNL     1      -1.826  11.284  19.155  0.00  0.00    +0.000 A 
ATOM     24  C   UNL     1      -2.987  11.600  18.449  0.00  0.00    +0.000 A 
ATOM     25  C   UNL     1      -3.228  11.014  17.210  0.00  0.00    +0.000 A 
ATOM     26  C   UNL     1      -2.354  10.049  16.716  0.00  0.00    +0.000 A 
ATOM     27  C   UNL     1      -1.188   9.748  17.417  0.00  0.00    +0.000 A 
ENDBRANCH  19  22
ENDBRANCH   5  19
TORSDOF 4
ENDMDL
MODEL 8
REMARK VINA RESULT:      -8.0      0.552      1.104
REMARK  Name = 
REMARK  4 active torsions:
REMARK  status: ('A' for Active; 'I' for Inactive)
REMARK    1  A    between atoms: S_2  and  N_4
REMARK    2  A    between atoms: S_2  and  C_19
REMARK    3  A    between atoms: C_8  and  C_9
REMARK    4  A    between atoms: C_9  and  C_10
REMARK                            x       y       z     vdW  Elec       q    Type
REMARK                         _______ _______ _______ _____ _____    ______ ____
ROOT
ATOM      1  N   UNL     1       6.647   3.921  15.966  0.00  0.00    +0.000 N 
ATOM      2  C   UNL     1       5.695   4.346  16.937  0.00  0.00    +0.000 A 
ATOM      3  N   UNL     1       6.096   5.089  17.939  0.00  0.00    +0.000 NA
ATOM      4  N   UNL     1       5.069   5.345  18.819  0.00  0.00    +0.000 NA
ATOM      5  C   UNL     1       3.953   4.739  18.465  0.00  0.00    +0.000 A 
ATOM      6  S   UNL     1       4.070   3.816  17.025  0.00  0.00    +0.000 S 
ATOM      7  H   UNL     1       7.552   4.078  16.420  0.00  0.00    +0.000 HD
ENDROOT
BRANCH   1   9
ATOM      8  O   UNL     1       5.580   5.969  14.804  0.00  0.00    +0.000 OA
ATOM      9  S   UNL     1       6.654   5.024  14.673  0.00  0.00    +0.000 S 
ATOM     10  O   UNL     1       8.026   5.430  14.479  0.00  0.00    +0.000 OA
BRANCH   9  11
ATOM     11  C   UNL     1       6.231   3.946  13.322  0.00  0.00    +0.000 A 
ATOM     12  C   UNL     1       4.896   3.844  12.920  0.00  0.00    +0.000 A 
ATOM     13  C   UNL     1       4.588   3.071  11.807  0.00  0.00    +0.000 A 
ATOM     14  F   UNL     1       3.313   2.971  11.409  0.00  0.00    +0.000 F 
ATOM     15  C   UNL     1       5.579   2.409  11.092  0.00  0.00    +0.000 A 
ATOM     16  C   UNL     1       6.899   2.523  11.509  0.00  0.00    +0.000 A 
ATOM     17  F   UNL     1       7.861   1.893  10.823  0.00  0.00    +0.000 F 
ATOM     18  C   UNL     1       7.242   3.288  12.617  0.00  0.00    +0.000 A 
ENDBRANCH   9  11
ENDBRANCH   1   9
BRANCH   5  19
ATOM     19  C   UNL     1       2.720   4.777  19.381  0.00  0.00    +0.000 C 
ATOM     20  C   UNL     1       2.861   4.002  20.691  0.00  0.00    +0.000 C 
ATOM     21  C   UNL     1       1.904   3.525  19.635  0.00  0.00    +0.000 C 
BRANCH  19  22
ATOM     22  C   UNL     1       2.050   6.135  19.543  0.00  0.00    +0.000 A 
ATOM     23  C   UNL     1       1.514   6.541  20.778  0.00  0.00    +0.000 A 
ATOM     24  C   UNL     1       1.292   7.890  21.054  0.00  0.00    +0.000 A 
ATOM     25  C   UNL     1       1.539   8.849  20.077  0.00  0.00    +0.000 A 
ATOM     26  C   UNL     1       1.924   8.454  18.798  0.00  0.00    +0.000 A 
ATOM     27  C   UNL     1       2.159   7.106  18.531  0.00  0.00    +0.000 A 
ENDBRANCH  19  22
ENDBRANCH   5  19
TORSDOF 4
ENDMDL
MODEL 9
REMARK VINA RESULT:      -8.0      1.101      3.147
REMARK  Name = 
REMARK  4 active torsions:
REMARK  status: ('A' for Active; 'I' for Inactive)
REMARK    1  A    between atoms: S_2  and  N_4
REMARK    2  A    between atoms: S_2  and  C_19
REMARK    3  A    between atoms: C_8  and  C_9
REMARK    4  A    between atoms: C_9  and  C_10
REMARK                            x       y       z     vdW  Elec       q    Type
REMARK                         _______ _______ _______ _____ _____    ______ ____
ROOT
ATOM      1  N   UNL     1       6.493   4.050  15.684  0.00  0.00    +0.000 N 
ATOM      2  C   UNL     1       5.620   4.703  16.601  0.00  0.00    +0.000 A 
ATOM      3  N   UNL     1       6.135   5.412  17.575  0.00  0.00    +0.000 NA
ATOM      4  N   UNL     1       5.157   5.908  18.408  0.00  0.00    +0.000 NA
ATOM      5  C   UNL     1       3.953   5.505  18.052  0.00  0.00    +0.000 A 
ATOM      6  S   UNL     1       3.923   4.495  16.666  0.00  0.00    +0.000 S 
ATOM      7  H   UNL     1       7.402   4.058  16.157  0.00  0.00    +0.000 HD
ENDROOT
BRANCH   1   9
ATOM      8  O   UNL     1       5.812   6.154  14.345  0.00  0.00    +0.000 OA
ATOM      9  S   UNL     1       6.738   5.056  14.336  0.00  0.00    +0.000 S 
ATOM     10  O   UNL     1       8.164   5.243  14.209  0.00  0.00    +0.000 OA
BRANCH   9  11
ATOM     11  C   UNL     1       6.234   3.968  13.021  0.00  0.00    +0.000 A 
ATOM     12  C   UNL     1       7.179   3.126  12.429  0.00  0.00    +0.000 A 
ATOM     13  C   UNL     1       6.758   2.215  11.468  0.00  0.00    +0.000 A 
ATOM     14  F   UNL     1       7.655   1.400  10.898  0.00  0.00    +0.000 F 
ATOM     15  C   UNL     1       5.423   2.127  11.094  0.00  0.00    +0.000 A 
ATOM     16  C   UNL     1       4.499   2.973  11.694  0.00  0.00    +0.000 A 
ATOM     17  F   UNL     1       3.209   2.891  11.344  0.00  0.00    +0.000 F 
ATOM     18  C   UNL     1       4.886   3.895  12.659  0.00  0.00    +0.000 A 
ENDBRANCH   9  11
ENDBRANCH   1   9
BRANCH   5  19
ATOM     19  C   UNL     1       2.732   5.827  18.924  0.00  0.00    +0.000 C 
ATOM     20  C   UNL     1       1.909   7.033  18.469  0.00  0.00    +0.000 C 
ATOM     21  C   UNL     1       2.685   7.094  19.755  0.00  0.00    +0.000 C 
BRANCH  19  22
ATOM     22  C   UNL     1       1.884   4.636  19.354  0.00  0.00    +0.000 A 
ATOM     23  C   UNL     1       1.353   3.741  18.409  0.00  0.00    +0.000 A 
ATOM     24  C   UNL     1       0.955   2.457  18.783  0.00  0.00    +0.000 A 
ATOM     25  C   UNL     1       1.018   2.072  20.119  0.00  0.00    +0.000 A 
ATOM     26  C   UNL     1       1.396   2.995  21.091  0.00  0.00    +0.000 A 
ATOM     27  C   UNL     1       1.807   4.272  20.711  0.00  0.00    +0.000 A 
ENDBRANCH  19  22
ENDBRANCH   5  19
TORSDOF 4
ENDMDL
