MODEL 1
REMARK VINA RESULT:      -9.0      0.000      0.000
REMARK  Name = 
REMARK  5 active torsions:
REMARK  status: ('A' for Active; 'I' for Inactive)
REMARK    1  A    between atoms: C_2  and  C_17
REMARK    2  A    between atoms: N_3  and  C_4
REMARK    3  A    between atoms: C_8  and  C_9
REMARK    4  A    between atoms: C_9  and  N_10
REMARK    5  A    between atoms: C_20  and  N_21
REMARK                            x       y       z     vdW  Elec       q    Type
REMARK                         _______ _______ _______ _____ _____    ______ ____
ROOT
ATOM      1  O   UNL     1       2.249   8.035  18.873  0.00  0.00    +0.000 OA
ATOM      2  C   UNL     1       1.749   7.822  19.973  0.00  0.00    +0.000 C 
ATOM      3  N   UNL     1       1.725   6.621  20.657  0.00  0.00    +0.000 N 
ATOM      4  H   UNL     1       1.106   6.550  21.455  0.00  0.00    +0.000 HD
ENDROOT
BRANCH   3   5
ATOM      5  C   UNL     1       2.350   5.428  20.240  0.00  0.00    +0.000 A 
ATOM      6  C   UNL     1       1.709   4.187  20.253  0.00  0.00    +0.000 A 
ATOM      7  C   UNL     1       2.382   3.031  19.860  0.00  0.00    +0.000 A 
ATOM      8  C   UNL     1       3.701   3.105  19.421  0.00  0.00    +0.000 A 
ATOM      9  C   UNL     1       4.352   4.344  19.353  0.00  0.00    +0.000 A 
ATOM     10  C   UNL     1       3.669   5.499  19.778  0.00  0.00    +0.000 A 
BRANCH   9  11
ATOM     11  C   UNL     1       5.750   4.442  18.802  0.00  0.00    +0.000 C 
BRANCH  11  12
ATOM     12  N   UNL     1       5.831   4.378  17.354  0.00  0.00    +0.000 N 
ATOM     13  C   UNL     1       4.782   4.887  16.502  0.00  0.00    +0.000 C 
ATOM     14  C   UNL     1       5.349   4.716  15.106  0.00  0.00    +0.000 C 
ATOM     15  C   UNL     1       6.843   4.918  15.303  0.00  0.00    +0.000 C 
ATOM     16  C   UNL     1       7.068   4.436  16.715  0.00  0.00    +0.000 C 
ATOM     17  O   UNL     1       8.159   4.226  17.219  0.00  0.00    +0.000 OA
ENDBRANCH  11  12
ENDBRANCH   9  11
ENDBRANCH   3   5
BRANCH   2  18
ATOM     18  C   UNL     1       1.043   8.953  20.626  0.00  0.00    +0.000 A 
ATOM     19  C   UNL     1       0.881   8.918  22.009  0.00  0.00    +0.000 A 
ATOM     20  C   UNL     1       0.178   9.933  22.665  0.00  0.00    +0.000 A 
ATOM     21  C   UNL     1      -0.402  10.989  21.951  0.00  0.00    +0.000 A 
ATOM     22  C   UNL     1      -0.235  11.003  20.555  0.00  0.00    +0.000 A 
ATOM     23  C   UNL     1       0.486  10.001  19.891  0.00  0.00    +0.000 A 
BRANCH  21  24
ATOM     24  N   UNL     1      -1.156  12.002  22.607  0.00  0.00    +0.000 N 
ATOM     25  C   UNL     1      -2.411  11.729  23.268  0.00  0.00    +0.000 C 
ATOM     26  C   UNL     1      -2.999  13.095  23.544  0.00  0.00    +0.000 C 
ATOM     27  C   UNL     1      -1.783  13.977  23.728  0.00  0.00    +0.000 C 
ATOM     28  C   UNL     1      -0.736  13.318  22.864  0.00  0.00    +0.000 C 
ATOM     29  O   UNL     1       0.286  13.890  22.518  0.00  0.00    +0.000 OA
ENDBRANCH  21  24
ENDBRANCH   2  18
TORSDOF 5
ENDMDL
MODEL 2
REMARK VINA RESULT:      -8.8      0.839      1.442
REMARK  Name = 
REMARK  5 active torsions:
REMARK  status: ('A' for Active; 'I' for Inactive)
REMARK    1  A    between atoms: C_2  and  C_17
REMARK    2  A    between atoms: N_3  and  C_4
REMARK    3  A    between atoms: C_8  and  C_9
REMARK    4  A    between atoms: C_9  and  N_10
REMARK    5  A    between atoms: C_20  and  N_21
REMARK                            x       y       z     vdW  Elec       q    Type
REMARK                         _______ _______ _______ _____ _____    ______ ____
ROOT
ATOM      1  O   UNL     1       2.152   8.038  18.941  0.00  0.00    +0.000 OA
ATOM      2  C   UNL     1       1.676   7.802  20.046  0.00  0.00    +0.000 C 
ATOM      3  N   UNL     1       1.683   6.590  20.713  0.00  0.00    +0.000 N 
ATOM      4  H   UNL     1       1.080   6.498  21.521  0.00  0.00    +0.000 HD
ENDROOT
BRANCH   3   5
ATOM      5  C   UNL     1       2.319   5.413  20.267  0.00  0.00    +0.000 A 
ATOM      6  C   UNL     1       1.682   4.169  20.233  0.00  0.00    +0.000 A 
ATOM      7  C   UNL     1       2.365   3.029  19.814  0.00  0.00    +0.000 A 
ATOM      8  C   UNL     1       3.689   3.122  19.394  0.00  0.00    +0.000 A 
ATOM      9  C   UNL     1       4.335   4.365  19.372  0.00  0.00    +0.000 A 
ATOM     10  C   UNL     1       3.643   5.504  19.824  0.00  0.00    +0.000 A 
BRANCH   9  11
ATOM     11  C   UNL     1       5.739   4.486  18.841  0.00  0.00    +0.000 C 
BRANCH  11  12
ATOM     12  N   UNL     1       5.845   4.403  17.396  0.00  0.00    +0.000 N 
ATOM     13  C   UNL     1       4.817   4.911  16.519  0.00  0.00    +0.000 C 
ATOM     14  C   UNL     1       5.406   4.718  15.136  0.00  0.00    +0.000 C 
ATOM     15  C   UNL     1       6.899   4.908  15.357  0.00  0.00    +0.000 C 
ATOM     16  C   UNL     1       7.094   4.441  16.779  0.00  0.00    +0.000 C 
ATOM     17  O   UNL     1       8.174   4.226  17.305  0.00  0.00    +0.000 OA
ENDBRANCH  11  12
ENDBRANCH   9  11
ENDBRANCH   3   5
BRANCH   2  18
ATOM     18  C   UNL     1       0.965   8.912  20.729  0.00  0.00    +0.000 A 
ATOM     19  C   UNL     1       0.508   9.976  19.954  0.00  0.00    +0.000 A 
ATOM     20  C   UNL     1      -0.122  11.069  20.556  0.00  0.00    +0.000 A 
ATOM     21  C   UNL     1      -0.283  11.137  21.945  0.00  0.00    +0.000 A 
ATOM     22  C   UNL     1       0.193  10.058  22.711  0.00  0.00    +0.000 A 
ATOM     23  C   UNL     1       0.806   8.948  22.115  0.00  0.00    +0.000 A 
BRANCH  21  24
ATOM     24  N   UNL     1      -0.883  12.267  22.568  0.00  0.00    +0.000 N 
ATOM     25  C   UNL     1      -0.370  13.607  22.404  0.00  0.00    +0.000 C 
ATOM     26  C   UNL     1      -1.093  14.421  23.453  0.00  0.00    +0.000 C 
ATOM     27  C   UNL     1      -2.429  13.722  23.591  0.00  0.00    +0.000 C 
ATOM     28  C   UNL     1      -2.110  12.286  23.252  0.00  0.00    +0.000 C 
ATOM     29  O   UNL     1      -2.859  11.363  23.534  0.00  0.00    +0.000 OA
ENDBRANCH  21  24
ENDBRANCH   2  18
TORSDOF 5
ENDMDL
MODEL 3
REMARK VINA RESULT:      -8.8      2.270      3.778
REMARK  Name = 
REMARK  5 active torsions:
REMARK  status: ('A' for Active; 'I' for Inactive)
REMARK    1  A    between atoms: C_2  and  C_17
REMARK    2  A    between atoms: N_3  and  C_4
REMARK    3  A    between atoms: C_8  and  C_9
REMARK    4  A    between atoms: C_9  and  N_10
REMARK    5  A    between atoms: C_20  and  N_21
REMARK                            x       y       z     vdW  Elec       q    Type
REMARK                         _______ _______ _______ _____ _____    ______ ____
ROOT
ATOM      1  O   UNL     1       1.795   9.323  17.266  0.00  0.00    +0.000 OA
ATOM      2  C   UNL     1       1.724   8.938  18.429  0.00  0.00    +0.000 C 
ATOM      3  N   UNL     1       2.225   7.757  18.946  0.00  0.00    +0.000 N 
ATOM      4  H   UNL     1       1.917   7.485  19.871  0.00  0.00    +0.000 HD
ENDROOT
BRANCH   3   5
ATOM      5  C   UNL     1       2.986   6.808  18.233  0.00  0.00    +0.000 A 
ATOM      6  C   UNL     1       4.088   7.152  17.445  0.00  0.00    +0.000 A 
ATOM      7  C   UNL     1       4.788   6.178  16.734  0.00  0.00    +0.000 A 
ATOM      8  C   UNL     1       4.412   4.842  16.823  0.00  0.00    +0.000 A 
ATOM      9  C   UNL     1       3.341   4.464  17.644  0.00  0.00    +0.000 A 
ATOM     10  C   UNL     1       2.626   5.460  18.336  0.00  0.00    +0.000 A 
BRANCH   9  11
ATOM     11  C   UNL     1       2.981   3.011  17.810  0.00  0.00    +0.000 C 
BRANCH  11  12
ATOM     12  N   UNL     1       2.623   2.632  19.165  0.00  0.00    +0.000 N 
ATOM     13  C   UNL     1       3.454   2.959  20.299  0.00  0.00    +0.000 C 
ATOM     14  C   UNL     1       2.637   2.479  21.483  0.00  0.00    +0.000 C 
ATOM     15  C   UNL     1       1.200   2.696  21.033  0.00  0.00    +0.000 C 
ATOM     16  C   UNL     1       1.284   2.530  19.536  0.00  0.00    +0.000 C 
ATOM     17  O   UNL     1       0.327   2.418  18.788  0.00  0.00    +0.000 OA
ENDBRANCH  11  12
ENDBRANCH   9  11
ENDBRANCH   3   5
BRANCH   2  18
ATOM     18  C   UNL     1       0.976   9.796  19.382  0.00  0.00    +0.000 A 
ATOM     19  C   UNL     1       0.671  11.099  18.994  0.00  0.00    +0.000 A 
ATOM     20  C   UNL     1       0.013  11.963  19.875  0.00  0.00    +0.000 A 
ATOM     21  C   UNL     1      -0.327  11.554  21.170  0.00  0.00    +0.000 A 
ATOM     22  C   UNL     1      -0.003  10.238  21.546  0.00  0.00    +0.000 A 
ATOM     23  C   UNL     1       0.636   9.358  20.662  0.00  0.00    +0.000 A 
BRANCH  21  24
ATOM     24  N   UNL     1      -0.957  12.442  22.087  0.00  0.00    +0.000 N 
ATOM     25  C   UNL     1      -2.204  12.122  22.742  0.00  0.00    +0.000 C 
ATOM     26  C   UNL     1      -2.651  13.428  23.361  0.00  0.00    +0.000 C 
ATOM     27  C   UNL     1      -1.353  14.142  23.669  0.00  0.00    +0.000 C 
ATOM     28  C   UNL     1      -0.407  13.622  22.614  0.00  0.00    +0.000 C 
ATOM     29  O   UNL     1       0.648  14.176  22.347  0.00  0.00    +0.000 OA
ENDBRANCH  21  24
ENDBRANCH   2  18
TORSDOF 5
ENDMDL
MODEL 4
REMARK VINA RESULT:      -8.8      6.087      8.407
REMARK  Name = 
REMARK  5 active torsions:
REMARK  status: ('A' for Active; 'I' for Inactive)
REMARK    1  A    between atoms: C_2  and  C_17
REMARK    2  A    between atoms: N_3  and  C_4
REMARK    3  A    between atoms: C_8  and  C_9
REMARK    4  A    between atoms: C_9  and  N_10
REMARK    5  A    between atoms: C_20  and  N_21
REMARK                            x       y       z     vdW  Elec       q    Type
REMARK                         _______ _______ _______ _____ _____    ______ ____
ROOT
ATOM      1  O   UNL     1       8.340   7.105  18.861  0.00  0.00    +0.000 OA
ATOM      2  C   UNL     1       7.846   7.963  18.136  0.00  0.00    +0.000 C 
ATOM      3  N   UNL     1       6.848   7.783  17.196  0.00  0.00    +0.000 N 
ATOM      4  H   UNL     1       6.686   8.534  16.537  0.00  0.00    +0.000 HD
ENDROOT
BRANCH   3   5
ATOM      5  C   UNL     1       6.154   6.579  16.958  0.00  0.00    +0.000 A 
ATOM      6  C   UNL     1       6.729   5.484  16.306  0.00  0.00    +0.000 A 
ATOM      7  C   UNL     1       5.989   4.327  16.067  0.00  0.00    +0.000 A 
ATOM      8  C   UNL     1       4.671   4.238  16.502  0.00  0.00    +0.000 A 
ATOM      9  C   UNL     1       4.085   5.302  17.200  0.00  0.00    +0.000 A 
ATOM     10  C   UNL     1       4.834   6.475  17.411  0.00  0.00    +0.000 A 
BRANCH   9  11
ATOM     11  C   UNL     1       2.687   5.181  17.744  0.00  0.00    +0.000 C 
BRANCH  11  12
ATOM     12  N   UNL     1       2.579   4.379  18.950  0.00  0.00    +0.000 N 
ATOM     13  C   UNL     1       2.499   4.972  20.263  0.00  0.00    +0.000 C 
ATOM     14  C   UNL     1       2.281   3.781  21.175  0.00  0.00    +0.000 C 
ATOM     15  C   UNL     1       1.472   2.821  20.317  0.00  0.00    +0.000 C 
ATOM     16  C   UNL     1       1.935   3.144  18.917  0.00  0.00    +0.000 C 
ATOM     17  O   UNL     1       1.697   2.471  17.927  0.00  0.00    +0.000 OA
ENDBRANCH  11  12
ENDBRANCH   9  11
ENDBRANCH   3   5
BRANCH   2  18
ATOM     18  C   UNL     1       8.411   9.333  18.226  0.00  0.00    +0.000 A 
ATOM     19  C   UNL     1       9.386   9.581  19.189  0.00  0.00    +0.000 A 
ATOM     20  C   UNL     1       9.912  10.867  19.349  0.00  0.00    +0.000 A 
ATOM     21  C   UNL     1       9.454  11.937  18.571  0.00  0.00    +0.000 A 
ATOM     22  C   UNL     1       8.462  11.669  17.610  0.00  0.00    +0.000 A 
ATOM     23  C   UNL     1       7.945  10.379  17.428  0.00  0.00    +0.000 A 
BRANCH  21  24
ATOM     24  N   UNL     1       9.952  13.257  18.758  0.00  0.00    +0.000 N 
ATOM     25  C   UNL     1       9.675  14.029  19.947  0.00  0.00    +0.000 C 
ATOM     26  C   UNL     1      10.118  15.432  19.599  0.00  0.00    +0.000 C 
ATOM     27  C   UNL     1      11.251  15.217  18.619  0.00  0.00    +0.000 C 
ATOM     28  C   UNL     1      10.893  13.913  17.948  0.00  0.00    +0.000 C 
ATOM     29  O   UNL     1      11.403  13.554  16.898  0.00  0.00    +0.000 OA
ENDBRANCH  21  24
ENDBRANCH   2  18
TORSDOF 5
ENDMDL
MODEL 5
REMARK VINA RESULT:      -8.8      6.271      8.653
REMARK  Name = 
REMARK  5 active torsions:
REMARK  status: ('A' for Active; 'I' for Inactive)
REMARK    1  A    between atoms: C_2  and  C_17
REMARK    2  A    between atoms: N_3  and  C_4
REMARK    3  A    between atoms: C_8  and  C_9
REMARK    4  A    between atoms: C_9  and  N_10
REMARK    5  A    between atoms: C_20  and  N_21
REMARK                            x       y       z     vdW  Elec       q    Type
REMARK                         _______ _______ _______ _____ _____    ______ ____
ROOT
ATOM      1  O   UNL     1       8.561   7.386  18.917  0.00  0.00    +0.000 OA
ATOM      2  C   UNL     1       8.011   8.253  18.244  0.00  0.00    +0.000 C 
ATOM      3  N   UNL     1       6.966   8.077  17.356  0.00  0.00    +0.000 N 
ATOM      4  H   UNL     1       6.753   8.843  16.728  0.00  0.00    +0.000 HD
ENDROOT
BRANCH   3   5
ATOM      5  C   UNL     1       6.285   6.865  17.120  0.00  0.00    +0.000 A 
ATOM      6  C   UNL     1       6.892   5.751  16.535  0.00  0.00    +0.000 A 
ATOM      7  C   UNL     1       6.166   4.586  16.294  0.00  0.00    +0.000 A 
ATOM      8  C   UNL     1       4.826   4.509  16.663  0.00  0.00    +0.000 A 
ATOM      9  C   UNL     1       4.206   5.594  17.295  0.00  0.00    +0.000 A 
ATOM     10  C   UNL     1       4.943   6.774  17.508  0.00  0.00    +0.000 A 
BRANCH   9  11
ATOM     11  C   UNL     1       2.781   5.489  17.771  0.00  0.00    +0.000 C 
BRANCH  11  12
ATOM     12  N   UNL     1       2.591   4.610  18.910  0.00  0.00    +0.000 N 
ATOM     13  C   UNL     1       2.595   5.100  20.268  0.00  0.00    +0.000 C 
ATOM     14  C   UNL     1       2.248   3.872  21.087  0.00  0.00    +0.000 C 
ATOM     15  C   UNL     1       1.322   3.087  20.171  0.00  0.00    +0.000 C 
ATOM     16  C   UNL     1       1.806   3.465  18.793  0.00  0.00    +0.000 C 
ATOM     17  O   UNL     1       1.480   2.908  17.757  0.00  0.00    +0.000 OA
ENDBRANCH  11  12
ENDBRANCH   9  11
ENDBRANCH   3   5
BRANCH   2  18
ATOM     18  C   UNL     1       8.551   9.632  18.344  0.00  0.00    +0.000 A 
ATOM     19  C   UNL     1       8.001  10.615  17.524  0.00  0.00    +0.000 A 
ATOM     20  C   UNL     1       8.510  11.917  17.544  0.00  0.00    +0.000 A 
ATOM     21  C   UNL     1       9.596  12.258  18.360  0.00  0.00    +0.000 A 
ATOM     22  C   UNL     1      10.142  11.250  19.174  0.00  0.00    +0.000 A 
ATOM     23  C   UNL     1       9.625   9.947  19.178  0.00  0.00    +0.000 A 
BRANCH  21  24
ATOM     24  N   UNL     1      10.146  13.570  18.352  0.00  0.00    +0.000 N 
ATOM     25  C   UNL     1       9.930  14.508  19.430  0.00  0.00    +0.000 C 
ATOM     26  C   UNL     1      10.414  15.832  18.881  0.00  0.00    +0.000 C 
ATOM     27  C   UNL     1      11.511  15.440  17.915  0.00  0.00    +0.000 C 
ATOM     28  C   UNL     1      11.088  14.072  17.438  0.00  0.00    +0.000 C 
ATOM     29  O   UNL     1      11.554  13.553  16.436  0.00  0.00    +0.000 OA
ENDBRANCH  21  24
ENDBRANCH   2  18
TORSDOF 5
ENDMDL
MODEL 6
REMARK VINA RESULT:      -8.7      6.153      8.205
REMARK  Name = 
REMARK  5 active torsions:
REMARK  status: ('A' for Active; 'I' for Inactive)
REMARK    1  A    between atoms: C_2  and  C_17
REMARK    2  A    between atoms: N_3  and  C_4
REMARK    3  A    between atoms: C_8  and  C_9
REMARK    4  A    between atoms: C_9  and  N_10
REMARK    5  A    between atoms: C_20  and  N_21
REMARK                            x       y       z     vdW  Elec       q    Type
REMARK                         _______ _______ _______ _____ _____    ______ ____
ROOT
ATOM      1  O   UNL     1       8.590   7.371  18.942  0.00  0.00    +0.000 OA
ATOM      2  C   UNL     1       8.056   8.203  18.214  0.00  0.00    +0.000 C 
ATOM      3  N   UNL     1       7.076   7.972  17.267  0.00  0.00    +0.000 N 
ATOM      4  H   UNL     1       6.878   8.716  16.608  0.00  0.00    +0.000 HD
ENDROOT
BRANCH   3   5
ATOM      5  C   UNL     1       6.450   6.733  17.021  0.00  0.00    +0.000 A 
ATOM      6  C   UNL     1       7.092   5.668  16.383  0.00  0.00    +0.000 A 
ATOM      7  C   UNL     1       6.418   4.474  16.134  0.00  0.00    +0.000 A 
ATOM      8  C   UNL     1       5.098   4.317  16.547  0.00  0.00    +0.000 A 
ATOM      9  C   UNL     1       4.446   5.351  17.231  0.00  0.00    +0.000 A 
ATOM     10  C   UNL     1       5.129   6.562  17.452  0.00  0.00    +0.000 A 
BRANCH   9  11
ATOM     11  C   UNL     1       3.046   5.159  17.752  0.00  0.00    +0.000 C 
BRANCH  11  12
ATOM     12  N   UNL     1       2.920   4.133  18.771  0.00  0.00    +0.000 N 
ATOM     13  C   UNL     1       2.817   4.453  20.175  0.00  0.00    +0.000 C 
ATOM     14  C   UNL     1       2.587   3.105  20.828  0.00  0.00    +0.000 C 
ATOM     15  C   UNL     1       1.794   2.336  19.782  0.00  0.00    +0.000 C 
ATOM     16  C   UNL     1       2.279   2.930  18.483  0.00  0.00    +0.000 C 
ATOM     17  O   UNL     1       2.059   2.468  17.375  0.00  0.00    +0.000 OA
ENDBRANCH  11  12
ENDBRANCH   9  11
ENDBRANCH   3   5
BRANCH   2  18
ATOM     18  C   UNL     1       8.545   9.602  18.313  0.00  0.00    +0.000 A 
ATOM     19  C   UNL     1       9.442   9.915  19.331  0.00  0.00    +0.000 A 
ATOM     20  C   UNL     1       9.892  11.229  19.497  0.00  0.00    +0.000 A 
ATOM     21  C   UNL     1       9.434  12.261  18.669  0.00  0.00    +0.000 A 
ATOM     22  C   UNL     1       8.522  11.925  17.652  0.00  0.00    +0.000 A 
ATOM     23  C   UNL     1       8.082  10.609  17.464  0.00  0.00    +0.000 A 
BRANCH  21  24
ATOM     24  N   UNL     1       9.853  13.607  18.860  0.00  0.00    +0.000 N 
ATOM     25  C   UNL     1      10.953  14.188  18.126  0.00  0.00    +0.000 C 
ATOM     26  C   UNL     1      11.244  15.486  18.845  0.00  0.00    +0.000 C 
ATOM     27  C   UNL     1       9.896  15.901  19.394  0.00  0.00    +0.000 C 
ATOM     28  C   UNL     1       9.186  14.587  19.614  0.00  0.00    +0.000 C 
ATOM     29  O   UNL     1       8.194  14.487  20.317  0.00  0.00    +0.000 OA
ENDBRANCH  21  24
ENDBRANCH   2  18
TORSDOF 5
ENDMDL
MODEL 7
REMARK VINA RESULT:      -8.7      2.167      3.721
REMARK  Name = 
REMARK  5 active torsions:
REMARK  status: ('A' for Active; 'I' for Inactive)
REMARK    1  A    between atoms: C_2  and  C_17
REMARK    2  A    between atoms: N_3  and  C_4
REMARK    3  A    between atoms: C_8  and  C_9
REMARK    4  A    between atoms: C_9  and  N_10
REMARK    5  A    between atoms: C_20  and  N_21
REMARK                            x       y       z     vdW  Elec       q    Type
REMARK                         _______ _______ _______ _____ _____    ______ ____
ROOT
ATOM      1  O   UNL     1       1.632   6.548  20.881  0.00  0.00    +0.000 OA
ATOM      2  C   UNL     1       1.595   7.603  20.255  0.00  0.00    +0.000 C 
ATOM      3  N   UNL     1       2.223   7.880  19.055  0.00  0.00    +0.000 N 
ATOM      4  H   UNL     1       2.267   8.848  18.763  0.00  0.00    +0.000 HD
ENDROOT
BRANCH   3   5
ATOM      5  C   UNL     1       2.965   6.958  18.287  0.00  0.00    +0.000 A 
ATOM      6  C   UNL     1       4.044   7.333  17.481  0.00  0.00    +0.000 A 
ATOM      7  C   UNL     1       4.724   6.387  16.715  0.00  0.00    +0.000 A 
ATOM      8  C   UNL     1       4.353   5.047  16.768  0.00  0.00    +0.000 A 
ATOM      9  C   UNL     1       3.307   4.638  17.604  0.00  0.00    +0.000 A 
ATOM     10  C   UNL     1       2.610   5.606  18.351  0.00  0.00    +0.000 A 
BRANCH   9  11
ATOM     11  C   UNL     1       2.953   3.179  17.727  0.00  0.00    +0.000 C 
BRANCH  11  12
ATOM     12  N   UNL     1       2.596   2.759  19.070  0.00  0.00    +0.000 N 
ATOM     13  C   UNL     1       3.376   3.133  20.226  0.00  0.00    +0.000 C 
ATOM     14  C   UNL     1       2.572   2.582  21.387  0.00  0.00    +0.000 C 
ATOM     15  C   UNL     1       1.133   2.698  20.908  0.00  0.00    +0.000 C 
ATOM     16  C   UNL     1       1.260   2.555  19.411  0.00  0.00    +0.000 C 
ATOM     17  O   UNL     1       0.329   2.382  18.641  0.00  0.00    +0.000 OA
ENDBRANCH  11  12
ENDBRANCH   9  11
ENDBRANCH   3   5
BRANCH   2  18
ATOM     18  C   UNL     1       0.844   8.728  20.867  0.00  0.00    +0.000 A 
ATOM     19  C   UNL     1       0.356   9.727  20.028  0.00  0.00    +0.000 A 
ATOM     20  C   UNL     1      -0.312  10.834  20.562  0.00  0.00    +0.000 A 
ATOM     21  C   UNL     1      -0.483  10.979  21.944  0.00  0.00    +0.000 A 
ATOM     22  C   UNL     1       0.024   9.964  22.775  0.00  0.00    +0.000 A 
ATOM     23  C   UNL     1       0.676   8.841  22.248  0.00  0.00    +0.000 A 
BRANCH  21  24
ATOM     24  N   UNL     1      -1.123  12.123  22.496  0.00  0.00    +0.000 N 
ATOM     25  C   UNL     1      -2.415  12.054  23.138  0.00  0.00    +0.000 C 
ATOM     26  C   UNL     1      -2.840  13.498  23.288  0.00  0.00    +0.000 C 
ATOM     27  C   UNL     1      -1.532  14.243  23.439  0.00  0.00    +0.000 C 
ATOM     28  C   UNL     1      -0.553  13.397  22.661  0.00  0.00    +0.000 C 
ATOM     29  O   UNL     1       0.536  13.816  22.302  0.00  0.00    +0.000 OA
ENDBRANCH  21  24
ENDBRANCH   2  18
TORSDOF 5
ENDMDL
MODEL 8
REMARK VINA RESULT:      -8.6      1.314      1.848
REMARK  Name = 
REMARK  5 active torsions:
REMARK  status: ('A' for Active; 'I' for Inactive)
REMARK    1  A    between atoms: C_2  and  C_17
REMARK    2  A    between atoms: N_3  and  C_4
REMARK    3  A    between atoms: C_8  and  C_9
REMARK    4  A    between atoms: C_9  and  N_10
REMARK    5  A    between atoms: C_20  and  N_21
REMARK                            x       y       z     vdW  Elec       q    Type
REMARK                         _______ _______ _______ _____ _____    ______ ____
ROOT
ATOM      1  O   UNL     1       2.180   8.023  19.277  0.00  0.00    +0.000 OA
ATOM      2  C   UNL     1       1.614   7.736  20.327  0.00  0.00    +0.000 C 
ATOM      3  N   UNL     1       1.604   6.504  20.956  0.00  0.00    +0.000 N 
ATOM      4  H   UNL     1       0.934   6.366  21.703  0.00  0.00    +0.000 HD
ENDROOT
BRANCH   3   5
ATOM      5  C   UNL     1       2.319   5.364  20.536  0.00  0.00    +0.000 A 
ATOM      6  C   UNL     1       2.122   4.095  21.088  0.00  0.00    +0.000 A 
ATOM      7  C   UNL     1       2.879   3.005  20.659  0.00  0.00    +0.000 A 
ATOM      8  C   UNL     1       3.824   3.164  19.650  0.00  0.00    +0.000 A 
ATOM      9  C   UNL     1       4.007   4.415  19.047  0.00  0.00    +0.000 A 
ATOM     10  C   UNL     1       3.256   5.513  19.507  0.00  0.00    +0.000 A 
BRANCH   9  11
ATOM     11  C   UNL     1       4.969   4.576  17.899  0.00  0.00    +0.000 C 
BRANCH  11  12
ATOM     12  N   UNL     1       5.960   5.620  18.088  0.00  0.00    +0.000 N 
ATOM     13  C   UNL     1       7.139   5.423  18.898  0.00  0.00    +0.000 C 
ATOM     14  C   UNL     1       7.917   6.709  18.706  0.00  0.00    +0.000 C 
ATOM     15  C   UNL     1       7.580   7.117  17.280  0.00  0.00    +0.000 C 
ATOM     16  C   UNL     1       6.191   6.559  17.086  0.00  0.00    +0.000 C 
ATOM     17  O   UNL     1       5.451   6.830  16.155  0.00  0.00    +0.000 OA
ENDBRANCH  11  12
ENDBRANCH   9  11
ENDBRANCH   3   5
BRANCH   2  18
ATOM     18  C   UNL     1       0.805   8.800  20.974  0.00  0.00    +0.000 A 
ATOM     19  C   UNL     1       0.225   9.772  20.161  0.00  0.00    +0.000 A 
ATOM     20  C   UNL     1      -0.503  10.823  20.726  0.00  0.00    +0.000 A 
ATOM     21  C   UNL     1      -0.644  10.942  22.114  0.00  0.00    +0.000 A 
ATOM     22  C   UNL     1      -0.044   9.955  22.918  0.00  0.00    +0.000 A 
ATOM     23  C   UNL     1       0.669   8.886  22.360  0.00  0.00    +0.000 A 
BRANCH  21  24
ATOM     24  N   UNL     1      -1.346  12.033  22.698  0.00  0.00    +0.000 N 
ATOM     25  C   UNL     1      -2.629  11.874  23.341  0.00  0.00    +0.000 C 
ATOM     26  C   UNL     1      -3.135  13.287  23.530  0.00  0.00    +0.000 C 
ATOM     27  C   UNL     1      -1.870  14.101  23.698  0.00  0.00    +0.000 C 
ATOM     28  C   UNL     1      -0.849  13.332  22.896  0.00  0.00    +0.000 C 
ATOM     29  O   UNL     1       0.214  13.821  22.546  0.00  0.00    +0.000 OA
ENDBRANCH  21  24
ENDBRANCH   2  18
TORSDOF 5
ENDMDL
MODEL 9
REMARK VINA RESULT:      -8.5      5.969      8.251
REMARK  Name = 
REMARK  5 active torsions:
REMARK  status: ('A' for Active; 'I' for Inactive)
REMARK    1  A    between atoms: C_2  and  C_17
REMARK    2  A    between atoms: N_3  and  C_4
REMARK    3  A    between atoms: C_8  and  C_9
REMARK    4  A    between atoms: C_9  and  N_10
REMARK    5  A    between atoms: C_20  and  N_21
REMARK                            x       y       z     vdW  Elec       q    Type
REMARK                         _______ _______ _______ _____ _____    ______ ____
ROOT
ATOM      1  O   UNL     1       8.489   7.086  18.868  0.00  0.00    +0.000 OA
ATOM      2  C   UNL     1       7.950   7.941  18.171  0.00  0.00    +0.000 C 
ATOM      3  N   UNL     1       6.985   7.736  17.202  0.00  0.00    +0.000 N 
ATOM      4  H   UNL     1       6.783   8.504  16.574  0.00  0.00    +0.000 HD
ENDROOT
BRANCH   3   5
ATOM      5  C   UNL     1       6.384   6.498  16.894  0.00  0.00    +0.000 A 
ATOM      6  C   UNL     1       7.041   5.486  16.190  0.00  0.00    +0.000 A 
ATOM      7  C   UNL     1       6.391   4.292  15.882  0.00  0.00    +0.000 A 
ATOM      8  C   UNL     1       5.080   4.082  16.300  0.00  0.00    +0.000 A 
ATOM      9  C   UNL     1       4.414   5.061  17.048  0.00  0.00    +0.000 A 
ATOM     10  C   UNL     1       5.073   6.273  17.329  0.00  0.00    +0.000 A 
BRANCH   9  11
ATOM     11  C   UNL     1       3.026   4.808  17.573  0.00  0.00    +0.000 C 
BRANCH  11  12
ATOM     12  N   UNL     1       2.973   4.423  18.972  0.00  0.00    +0.000 N 
ATOM     13  C   UNL     1       2.325   5.240  19.971  0.00  0.00    +0.000 C 
ATOM     14  C   UNL     1       2.415   4.398  21.228  0.00  0.00    +0.000 C 
ATOM     15  C   UNL     1       2.332   2.972  20.705  0.00  0.00    +0.000 C 
ATOM     16  C   UNL     1       2.946   3.077  19.331  0.00  0.00    +0.000 C 
ATOM     17  O   UNL     1       3.271   2.130  18.633  0.00  0.00    +0.000 OA
ENDBRANCH  11  12
ENDBRANCH   9  11
ENDBRANCH   3   5
BRANCH   2  18
ATOM     18  C   UNL     1       8.414   9.341  18.337  0.00  0.00    +0.000 A 
ATOM     19  C   UNL     1       7.927  10.304  17.456  0.00  0.00    +0.000 A 
ATOM     20  C   UNL     1       8.372  11.627  17.538  0.00  0.00    +0.000 A 
ATOM     21  C   UNL     1       9.333  12.010  18.482  0.00  0.00    +0.000 A 
ATOM     22  C   UNL     1       9.819  11.021  19.356  0.00  0.00    +0.000 A 
ATOM     23  C   UNL     1       9.363   9.698  19.296  0.00  0.00    +0.000 A 
BRANCH  21  24
ATOM     24  N   UNL     1       9.823  13.344  18.542  0.00  0.00    +0.000 N 
ATOM     25  C   UNL     1      10.973  13.783  17.786  0.00  0.00    +0.000 C 
ATOM     26  C   UNL     1      11.318  15.134  18.372  0.00  0.00    +0.000 C 
ATOM     27  C   UNL     1       9.982  15.677  18.830  0.00  0.00    +0.000 C 
ATOM     28  C   UNL     1       9.193  14.435  19.165  0.00  0.00    +0.000 C 
ATOM     29  O   UNL     1       8.178  14.464  19.843  0.00  0.00    +0.000 OA
ENDBRANCH  21  24
ENDBRANCH   2  18
TORSDOF 5
ENDMDL
