MODEL 1
REMARK VINA RESULT:      -8.5      0.000      0.000
REMARK  Name = 
REMARK  5 active torsions:
REMARK  status: ('A' for Active; 'I' for Inactive)
REMARK    1  A    between atoms: C_2  and  C_13
REMARK    2  A    between atoms: C_18  and  S_19
REMARK    3  A    between atoms: S_19  and  N_22
REMARK    4  A    between atoms: N_22  and  C_23
REMARK    5  A    between atoms: C_23  and  C_24
REMARK                            x       y       z     vdW  Elec       q    Type
REMARK                         _______ _______ _______ _____ _____    ______ ____
ROOT
ATOM      1  C   UNL     1       2.390   6.719  18.096  0.00  0.00    +0.000 A 
ATOM      2  C   UNL     1       1.422   5.817  17.655  0.00  0.00    +0.000 A 
ATOM      3  C   UNL     1       1.719   4.454  17.630  0.00  0.00    +0.000 A 
ATOM      4  C   UNL     1       2.970   3.977  18.055  0.00  0.00    +0.000 A 
ATOM      5 CL   UNL     1       3.214   2.288  17.833  0.00  0.00    +0.000 Cl
ATOM      6  C   UNL     1       3.909   4.876  18.569  0.00  0.00    +0.000 A 
ATOM      7  C   UNL     1       3.625   6.253  18.559  0.00  0.00    +0.000 A 
ENDROOT
BRANCH   1   9
ATOM      8  O   UNL     1       2.535   8.896  17.269  0.00  0.00    +0.000 OA
ATOM      9  C   UNL     1       2.076   8.164  18.139  0.00  0.00    +0.000 C 
ATOM     10  N   UNL     1       1.310   8.561  19.215  0.00  0.00    +0.000 N 
ATOM     11  C   UNL     1       1.024   9.890  19.389  0.00  0.00    +0.000 A 
ATOM     12  N   UNL     1       1.025  10.505  20.547  0.00  0.00    +0.000 NA
ATOM     13  C   UNL     1       0.783  11.825  20.247  0.00  0.00    +0.000 A 
ATOM     14  C   UNL     1       0.815  12.955  21.077  0.00  0.00    +0.000 A 
ATOM     15  C   UNL     1       0.472  14.198  20.531  0.00  0.00    +0.000 A 
ATOM     16  C   UNL     1       0.080  14.310  19.194  0.00  0.00    +0.000 A 
ATOM     17  C   UNL     1       0.073  13.200  18.341  0.00  0.00    +0.000 A 
ATOM     18  C   UNL     1       0.468  11.982  18.900  0.00  0.00    +0.000 A 
ATOM     19  N   UNL     1       0.679  10.738  18.367  0.00  0.00    +0.000 N 
ATOM     20  H   UNL     1       1.320   8.012  20.065  0.00  0.00    +0.000 HD
ATOM     21  H   UNL     1       0.608  10.474  17.396  0.00  0.00    +0.000 HD
ENDBRANCH   1   9
BRANCH   6  22
ATOM     22  S   UNL     1       5.524   4.390  19.148  0.00  0.00    +0.000 S 
ATOM     23  O   UNL     1       6.140   5.534  19.772  0.00  0.00    +0.000 OA
ATOM     24  O   UNL     1       5.329   3.151  19.882  0.00  0.00    +0.000 OA
BRANCH  22  25
ATOM     25  N   UNL     1       6.396   3.952  17.771  0.00  0.00    +0.000 NA
ATOM     26  H   UNL     1       5.892   3.350  17.118  0.00  0.00    +0.000 HD
BRANCH  25  27
ATOM     27  C   UNL     1       7.113   5.040  17.065  0.00  0.00    +0.000 C 
BRANCH  27  28
ATOM     28  C   UNL     1       6.505   5.289  15.682  0.00  0.00    +0.000 C 
ATOM     29  C   UNL     1       5.521   4.193  15.294  0.00  0.00    +0.000 C 
ATOM     30  C   UNL     1       5.616   4.193  13.792  0.00  0.00    +0.000 C 
ATOM     31  C   UNL     1       7.080   4.497  13.560  0.00  0.00    +0.000 C 
ATOM     32  O   UNL     1       7.544   5.265  14.678  0.00  0.00    +0.000 OA
ENDBRANCH  27  28
ENDBRANCH  25  27
ENDBRANCH  22  25
ENDBRANCH   6  22
TORSDOF 5
ENDMDL
MODEL 2
REMARK VINA RESULT:      -8.4      4.664      9.225
REMARK  Name = 
REMARK  5 active torsions:
REMARK  status: ('A' for Active; 'I' for Inactive)
REMARK    1  A    between atoms: C_2  and  C_13
REMARK    2  A    between atoms: C_18  and  S_19
REMARK    3  A    between atoms: S_19  and  N_22
REMARK    4  A    between atoms: N_22  and  C_23
REMARK    5  A    between atoms: C_23  and  C_24
REMARK                            x       y       z     vdW  Elec       q    Type
REMARK                         _______ _______ _______ _____ _____    ______ ____
ROOT
ATOM      1  C   UNL     1       0.597   9.727  20.234  0.00  0.00    +0.000 A 
ATOM      2  C   UNL     1       0.659   9.359  21.577  0.00  0.00    +0.000 A 
ATOM      3  C   UNL     1      -0.119  10.044  22.510  0.00  0.00    +0.000 A 
ATOM      4  C   UNL     1      -0.973  11.088  22.115  0.00  0.00    +0.000 A 
ATOM      5 CL   UNL     1      -1.757  11.910  23.408  0.00  0.00    +0.000 Cl
ATOM      6  C   UNL     1      -1.091  11.402  20.758  0.00  0.00    +0.000 A 
ATOM      7  C   UNL     1      -0.279  10.738  19.822  0.00  0.00    +0.000 A 
ENDROOT
BRANCH   1   9
ATOM      8  O   UNL     1       1.390   9.367  18.069  0.00  0.00    +0.000 OA
ATOM      9  C   UNL     1       1.409   8.994  19.236  0.00  0.00    +0.000 C 
ATOM     10  N   UNL     1       2.091   7.902  19.731  0.00  0.00    +0.000 N 
ATOM     11  C   UNL     1       2.814   7.112  18.875  0.00  0.00    +0.000 A 
ATOM     12  N   UNL     1       2.860   5.803  18.934  0.00  0.00    +0.000 NA
ATOM     13  C   UNL     1       3.612   5.427  17.846  0.00  0.00    +0.000 A 
ATOM     14  C   UNL     1       3.869   4.148  17.331  0.00  0.00    +0.000 A 
ATOM     15  C   UNL     1       4.723   4.028  16.228  0.00  0.00    +0.000 A 
ATOM     16  C   UNL     1       5.330   5.154  15.666  0.00  0.00    +0.000 A 
ATOM     17  C   UNL     1       5.061   6.443  16.144  0.00  0.00    +0.000 A 
ATOM     18  C   UNL     1       4.166   6.536  17.213  0.00  0.00    +0.000 A 
ATOM     19  N   UNL     1       3.599   7.601  17.862  0.00  0.00    +0.000 N 
ATOM     20  H   UNL     1       1.750   7.433  20.559  0.00  0.00    +0.000 HD
ATOM     21  H   UNL     1       3.717   8.578  17.642  0.00  0.00    +0.000 HD
ENDBRANCH   1   9
BRANCH   6  22
ATOM     22  S   UNL     1      -2.147  12.696  20.135  0.00  0.00    +0.000 S 
ATOM     23  O   UNL     1      -3.334  12.739  20.951  0.00  0.00    +0.000 OA
ATOM     24  O   UNL     1      -1.299  13.866  19.984  0.00  0.00    +0.000 OA
BRANCH  22  25
ATOM     25  N   UNL     1      -2.552  12.243  18.560  0.00  0.00    +0.000 NA
ATOM     26  H   UNL     1      -1.846  11.683  18.080  0.00  0.00    +0.000 HD
BRANCH  25  27
ATOM     27  C   UNL     1      -3.913  11.692  18.357  0.00  0.00    +0.000 C 
BRANCH  27  28
ATOM     28  C   UNL     1      -3.905  10.591  17.293  0.00  0.00    +0.000 C 
ATOM     29  C   UNL     1      -2.497  10.073  17.030  0.00  0.00    +0.000 C 
ATOM     30  C   UNL     1      -2.583   9.624  15.596  0.00  0.00    +0.000 C 
ATOM     31  C   UNL     1      -3.513  10.652  14.990  0.00  0.00    +0.000 C 
ATOM     32  O   UNL     1      -4.375  11.123  16.034  0.00  0.00    +0.000 OA
ENDBRANCH  27  28
ENDBRANCH  25  27
ENDBRANCH  22  25
ENDBRANCH   6  22
TORSDOF 5
ENDMDL
MODEL 3
REMARK VINA RESULT:      -8.4      4.648      9.362
REMARK  Name = 
REMARK  5 active torsions:
REMARK  status: ('A' for Active; 'I' for Inactive)
REMARK    1  A    between atoms: C_2  and  C_13
REMARK    2  A    between atoms: C_18  and  S_19
REMARK    3  A    between atoms: S_19  and  N_22
REMARK    4  A    between atoms: N_22  and  C_23
REMARK    5  A    between atoms: C_23  and  C_24
REMARK                            x       y       z     vdW  Elec       q    Type
REMARK                         _______ _______ _______ _____ _____    ______ ____
ROOT
ATOM      1  C   UNL     1       0.715   9.341  21.022  0.00  0.00    +0.000 A 
ATOM      2  C   UNL     1       0.206   9.228  22.314  0.00  0.00    +0.000 A 
ATOM      3  C   UNL     1      -0.459  10.314  22.885  0.00  0.00    +0.000 A 
ATOM      4  C   UNL     1      -0.635  11.512  22.172  0.00  0.00    +0.000 A 
ATOM      5 CL   UNL     1      -1.357  12.789  23.071  0.00  0.00    +0.000 Cl
ATOM      6  C   UNL     1      -0.192  11.595  20.849  0.00  0.00    +0.000 A 
ATOM      7  C   UNL     1       0.512  10.515  20.287  0.00  0.00    +0.000 A 
ENDROOT
BRANCH   1   9
ATOM      8  O   UNL     1       1.979   8.346  19.332  0.00  0.00    +0.000 OA
ATOM      9  C   UNL     1       1.408   8.188  20.405  0.00  0.00    +0.000 C 
ATOM     10  N   UNL     1       1.299   7.003  21.103  0.00  0.00    +0.000 N 
ATOM     11  C   UNL     1       1.842   5.858  20.581  0.00  0.00    +0.000 A 
ATOM     12  N   UNL     1       1.272   4.679  20.623  0.00  0.00    +0.000 NA
ATOM     13  C   UNL     1       2.108   3.855  19.908  0.00  0.00    +0.000 A 
ATOM     14  C   UNL     1       1.929   2.523  19.507  0.00  0.00    +0.000 A 
ATOM     15  C   UNL     1       2.971   1.883  18.823  0.00  0.00    +0.000 A 
ATOM     16  C   UNL     1       4.174   2.545  18.568  0.00  0.00    +0.000 A 
ATOM     17  C   UNL     1       4.361   3.885  18.931  0.00  0.00    +0.000 A 
ATOM     18  C   UNL     1       3.287   4.513  19.567  0.00  0.00    +0.000 A 
ATOM     19  N   UNL     1       3.068   5.805  19.966  0.00  0.00    +0.000 N 
ATOM     20  H   UNL     1       0.512   6.858  21.721  0.00  0.00    +0.000 HD
ATOM     21  H   UNL     1       3.682   6.594  19.832  0.00  0.00    +0.000 HD
ENDBRANCH   1   9
BRANCH   6  22
ATOM     22  S   UNL     1      -0.367  13.054  19.841  0.00  0.00    +0.000 S 
ATOM     23  O   UNL     1      -0.862  14.120  20.676  0.00  0.00    +0.000 OA
ATOM     24  O   UNL     1       0.884  13.191  19.115  0.00  0.00    +0.000 OA
BRANCH  22  25
ATOM     25  N   UNL     1      -1.516  12.669  18.666  0.00  0.00    +0.000 NA
ATOM     26  H   UNL     1      -1.139  12.226  17.827  0.00  0.00    +0.000 HD
BRANCH  25  27
ATOM     27  C   UNL     1      -2.745  11.987  19.137  0.00  0.00    +0.000 C 
BRANCH  27  28
ATOM     28  C   UNL     1      -3.225  10.955  18.112  0.00  0.00    +0.000 C 
ATOM     29  C   UNL     1      -2.062  10.177  17.509  0.00  0.00    +0.000 C 
ATOM     30  C   UNL     1      -2.587   9.820  16.145  0.00  0.00    +0.000 C 
ATOM     31  C   UNL     1      -3.406  11.040  15.783  0.00  0.00    +0.000 C 
ATOM     32  O   UNL     1      -3.869  11.627  17.006  0.00  0.00    +0.000 OA
ENDBRANCH  27  28
ENDBRANCH  25  27
ENDBRANCH  22  25
ENDBRANCH   6  22
TORSDOF 5
ENDMDL
MODEL 4
REMARK VINA RESULT:      -8.3      1.399      1.468
REMARK  Name = 
REMARK  5 active torsions:
REMARK  status: ('A' for Active; 'I' for Inactive)
REMARK    1  A    between atoms: C_2  and  C_13
REMARK    2  A    between atoms: C_18  and  S_19
REMARK    3  A    between atoms: S_19  and  N_22
REMARK    4  A    between atoms: N_22  and  C_23
REMARK    5  A    between atoms: C_23  and  C_24
REMARK                            x       y       z     vdW  Elec       q    Type
REMARK                         _______ _______ _______ _____ _____    ______ ____
ROOT
ATOM      1  C   UNL     1       2.228   6.911  19.601  0.00  0.00    +0.000 A 
ATOM      2  C   UNL     1       1.565   6.220  20.614  0.00  0.00    +0.000 A 
ATOM      3  C   UNL     1       1.927   4.901  20.893  0.00  0.00    +0.000 A 
ATOM      4  C   UNL     1       2.959   4.268  20.180  0.00  0.00    +0.000 A 
ATOM      5 CL   UNL     1       3.185   2.604  20.560  0.00  0.00    +0.000 Cl
ATOM      6  C   UNL     1       3.674   4.989  19.219  0.00  0.00    +0.000 A 
ATOM      7  C   UNL     1       3.284   6.304  18.911  0.00  0.00    +0.000 A 
ENDROOT
BRANCH   1   9
ATOM      8  O   UNL     1       2.169   8.795  18.227  0.00  0.00    +0.000 OA
ATOM      9  C   UNL     1       1.859   8.314  19.311  0.00  0.00    +0.000 C 
ATOM     10  N   UNL     1       1.221   8.973  20.342  0.00  0.00    +0.000 N 
ATOM     11  C   UNL     1       0.902  10.299  20.202  0.00  0.00    +0.000 A 
ATOM     12  N   UNL     1       1.025  11.196  21.149  0.00  0.00    +0.000 NA
ATOM     13  C   UNL     1       0.688  12.388  20.554  0.00  0.00    +0.000 A 
ATOM     14  C   UNL     1       0.777  13.697  21.050  0.00  0.00    +0.000 A 
ATOM     15  C   UNL     1       0.312  14.750  20.252  0.00  0.00    +0.000 A 
ATOM     16  C   UNL     1      -0.254  14.503  18.999  0.00  0.00    +0.000 A 
ATOM     17  C   UNL     1      -0.321  13.208  18.471  0.00  0.00    +0.000 A 
ATOM     18  C   UNL     1       0.195  12.184  19.268  0.00  0.00    +0.000 A 
ATOM     19  N   UNL     1       0.391  10.845  19.052  0.00  0.00    +0.000 N 
ATOM     20  H   UNL     1       1.366   8.667  21.295  0.00  0.00    +0.000 HD
ATOM     21  H   UNL     1       0.206  10.334  18.201  0.00  0.00    +0.000 HD
ENDBRANCH   1   9
BRANCH   6  22
ATOM     22  S   UNL     1       5.008   4.298  18.259  0.00  0.00    +0.000 S 
ATOM     23  O   UNL     1       6.121   4.060  19.143  0.00  0.00    +0.000 OA
ATOM     24  O   UNL     1       4.424   3.218  17.483  0.00  0.00    +0.000 OA
BRANCH  22  25
ATOM     25  N   UNL     1       5.421   5.479  17.126  0.00  0.00    +0.000 NA
ATOM     26  H   UNL     1       5.378   6.439  17.472  0.00  0.00    +0.000 HD
BRANCH  25  27
ATOM     27  C   UNL     1       6.653   5.240  16.337  0.00  0.00    +0.000 C 
BRANCH  27  28
ATOM     28  C   UNL     1       6.347   5.231  14.836  0.00  0.00    +0.000 C 
ATOM     29  C   UNL     1       5.940   3.845  14.352  0.00  0.00    +0.000 C 
ATOM     30  C   UNL     1       6.388   3.862  12.916  0.00  0.00    +0.000 C 
ATOM     31  C   UNL     1       7.659   4.681  12.982  0.00  0.00    +0.000 C 
ATOM     32  O   UNL     1       7.536   5.579  14.092  0.00  0.00    +0.000 OA
ENDBRANCH  27  28
ENDBRANCH  25  27
ENDBRANCH  22  25
ENDBRANCH   6  22
TORSDOF 5
ENDMDL
MODEL 5
REMARK VINA RESULT:      -8.3      3.257      4.296
REMARK  Name = 
REMARK  5 active torsions:
REMARK  status: ('A' for Active; 'I' for Inactive)
REMARK    1  A    between atoms: C_2  and  C_13
REMARK    2  A    between atoms: C_18  and  S_19
REMARK    3  A    between atoms: S_19  and  N_22
REMARK    4  A    between atoms: N_22  and  C_23
REMARK    5  A    between atoms: C_23  and  C_24
REMARK                            x       y       z     vdW  Elec       q    Type
REMARK                         _______ _______ _______ _____ _____    ______ ____
ROOT
ATOM      1  C   UNL     1       3.375   5.522  18.393  0.00  0.00    +0.000 A 
ATOM      2  C   UNL     1       2.827   4.460  17.675  0.00  0.00    +0.000 A 
ATOM      3  C   UNL     1       3.628   3.758  16.773  0.00  0.00    +0.000 A 
ATOM      4  C   UNL     1       4.979   4.096  16.589  0.00  0.00    +0.000 A 
ATOM      5 CL   UNL     1       5.782   3.218  15.346  0.00  0.00    +0.000 Cl
ATOM      6  C   UNL     1       5.545   5.110  17.367  0.00  0.00    +0.000 A 
ATOM      7  C   UNL     1       4.730   5.842  18.248  0.00  0.00    +0.000 A 
ENDROOT
BRANCH   1   9
ATOM      8  O   UNL     1       1.877   5.624  20.178  0.00  0.00    +0.000 OA
ATOM      9  C   UNL     1       2.536   6.259  19.362  0.00  0.00    +0.000 C 
ATOM     10  N   UNL     1       2.546   7.631  19.216  0.00  0.00    +0.000 N 
ATOM     11  C   UNL     1       1.744   8.403  20.017  0.00  0.00    +0.000 A 
ATOM     12  N   UNL     1       1.071   9.449  19.606  0.00  0.00    +0.000 NA
ATOM     13  C   UNL     1       0.342   9.853  20.699  0.00  0.00    +0.000 A 
ATOM     14  C   UNL     1      -0.657  10.832  20.800  0.00  0.00    +0.000 A 
ATOM     15  C   UNL     1      -1.215  11.093  22.058  0.00  0.00    +0.000 A 
ATOM     16  C   UNL     1      -0.769  10.414  23.195  0.00  0.00    +0.000 A 
ATOM     17  C   UNL     1       0.204   9.411  23.110  0.00  0.00    +0.000 A 
ATOM     18  C   UNL     1       0.706   9.137  21.836  0.00  0.00    +0.000 A 
ATOM     19  N   UNL     1       1.567   8.183  21.360  0.00  0.00    +0.000 N 
ATOM     20  H   UNL     1       2.764   8.035  18.315  0.00  0.00    +0.000 HD
ATOM     21  H   UNL     1       1.998   7.438  21.886  0.00  0.00    +0.000 HD
ENDBRANCH   1   9
BRANCH   6  22
ATOM     22  S   UNL     1       7.248   5.621  17.232  0.00  0.00    +0.000 S 
ATOM     23  O   UNL     1       8.079   4.541  17.701  0.00  0.00    +0.000 OA
ATOM     24  O   UNL     1       7.400   6.154  15.890  0.00  0.00    +0.000 OA
BRANCH  22  25
ATOM     25  N   UNL     1       7.413   6.954  18.255  0.00  0.00    +0.000 NA
ATOM     26  H   UNL     1       8.246   6.941  18.845  0.00  0.00    +0.000 HD
BRANCH  25  27
ATOM     27  C   UNL     1       7.196   8.288  17.648  0.00  0.00    +0.000 C 
BRANCH  27  28
ATOM     28  C   UNL     1       8.452   9.155  17.771  0.00  0.00    +0.000 C 
ATOM     29  C   UNL     1       8.945   9.231  19.211  0.00  0.00    +0.000 C 
ATOM     30  C   UNL     1       9.620  10.575  19.248  0.00  0.00    +0.000 C 
ATOM     31  C   UNL     1       8.743  11.404  18.335  0.00  0.00    +0.000 C 
ATOM     32  O   UNL     1       8.149  10.514  17.383  0.00  0.00    +0.000 OA
ENDBRANCH  27  28
ENDBRANCH  25  27
ENDBRANCH  22  25
ENDBRANCH   6  22
TORSDOF 5
ENDMDL
MODEL 6
REMARK VINA RESULT:      -8.3      4.435      9.101
REMARK  Name = 
REMARK  5 active torsions:
REMARK  status: ('A' for Active; 'I' for Inactive)
REMARK    1  A    between atoms: C_2  and  C_13
REMARK    2  A    between atoms: C_18  and  S_19
REMARK    3  A    between atoms: S_19  and  N_22
REMARK    4  A    between atoms: N_22  and  C_23
REMARK    5  A    between atoms: C_23  and  C_24
REMARK                            x       y       z     vdW  Elec       q    Type
REMARK                         _______ _______ _______ _____ _____    ______ ____
ROOT
ATOM      1  C   UNL     1       0.704   9.285  20.967  0.00  0.00    +0.000 A 
ATOM      2  C   UNL     1       0.211   9.154  22.264  0.00  0.00    +0.000 A 
ATOM      3  C   UNL     1      -0.479  10.219  22.844  0.00  0.00    +0.000 A 
ATOM      4  C   UNL     1      -0.698  11.413  22.135  0.00  0.00    +0.000 A 
ATOM      5 CL   UNL     1      -1.448  12.667  23.044  0.00  0.00    +0.000 Cl
ATOM      6  C   UNL     1      -0.271  11.511  20.808  0.00  0.00    +0.000 A 
ATOM      7  C   UNL     1       0.458  10.453  20.237  0.00  0.00    +0.000 A 
ENDROOT
BRANCH   1   9
ATOM      8  O   UNL     1       1.608   7.135  20.997  0.00  0.00    +0.000 OA
ATOM      9  C   UNL     1       1.424   8.154  20.341  0.00  0.00    +0.000 C 
ATOM     10  N   UNL     1       1.867   8.386  19.055  0.00  0.00    +0.000 N 
ATOM     11  C   UNL     1       2.609   7.429  18.413  0.00  0.00    +0.000 A 
ATOM     12  N   UNL     1       3.651   7.679  17.659  0.00  0.00    +0.000 NA
ATOM     13  C   UNL     1       4.135   6.443  17.302  0.00  0.00    +0.000 A 
ATOM     14  C   UNL     1       5.313   6.101  16.622  0.00  0.00    +0.000 A 
ATOM     15  C   UNL     1       5.553   4.753  16.331  0.00  0.00    +0.000 A 
ATOM     16  C   UNL     1       4.627   3.768  16.684  0.00  0.00    +0.000 A 
ATOM     17  C   UNL     1       3.461   4.083  17.393  0.00  0.00    +0.000 A 
ATOM     18  C   UNL     1       3.273   5.430  17.713  0.00  0.00    +0.000 A 
ATOM     19  N   UNL     1       2.332   6.085  18.464  0.00  0.00    +0.000 N 
ATOM     20  H   UNL     1       2.039   9.335  18.750  0.00  0.00    +0.000 HD
ATOM     21  H   UNL     1       1.570   5.671  18.978  0.00  0.00    +0.000 HD
ENDBRANCH   1   9
BRANCH   6  22
ATOM     22  S   UNL     1      -0.500  12.967  19.805  0.00  0.00    +0.000 S 
ATOM     23  O   UNL     1      -1.114  13.983  20.622  0.00  0.00    +0.000 OA
ATOM     24  O   UNL     1       0.774  13.203  19.148  0.00  0.00    +0.000 OA
BRANCH  22  25
ATOM     25  N   UNL     1      -1.555  12.514  18.567  0.00  0.00    +0.000 NA
ATOM     26  H   UNL     1      -1.117  12.009  17.795  0.00  0.00    +0.000 HD
BRANCH  25  27
ATOM     27  C   UNL     1      -2.829  11.880  18.979  0.00  0.00    +0.000 C 
BRANCH  27  28
ATOM     28  C   UNL     1      -3.298  10.864  17.934  0.00  0.00    +0.000 C 
ATOM     29  C   UNL     1      -2.127  10.105  17.322  0.00  0.00    +0.000 C 
ATOM     30  C   UNL     1      -2.645   9.768  15.950  0.00  0.00    +0.000 C 
ATOM     31  C   UNL     1      -3.472  10.988  15.607  0.00  0.00    +0.000 C 
ATOM     32  O   UNL     1      -3.944  11.550  16.838  0.00  0.00    +0.000 OA
ENDBRANCH  27  28
ENDBRANCH  25  27
ENDBRANCH  22  25
ENDBRANCH   6  22
TORSDOF 5
ENDMDL
MODEL 7
REMARK VINA RESULT:      -8.2      0.931      1.038
REMARK  Name = 
REMARK  5 active torsions:
REMARK  status: ('A' for Active; 'I' for Inactive)
REMARK    1  A    between atoms: C_2  and  C_13
REMARK    2  A    between atoms: C_18  and  S_19
REMARK    3  A    between atoms: S_19  and  N_22
REMARK    4  A    between atoms: N_22  and  C_23
REMARK    5  A    between atoms: C_23  and  C_24
REMARK                            x       y       z     vdW  Elec       q    Type
REMARK                         _______ _______ _______ _____ _____    ______ ____
ROOT
ATOM      1  C   UNL     1       2.582   7.072  18.032  0.00  0.00    +0.000 A 
ATOM      2  C   UNL     1       1.647   6.039  18.067  0.00  0.00    +0.000 A 
ATOM      3  C   UNL     1       2.088   4.715  18.032  0.00  0.00    +0.000 A 
ATOM      4  C   UNL     1       3.459   4.411  17.977  0.00  0.00    +0.000 A 
ATOM      5 CL   UNL     1       3.821   2.737  17.805  0.00  0.00    +0.000 Cl
ATOM      6  C   UNL     1       4.395   5.447  18.021  0.00  0.00    +0.000 A 
ATOM      7  C   UNL     1       3.950   6.781  18.017  0.00  0.00    +0.000 A 
ENDROOT
BRANCH   1   9
ATOM      8  O   UNL     1       2.453   9.243  17.187  0.00  0.00    +0.000 OA
ATOM      9  C   UNL     1       2.120   8.477  18.085  0.00  0.00    +0.000 C 
ATOM     10  N   UNL     1       1.374   8.804  19.198  0.00  0.00    +0.000 N 
ATOM     11  C   UNL     1       0.960  10.098  19.380  0.00  0.00    +0.000 A 
ATOM     12  N   UNL     1       0.957  10.722  20.532  0.00  0.00    +0.000 NA
ATOM     13  C   UNL     1       0.563  12.005  20.238  0.00  0.00    +0.000 A 
ATOM     14  C   UNL     1       0.519  13.142  21.059  0.00  0.00    +0.000 A 
ATOM     15  C   UNL     1       0.019  14.336  20.526  0.00  0.00    +0.000 A 
ATOM     16  C   UNL     1      -0.453  14.392  19.212  0.00  0.00    +0.000 A 
ATOM     17  C   UNL     1      -0.387  13.278  18.366  0.00  0.00    +0.000 A 
ATOM     18  C   UNL     1       0.162  12.114  18.910  0.00  0.00    +0.000 A 
ATOM     19  N   UNL     1       0.474  10.893  18.373  0.00  0.00    +0.000 N 
ATOM     20  H   UNL     1       1.488   8.268  20.049  0.00  0.00    +0.000 HD
ATOM     21  H   UNL     1       0.380  10.612  17.408  0.00  0.00    +0.000 HD
ENDBRANCH   1   9
BRANCH   6  22
ATOM     22  S   UNL     1       6.158   5.186  17.968  0.00  0.00    +0.000 S 
ATOM     23  O   UNL     1       6.796   6.465  17.782  0.00  0.00    +0.000 OA
ATOM     24  O   UNL     1       6.473   4.352  19.115  0.00  0.00    +0.000 OA
BRANCH  22  25
ATOM     25  N   UNL     1       6.440   4.206  16.622  0.00  0.00    +0.000 NA
ATOM     26  H   UNL     1       5.605   3.769  16.228  0.00  0.00    +0.000 HD
BRANCH  25  27
ATOM     27  C   UNL     1       7.312   4.767  15.563  0.00  0.00    +0.000 C 
BRANCH  27  28
ATOM     28  C   UNL     1       6.567   4.850  14.228  0.00  0.00    +0.000 C 
ATOM     29  C   UNL     1       5.771   3.581  13.947  0.00  0.00    +0.000 C 
ATOM     30  C   UNL     1       5.753   3.540  12.443  0.00  0.00    +0.000 C 
ATOM     31  C   UNL     1       7.116   4.091  12.087  0.00  0.00    +0.000 C 
ATOM     32  O   UNL     1       7.515   4.972  13.144  0.00  0.00    +0.000 OA
ENDBRANCH  27  28
ENDBRANCH  25  27
ENDBRANCH  22  25
ENDBRANCH   6  22
TORSDOF 5
ENDMDL
MODEL 8
REMARK VINA RESULT:      -8.2      4.282      9.112
REMARK  Name = 
REMARK  5 active torsions:
REMARK  status: ('A' for Active; 'I' for Inactive)
REMARK    1  A    between atoms: C_2  and  C_13
REMARK    2  A    between atoms: C_18  and  S_19
REMARK    3  A    between atoms: S_19  and  N_22
REMARK    4  A    between atoms: N_22  and  C_23
REMARK    5  A    between atoms: C_23  and  C_24
REMARK                            x       y       z     vdW  Elec       q    Type
REMARK                         _______ _______ _______ _____ _____    ______ ____
ROOT
ATOM      1  C   UNL     1       0.974   9.498  19.581  0.00  0.00    +0.000 A 
ATOM      2  C   UNL     1       0.611   8.917  20.795  0.00  0.00    +0.000 A 
ATOM      3  C   UNL     1      -0.212   9.624  21.673  0.00  0.00    +0.000 A 
ATOM      4  C   UNL     1      -0.691  10.903  21.345  0.00  0.00    +0.000 A 
ATOM      5 CL   UNL     1      -1.582  11.684  22.594  0.00  0.00    +0.000 Cl
ATOM      6  C   UNL     1      -0.390  11.450  20.095  0.00  0.00    +0.000 A 
ATOM      7  C   UNL     1       0.470  10.755  19.226  0.00  0.00    +0.000 A 
ENDROOT
BRANCH   1   9
ATOM      8  O   UNL     1       1.934   9.146  17.485  0.00  0.00    +0.000 OA
ATOM      9  C   UNL     1       1.833   8.747  18.639  0.00  0.00    +0.000 C 
ATOM     10  N   UNL     1       2.418   7.613  19.163  0.00  0.00    +0.000 N 
ATOM     11  C   UNL     1       3.174   6.806  18.353  0.00  0.00    +0.000 A 
ATOM     12  N   UNL     1       3.153   5.496  18.381  0.00  0.00    +0.000 NA
ATOM     13  C   UNL     1       3.979   5.107  17.353  0.00  0.00    +0.000 A 
ATOM     14  C   UNL     1       4.219   3.828  16.830  0.00  0.00    +0.000 A 
ATOM     15  C   UNL     1       5.160   3.690  15.801  0.00  0.00    +0.000 A 
ATOM     16  C   UNL     1       5.866   4.797  15.323  0.00  0.00    +0.000 A 
ATOM     17  C   UNL     1       5.617   6.086  15.809  0.00  0.00    +0.000 A 
ATOM     18  C   UNL     1       4.638   6.201  16.799  0.00  0.00    +0.000 A 
ATOM     19  N   UNL     1       4.067   7.278  17.423  0.00  0.00    +0.000 N 
ATOM     20  H   UNL     1       1.983   7.144  19.946  0.00  0.00    +0.000 HD
ATOM     21  H   UNL     1       4.250   8.253  17.240  0.00  0.00    +0.000 HD
ENDBRANCH   1   9
BRANCH   6  22
ATOM     22  S   UNL     1      -0.947  13.057  19.561  0.00  0.00    +0.000 S 
ATOM     23  O   UNL     1      -0.760  13.982  20.651  0.00  0.00    +0.000 OA
ATOM     24  O   UNL     1      -0.325  13.287  18.269  0.00  0.00    +0.000 OA
BRANCH  22  25
ATOM     25  N   UNL     1      -2.595  12.889  19.232  0.00  0.00    +0.000 NA
ATOM     26  H   UNL     1      -3.006  13.657  18.700  0.00  0.00    +0.000 HD
BRANCH  25  27
ATOM     27  C   UNL     1      -3.038  11.571  18.719  0.00  0.00    +0.000 C 
BRANCH  27  28
ATOM     28  C   UNL     1      -2.858  11.487  17.201  0.00  0.00    +0.000 C 
ATOM     29  C   UNL     1      -4.185  11.261  16.487  0.00  0.00    +0.000 C 
ATOM     30  C   UNL     1      -3.761  10.518  15.249  0.00  0.00    +0.000 C 
ATOM     31  C   UNL     1      -2.620   9.664  15.758  0.00  0.00    +0.000 C 
ATOM     32  O   UNL     1      -2.029  10.351  16.868  0.00  0.00    +0.000 OA
ENDBRANCH  27  28
ENDBRANCH  25  27
ENDBRANCH  22  25
ENDBRANCH   6  22
TORSDOF 5
ENDMDL
MODEL 9
REMARK VINA RESULT:      -8.1      1.794      2.388
REMARK  Name = 
REMARK  5 active torsions:
REMARK  status: ('A' for Active; 'I' for Inactive)
REMARK    1  A    between atoms: C_2  and  C_13
REMARK    2  A    between atoms: C_18  and  S_19
REMARK    3  A    between atoms: S_19  and  N_22
REMARK    4  A    between atoms: N_22  and  C_23
REMARK    5  A    between atoms: C_23  and  C_24
REMARK                            x       y       z     vdW  Elec       q    Type
REMARK                         _______ _______ _______ _____ _____    ______ ____
ROOT
ATOM      1  C   UNL     1       2.007   6.840  19.530  0.00  0.00    +0.000 A 
ATOM      2  C   UNL     1       1.658   6.322  20.776  0.00  0.00    +0.000 A 
ATOM      3  C   UNL     1       1.836   4.961  21.025  0.00  0.00    +0.000 A 
ATOM      4  C   UNL     1       2.375   4.110  20.045  0.00  0.00    +0.000 A 
ATOM      5 CL   UNL     1       2.402   2.442  20.472  0.00  0.00    +0.000 Cl
ATOM      6  C   UNL     1       2.795   4.646  18.826  0.00  0.00    +0.000 A 
ATOM      7  C   UNL     1       2.581   6.010  18.560  0.00  0.00    +0.000 A 
ENDROOT
BRANCH   1   9
ATOM      8  O   UNL     1       2.348   8.768  18.262  0.00  0.00    +0.000 OA
ATOM      9  C   UNL     1       1.834   8.286  19.265  0.00  0.00    +0.000 C 
ATOM     10  N   UNL     1       1.127   8.974  20.229  0.00  0.00    +0.000 N 
ATOM     11  C   UNL     1       0.974  10.331  20.115  0.00  0.00    +0.000 A 
ATOM     12  N   UNL     1       1.053  11.174  21.116  0.00  0.00    +0.000 NA
ATOM     13  C   UNL     1       0.935  12.417  20.543  0.00  0.00    +0.000 A 
ATOM     14  C   UNL     1       1.089  13.688  21.115  0.00  0.00    +0.000 A 
ATOM     15  C   UNL     1       0.859  14.816  20.316  0.00  0.00    +0.000 A 
ATOM     16  C   UNL     1       0.459  14.681  18.985  0.00  0.00    +0.000 A 
ATOM     17  C   UNL     1       0.332  13.422  18.385  0.00  0.00    +0.000 A 
ATOM     18  C   UNL     1       0.615  12.317  19.192  0.00  0.00    +0.000 A 
ATOM     19  N   UNL     1       0.697  10.974  18.935  0.00  0.00    +0.000 N 
ATOM     20  H   UNL     1       1.098   8.619  21.175  0.00  0.00    +0.000 HD
ATOM     21  H   UNL     1       0.585  10.518  18.042  0.00  0.00    +0.000 HD
ENDBRANCH   1   9
BRANCH   6  22
ATOM     22  S   UNL     1       3.502   3.671  17.511  0.00  0.00    +0.000 S 
ATOM     23  O   UNL     1       4.312   2.637  18.105  0.00  0.00    +0.000 OA
ATOM     24  O   UNL     1       2.402   3.342  16.622  0.00  0.00    +0.000 OA
BRANCH  22  25
ATOM     25  N   UNL     1       4.480   4.726  16.627  0.00  0.00    +0.000 NA
ATOM     26  H   UNL     1       4.619   5.642  17.056  0.00  0.00    +0.000 HD
BRANCH  25  27
ATOM     27  C   UNL     1       5.751   4.172  16.103  0.00  0.00    +0.000 C 
BRANCH  27  28
ATOM     28  C   UNL     1       6.950   4.969  16.622  0.00  0.00    +0.000 C 
ATOM     29  C   UNL     1       7.043   4.923  18.142  0.00  0.00    +0.000 C 
ATOM     30  C   UNL     1       7.719   6.228  18.462  0.00  0.00    +0.000 C 
ATOM     31  C   UNL     1       7.140   7.158  17.419  0.00  0.00    +0.000 C 
ATOM     32  O   UNL     1       6.798   6.365  16.276  0.00  0.00    +0.000 OA
ENDBRANCH  27  28
ENDBRANCH  25  27
ENDBRANCH  22  25
ENDBRANCH   6  22
TORSDOF 5
ENDMDL
