MODEL 1
REMARK VINA RESULT:      -9.0      0.000      0.000
REMARK  Name = 
REMARK  5 active torsions:
REMARK  status: ('A' for Active; 'I' for Inactive)
REMARK    1  A    between atoms: C_1  and  C_2
REMARK    2  A    between atoms: C_4  and  C_5
REMARK    3  A    between atoms: C_10  and  C_11
REMARK    4  A    between atoms: C_11  and  N_12
REMARK    5  A    between atoms: C_13  and  C_15
REMARK                            x       y       z     vdW  Elec       q    Type
REMARK                         _______ _______ _______ _____ _____    ______ ____
ROOT
ATOM      1  C   UNL     1       2.808   8.115  17.585  0.00  0.00    +0.000 C 
ENDROOT
BRANCH   1  11
ATOM      2  C   UNL     1      -2.911  13.419  21.920  0.00  0.00    +0.000 C 
ATOM      3  C   UNL     1      -1.964  12.281  21.988  0.00  0.00    +0.000 A 
ATOM      4  C   UNL     1      -1.692  11.448  23.086  0.00  0.00    +0.000 A 
ATOM      5  C   UNL     1      -0.738  10.555  22.647  0.00  0.00    +0.000 A 
ATOM      6  C   UNL     1      -0.048   9.479  23.401  0.00  0.00    +0.000 C 
ATOM      7  N   UNL     1      -0.514  10.850  21.305  0.00  0.00    +0.000 N 
ATOM      8  C   UNL     1       0.330  10.162  20.369  0.00  0.00    +0.000 A 
ATOM      9  C   UNL     1       0.462  10.677  19.077  0.00  0.00    +0.000 A 
ATOM     10  C   UNL     1       1.271  10.009  18.158  0.00  0.00    +0.000 A 
ATOM     11  C   UNL     1       1.928   8.846  18.536  0.00  0.00    +0.000 A 
ATOM     12  C   UNL     1       1.734   8.392  19.838  0.00  0.00    +0.000 A 
ATOM     13  N   UNL     1       0.965   9.022  20.757  0.00  0.00    +0.000 NA
ATOM     14  N   UNL     1      -1.240  11.942  20.919  0.00  0.00    +0.000 NA
ENDBRANCH   1  11
BRANCH   1  15
ATOM     15  N   UNL     1       3.135   6.773  18.082  0.00  0.00    +0.000 N 
ATOM     16  C   UNL     1       4.397   6.215  18.011  0.00  0.00    +0.000 C 
ATOM     17  O   UNL     1       5.372   6.693  17.438  0.00  0.00    +0.000 OA
ATOM     18  H   UNL     1       2.459   6.257  18.613  0.00  0.00    +0.000 HD
BRANCH  16  19
ATOM     19  C   UNL     1       4.424   4.964  18.827  0.00  0.00    +0.000 A 
ATOM     20  N   UNL     1       5.558   4.216  18.815  0.00  0.00    +0.000 NA
ATOM     21  N   UNL     1       5.207   3.134  19.522  0.00  0.00    +0.000 N 
ATOM     22  C   UNL     1       3.896   3.122  19.924  0.00  0.00    +0.000 A 
ATOM     23  C   UNL     1       3.119   2.138  20.508  0.00  0.00    +0.000 A 
ATOM     24  C   UNL     1       2.076   2.589  21.301  0.00  0.00    +0.000 A 
ATOM     25  C   UNL     1       1.573   3.871  21.108  0.00  0.00    +0.000 A 
ATOM     26  C   UNL     1       2.151   4.732  20.153  0.00  0.00    +0.000 A 
ATOM     27  C   UNL     1       3.427   4.394  19.647  0.00  0.00    +0.000 A 
ATOM     28  H   UNL     1       5.940   2.480  19.793  0.00  0.00    +0.000 HD
ENDBRANCH  16  19
ENDBRANCH   1  15
TORSDOF 3
ENDMDL
MODEL 2
REMARK VINA RESULT:      -9.0      3.168      5.381
REMARK  Name = 
REMARK  5 active torsions:
REMARK  status: ('A' for Active; 'I' for Inactive)
REMARK    1  A    between atoms: C_1  and  C_2
REMARK    2  A    between atoms: C_4  and  C_5
REMARK    3  A    between atoms: C_10  and  C_11
REMARK    4  A    between atoms: C_11  and  N_12
REMARK    5  A    between atoms: C_13  and  C_15
REMARK                            x       y       z     vdW  Elec       q    Type
REMARK                         _______ _______ _______ _____ _____    ______ ____
ROOT
ATOM      1  C   UNL     1       3.866   3.454  19.209  0.00  0.00    +0.000 C 
ENDROOT
BRANCH   1  11
ATOM      2  C   UNL     1      -0.547  10.451  22.557  0.00  0.00    +0.000 C 
ATOM      3  C   UNL     1       0.204   9.875  21.416  0.00  0.00    +0.000 A 
ATOM      4  C   UNL     1       0.582  10.512  20.222  0.00  0.00    +0.000 A 
ATOM      5  C   UNL     1       1.247   9.555  19.486  0.00  0.00    +0.000 A 
ATOM      6  C   UNL     1       1.823   9.659  18.123  0.00  0.00    +0.000 C 
ATOM      7  N   UNL     1       1.285   8.409  20.277  0.00  0.00    +0.000 N 
ATOM      8  C   UNL     1       1.932   7.157  20.002  0.00  0.00    +0.000 A 
ATOM      9  C   UNL     1       1.782   6.108  20.913  0.00  0.00    +0.000 A 
ATOM     10  C   UNL     1       2.416   4.892  20.660  0.00  0.00    +0.000 A 
ATOM     11  C   UNL     1       3.187   4.742  19.516  0.00  0.00    +0.000 A 
ATOM     12  C   UNL     1       3.296   5.839  18.665  0.00  0.00    +0.000 A 
ATOM     13  N   UNL     1       2.685   7.028  18.875  0.00  0.00    +0.000 NA
ATOM     14  N   UNL     1       0.602   8.602  21.445  0.00  0.00    +0.000 NA
ENDBRANCH   1  11
BRANCH   1  15
ATOM     15  N   UNL     1       4.862   3.617  18.143  0.00  0.00    +0.000 N 
ATOM     16  C   UNL     1       4.550   3.620  16.797  0.00  0.00    +0.000 C 
ATOM     17  O   UNL     1       3.452   3.382  16.304  0.00  0.00    +0.000 OA
ATOM     18  H   UNL     1       5.807   3.859  18.373  0.00  0.00    +0.000 HD
BRANCH  16  19
ATOM     19  C   UNL     1       5.749   4.056  16.020  0.00  0.00    +0.000 A 
ATOM     20  N   UNL     1       6.791   4.601  16.699  0.00  0.00    +0.000 NA
ATOM     21  N   UNL     1       7.617   4.990  15.718  0.00  0.00    +0.000 N 
ATOM     22  C   UNL     1       7.127   4.782  14.454  0.00  0.00    +0.000 A 
ATOM     23  C   UNL     1       7.581   5.187  13.211  0.00  0.00    +0.000 A 
ATOM     24  C   UNL     1       7.236   4.366  12.150  0.00  0.00    +0.000 A 
ATOM     25  C   UNL     1       6.137   3.523  12.265  0.00  0.00    +0.000 A 
ATOM     26  C   UNL     1       5.407   3.456  13.469  0.00  0.00    +0.000 A 
ATOM     27  C   UNL     1       6.000   3.999  14.631  0.00  0.00    +0.000 A 
ATOM     28  H   UNL     1       8.554   5.294  15.973  0.00  0.00    +0.000 HD
ENDBRANCH  16  19
ENDBRANCH   1  15
TORSDOF 3
ENDMDL
MODEL 3
REMARK VINA RESULT:      -8.9      2.546      3.990
REMARK  Name = 
REMARK  5 active torsions:
REMARK  status: ('A' for Active; 'I' for Inactive)
REMARK    1  A    between atoms: C_1  and  C_2
REMARK    2  A    between atoms: C_4  and  C_5
REMARK    3  A    between atoms: C_10  and  C_11
REMARK    4  A    between atoms: C_11  and  N_12
REMARK    5  A    between atoms: C_13  and  C_15
REMARK                            x       y       z     vdW  Elec       q    Type
REMARK                         _______ _______ _______ _____ _____    ______ ____
ROOT
ATOM      1  C   UNL     1       2.791   5.187  19.806  0.00  0.00    +0.000 C 
ENDROOT
BRANCH   1  11
ATOM      2  C   UNL     1      -0.218  13.447  18.273  0.00  0.00    +0.000 C 
ATOM      3  C   UNL     1      -0.043  12.340  19.242  0.00  0.00    +0.000 A 
ATOM      4  C   UNL     1      -0.512  12.268  20.565  0.00  0.00    +0.000 A 
ATOM      5  C   UNL     1      -0.083  11.049  21.044  0.00  0.00    +0.000 A 
ATOM      6  C   UNL     1      -0.252  10.466  22.399  0.00  0.00    +0.000 C 
ATOM      7  N   UNL     1       0.576  10.423  19.989  0.00  0.00    +0.000 N 
ATOM      8  C   UNL     1       1.140   9.103  19.947  0.00  0.00    +0.000 A 
ATOM      9  C   UNL     1       1.824   8.700  18.798  0.00  0.00    +0.000 A 
ATOM     10  C   UNL     1       2.366   7.416  18.744  0.00  0.00    +0.000 A 
ATOM     11  C   UNL     1       2.215   6.559  19.825  0.00  0.00    +0.000 A 
ATOM     12  C   UNL     1       1.509   7.033  20.928  0.00  0.00    +0.000 A 
ATOM     13  N   UNL     1       0.981   8.276  21.017  0.00  0.00    +0.000 NA
ATOM     14  N   UNL     1       0.634  11.243  18.897  0.00  0.00    +0.000 NA
ENDBRANCH   1  11
BRANCH   1  15
ATOM     15  N   UNL     1       4.069   5.155  19.085  0.00  0.00    +0.000 N 
ATOM     16  C   UNL     1       4.946   4.087  19.127  0.00  0.00    +0.000 C 
ATOM     17  O   UNL     1       4.846   3.091  19.838  0.00  0.00    +0.000 OA
ATOM     18  H   UNL     1       4.292   5.876  18.426  0.00  0.00    +0.000 HD
BRANCH  16  19
ATOM     19  C   UNL     1       6.006   4.285  18.093  0.00  0.00    +0.000 A 
ATOM     20  N   UNL     1       7.282   4.483  18.513  0.00  0.00    +0.000 NA
ATOM     21  N   UNL     1       7.933   4.748  17.373  0.00  0.00    +0.000 N 
ATOM     22  C   UNL     1       7.130   4.796  16.262  0.00  0.00    +0.000 A 
ATOM     23  C   UNL     1       7.377   5.197  14.961  0.00  0.00    +0.000 A 
ATOM     24  C   UNL     1       6.592   4.597  13.990  0.00  0.00    +0.000 A 
ATOM     25  C   UNL     1       5.365   4.047  14.343  0.00  0.00    +0.000 A 
ATOM     26  C   UNL     1       4.940   4.045  15.687  0.00  0.00    +0.000 A 
ATOM     27  C   UNL     1       5.907   4.306  16.685  0.00  0.00    +0.000 A 
ATOM     28  H   UNL     1       8.951   4.783  17.398  0.00  0.00    +0.000 HD
ENDBRANCH  16  19
ENDBRANCH   1  15
TORSDOF 3
ENDMDL
MODEL 4
REMARK VINA RESULT:      -8.8      1.040      1.045
REMARK  Name = 
REMARK  5 active torsions:
REMARK  status: ('A' for Active; 'I' for Inactive)
REMARK    1  A    between atoms: C_1  and  C_2
REMARK    2  A    between atoms: C_4  and  C_5
REMARK    3  A    between atoms: C_10  and  C_11
REMARK    4  A    between atoms: C_11  and  N_12
REMARK    5  A    between atoms: C_13  and  C_15
REMARK                            x       y       z     vdW  Elec       q    Type
REMARK                         _______ _______ _______ _____ _____    ______ ____
ROOT
ATOM      1  C   UNL     1       2.797   8.480  17.524  0.00  0.00    +0.000 C 
ENDROOT
BRANCH   1  11
ATOM      2  C   UNL     1      -3.115  13.307  22.150  0.00  0.00    +0.000 C 
ATOM      3  C   UNL     1      -2.114  12.214  22.157  0.00  0.00    +0.000 A 
ATOM      4  C   UNL     1      -1.788  11.348  23.215  0.00  0.00    +0.000 A 
ATOM      5  C   UNL     1      -0.798  10.523  22.727  0.00  0.00    +0.000 A 
ATOM      6  C   UNL     1      -0.048   9.449  23.425  0.00  0.00    +0.000 C 
ATOM      7  N   UNL     1      -0.606  10.886  21.397  0.00  0.00    +0.000 N 
ATOM      8  C   UNL     1       0.259  10.281  20.422  0.00  0.00    +0.000 A 
ATOM      9  C   UNL     1       0.349  10.858  19.153  0.00  0.00    +0.000 A 
ATOM     10  C   UNL     1       1.178  10.270  18.197  0.00  0.00    +0.000 A 
ATOM     11  C   UNL     1       1.894   9.125  18.516  0.00  0.00    +0.000 A 
ATOM     12  C   UNL     1       1.739   8.606  19.799  0.00  0.00    +0.000 A 
ATOM     13  N   UNL     1       0.952   9.157  20.753  0.00  0.00    +0.000 NA
ATOM     14  N   UNL     1      -1.388  11.957  21.067  0.00  0.00    +0.000 NA
ENDBRANCH   1  11
BRANCH   1  15
ATOM     15  N   UNL     1       3.021   7.065  17.847  0.00  0.00    +0.000 N 
ATOM     16  C   UNL     1       4.103   6.338  17.390  0.00  0.00    +0.000 C 
ATOM     17  O   UNL     1       4.947   6.718  16.583  0.00  0.00    +0.000 OA
ATOM     18  H   UNL     1       2.444   6.609  18.527  0.00  0.00    +0.000 HD
BRANCH  16  19
ATOM     19  C   UNL     1       4.149   5.028  18.108  0.00  0.00    +0.000 A 
ATOM     20  N   UNL     1       5.320   4.653  18.684  0.00  0.00    +0.000 NA
ATOM     21  N   UNL     1       5.057   3.412  19.113  0.00  0.00    +0.000 N 
ATOM     22  C   UNL     1       3.807   2.954  18.783  0.00  0.00    +0.000 A 
ATOM     23  C   UNL     1       3.225   1.702  18.886  0.00  0.00    +0.000 A 
ATOM     24  C   UNL     1       1.848   1.691  19.027  0.00  0.00    +0.000 A 
ATOM     25  C   UNL     1       1.106   2.786  18.599  0.00  0.00    +0.000 A 
ATOM     26  C   UNL     1       1.747   3.927  18.076  0.00  0.00    +0.000 A 
ATOM     27  C   UNL     1       3.136   4.063  18.299  0.00  0.00    +0.000 A 
ATOM     28  H   UNL     1       5.735   2.961  19.724  0.00  0.00    +0.000 HD
ENDBRANCH  16  19
ENDBRANCH   1  15
TORSDOF 3
ENDMDL
MODEL 5
REMARK VINA RESULT:      -8.6      3.194      4.976
REMARK  Name = 
REMARK  5 active torsions:
REMARK  status: ('A' for Active; 'I' for Inactive)
REMARK    1  A    between atoms: C_1  and  C_2
REMARK    2  A    between atoms: C_4  and  C_5
REMARK    3  A    between atoms: C_10  and  C_11
REMARK    4  A    between atoms: C_11  and  N_12
REMARK    5  A    between atoms: C_13  and  C_15
REMARK                            x       y       z     vdW  Elec       q    Type
REMARK                         _______ _______ _______ _____ _____    ______ ____
ROOT
ATOM      1  C   UNL     1       3.631   4.215  19.187  0.00  0.00    +0.000 C 
ENDROOT
BRANCH   1  11
ATOM      2  C   UNL     1       0.277  12.463  18.584  0.00  0.00    +0.000 C 
ATOM      3  C   UNL     1       0.438  11.235  19.398  0.00  0.00    +0.000 A 
ATOM      4  C   UNL     1      -0.131  10.948  20.650  0.00  0.00    +0.000 A 
ATOM      5  C   UNL     1       0.329   9.693  20.988  0.00  0.00    +0.000 A 
ATOM      6  C   UNL     1       0.086   8.911  22.226  0.00  0.00    +0.000 C 
ATOM      7  N   UNL     1       1.106   9.260  19.917  0.00  0.00    +0.000 N 
ATOM      8  C   UNL     1       1.748   7.988  19.738  0.00  0.00    +0.000 A 
ATOM      9  C   UNL     1       2.545   7.790  18.607  0.00  0.00    +0.000 A 
ATOM     10  C   UNL     1       3.163   6.554  18.420  0.00  0.00    +0.000 A 
ATOM     11  C   UNL     1       2.976   5.541  19.350  0.00  0.00    +0.000 A 
ATOM     12  C   UNL     1       2.157   5.815  20.443  0.00  0.00    +0.000 A 
ATOM     13  N   UNL     1       1.552   7.006  20.661  0.00  0.00    +0.000 NA
ATOM     14  N   UNL     1       1.204  10.233  18.962  0.00  0.00    +0.000 NA
ENDBRANCH   1  11
BRANCH   1  15
ATOM     15  N   UNL     1       4.677   4.259  18.159  0.00  0.00    +0.000 N 
ATOM     16  C   UNL     1       4.458   3.952  16.829  0.00  0.00    +0.000 C 
ATOM     17  O   UNL     1       3.422   3.501  16.348  0.00  0.00    +0.000 OA
ATOM     18  H   UNL     1       5.577   4.643  18.375  0.00  0.00    +0.000 HD
BRANCH  16  19
ATOM     19  C   UNL     1       5.660   4.343  16.034  0.00  0.00    +0.000 A 
ATOM     20  N   UNL     1       6.671   4.986  16.673  0.00  0.00    +0.000 NA
ATOM     21  N   UNL     1       7.506   5.298  15.673  0.00  0.00    +0.000 N 
ATOM     22  C   UNL     1       7.050   4.948  14.428  0.00  0.00    +0.000 A 
ATOM     23  C   UNL     1       7.518   5.238  13.158  0.00  0.00    +0.000 A 
ATOM     24  C   UNL     1       7.220   4.303  12.181  0.00  0.00    +0.000 A 
ATOM     25  C   UNL     1       6.144   3.442  12.361  0.00  0.00    +0.000 A 
ATOM     26  C   UNL     1       5.390   3.476  13.552  0.00  0.00    +0.000 A 
ATOM     27  C   UNL     1       5.943   4.153  14.664  0.00  0.00    +0.000 A 
ATOM     28  H   UNL     1       8.429   5.656  15.912  0.00  0.00    +0.000 HD
ENDBRANCH  16  19
ENDBRANCH   1  15
TORSDOF 3
ENDMDL
MODEL 6
REMARK VINA RESULT:      -8.5      2.745      8.509
REMARK  Name = 
REMARK  5 active torsions:
REMARK  status: ('A' for Active; 'I' for Inactive)
REMARK    1  A    between atoms: C_1  and  C_2
REMARK    2  A    between atoms: C_4  and  C_5
REMARK    3  A    between atoms: C_10  and  C_11
REMARK    4  A    between atoms: C_11  and  N_12
REMARK    5  A    between atoms: C_13  and  C_15
REMARK                            x       y       z     vdW  Elec       q    Type
REMARK                         _______ _______ _______ _____ _____    ______ ____
ROOT
ATOM      1  C   UNL     1       0.603   8.606  21.675  0.00  0.00    +0.000 C 
ENDROOT
BRANCH   1  11
ATOM      2  C   UNL     1       5.661   5.367  15.075  0.00  0.00    +0.000 C 
ATOM      3  C   UNL     1       4.860   5.086  16.290  0.00  0.00    +0.000 A 
ATOM      4  C   UNL     1       4.697   3.857  16.952  0.00  0.00    +0.000 A 
ATOM      5  C   UNL     1       3.856   4.116  18.013  0.00  0.00    +0.000 A 
ATOM      6  C   UNL     1       3.306   3.175  19.020  0.00  0.00    +0.000 C 
ATOM      7  N   UNL     1       3.590   5.482  17.977  0.00  0.00    +0.000 N 
ATOM      8  C   UNL     1       2.830   6.268  18.908  0.00  0.00    +0.000 A 
ATOM      9  C   UNL     1       2.629   7.624  18.638  0.00  0.00    +0.000 A 
ATOM     10  C   UNL     1       1.902   8.396  19.543  0.00  0.00    +0.000 A 
ATOM     11  C   UNL     1       1.394   7.813  20.695  0.00  0.00    +0.000 A 
ATOM     12  C   UNL     1       1.648   6.459  20.896  0.00  0.00    +0.000 A 
ATOM     13  N   UNL     1       2.340   5.678  20.034  0.00  0.00    +0.000 NA
ATOM     14  N   UNL     1       4.176   6.064  16.888  0.00  0.00    +0.000 NA
ENDBRANCH   1  11
BRANCH   1  15
ATOM     15  N   UNL     1      -0.338   9.506  20.998  0.00  0.00    +0.000 N 
ATOM     16  C   UNL     1      -0.145  10.870  20.883  0.00  0.00    +0.000 C 
ATOM     17  O   UNL     1       0.750  11.525  21.410  0.00  0.00    +0.000 OA
ATOM     18  H   UNL     1      -1.108   9.130  20.479  0.00  0.00    +0.000 HD
BRANCH  16  19
ATOM     19  C   UNL     1      -1.151  11.427  19.930  0.00  0.00    +0.000 A 
ATOM     20  N   UNL     1      -1.749  12.605  20.245  0.00  0.00    +0.000 NA
ATOM     21  N   UNL     1      -2.662  12.744  19.274  0.00  0.00    +0.000 N 
ATOM     22  C   UNL     1      -2.722  11.689  18.400  0.00  0.00    +0.000 A 
ATOM     23  C   UNL     1      -3.617  11.375  17.393  0.00  0.00    +0.000 A 
ATOM     24  C   UNL     1      -3.107  10.615  16.353  0.00  0.00    +0.000 A 
ATOM     25  C   UNL     1      -1.974   9.838  16.564  0.00  0.00    +0.000 A 
ATOM     26  C   UNL     1      -1.309   9.861  17.807  0.00  0.00    +0.000 A 
ATOM     27  C   UNL     1      -1.615  10.915  18.699  0.00  0.00    +0.000 A 
ATOM     28  H   UNL     1      -3.145  13.637  19.195  0.00  0.00    +0.000 HD
ENDBRANCH  16  19
ENDBRANCH   1  15
TORSDOF 3
ENDMDL
MODEL 7
REMARK VINA RESULT:      -8.4      2.570      4.278
REMARK  Name = 
REMARK  5 active torsions:
REMARK  status: ('A' for Active; 'I' for Inactive)
REMARK    1  A    between atoms: C_1  and  C_2
REMARK    2  A    between atoms: C_4  and  C_5
REMARK    3  A    between atoms: C_10  and  C_11
REMARK    4  A    between atoms: C_11  and  N_12
REMARK    5  A    between atoms: C_13  and  C_15
REMARK                            x       y       z     vdW  Elec       q    Type
REMARK                         _______ _______ _______ _____ _____    ______ ____
ROOT
ATOM      1  C   UNL     1       2.757   4.802  19.370  0.00  0.00    +0.000 C 
ENDROOT
BRANCH   1  11
ATOM      2  C   UNL     1      -0.880  12.224  22.736  0.00  0.00    +0.000 C 
ATOM      3  C   UNL     1      -0.160  11.584  21.609  0.00  0.00    +0.000 A 
ATOM      4  C   UNL     1       0.343  12.194  20.448  0.00  0.00    +0.000 A 
ATOM      5  C   UNL     1       0.913  11.177  19.713  0.00  0.00    +0.000 A 
ATOM      6  C   UNL     1       1.554  11.237  18.375  0.00  0.00    +0.000 C 
ATOM      7  N   UNL     1       0.775  10.019  20.473  0.00  0.00    +0.000 N 
ATOM      8  C   UNL     1       1.271   8.701  20.189  0.00  0.00    +0.000 A 
ATOM      9  C   UNL     1       0.953   7.660  21.065  0.00  0.00    +0.000 A 
ATOM     10  C   UNL     1       1.440   6.380  20.804  0.00  0.00    +0.000 A 
ATOM     11  C   UNL     1       2.232   6.159  19.686  0.00  0.00    +0.000 A 
ATOM     12  C   UNL     1       2.513   7.252  18.870  0.00  0.00    +0.000 A 
ATOM     13  N   UNL     1       2.047   8.504  19.089  0.00  0.00    +0.000 NA
ATOM     14  N   UNL     1       0.074  10.270  21.619  0.00  0.00    +0.000 NA
ENDBRANCH   1  11
BRANCH   1  15
ATOM     15  N   UNL     1       4.035   4.878  18.652  0.00  0.00    +0.000 N 
ATOM     16  C   UNL     1       5.101   4.032  18.894  0.00  0.00    +0.000 C 
ATOM     17  O   UNL     1       5.178   3.197  19.791  0.00  0.00    +0.000 OA
ATOM     18  H   UNL     1       4.130   5.484  17.859  0.00  0.00    +0.000 HD
BRANCH  16  19
ATOM     19  C   UNL     1       6.128   4.224  17.826  0.00  0.00    +0.000 A 
ATOM     20  N   UNL     1       7.419   4.407  18.204  0.00  0.00    +0.000 NA
ATOM     21  N   UNL     1       8.035   4.671  17.044  0.00  0.00    +0.000 N 
ATOM     22  C   UNL     1       7.196   4.733  15.961  0.00  0.00    +0.000 A 
ATOM     23  C   UNL     1       7.403   5.137  14.654  0.00  0.00    +0.000 A 
ATOM     24  C   UNL     1       6.580   4.550  13.707  0.00  0.00    +0.000 A 
ATOM     25  C   UNL     1       5.360   4.012  14.099  0.00  0.00    +0.000 A 
ATOM     26  C   UNL     1       4.980   4.008  15.456  0.00  0.00    +0.000 A 
ATOM     27  C   UNL     1       5.983   4.253  16.422  0.00  0.00    +0.000 A 
ATOM     28  H   UNL     1       9.053   4.695  17.035  0.00  0.00    +0.000 HD
ENDBRANCH  16  19
ENDBRANCH   1  15
TORSDOF 3
ENDMDL
MODEL 8
REMARK VINA RESULT:      -8.4      3.588      9.161
REMARK  Name = 
REMARK  5 active torsions:
REMARK  status: ('A' for Active; 'I' for Inactive)
REMARK    1  A    between atoms: C_1  and  C_2
REMARK    2  A    between atoms: C_4  and  C_5
REMARK    3  A    between atoms: C_10  and  C_11
REMARK    4  A    between atoms: C_11  and  N_12
REMARK    5  A    between atoms: C_13  and  C_15
REMARK                            x       y       z     vdW  Elec       q    Type
REMARK                         _______ _______ _______ _____ _____    ______ ____
ROOT
ATOM      1  C   UNL     1       0.474  10.981  19.477  0.00  0.00    +0.000 C 
ENDROOT
BRANCH   1  11
ATOM      2  C   UNL     1       5.231   3.999  16.601  0.00  0.00    +0.000 C 
ATOM      3  C   UNL     1       4.361   4.570  17.656  0.00  0.00    +0.000 A 
ATOM      4  C   UNL     1       4.006   3.995  18.888  0.00  0.00    +0.000 A 
ATOM      5  C   UNL     1       3.177   4.910  19.500  0.00  0.00    +0.000 A 
ATOM      6  C   UNL     1       2.469   4.807  20.800  0.00  0.00    +0.000 C 
ATOM      7  N   UNL     1       3.107   6.007  18.645  0.00  0.00    +0.000 N 
ATOM      8  C   UNL     1       2.436   7.260  18.855  0.00  0.00    +0.000 A 
ATOM      9  C   UNL     1       2.437   8.204  17.824  0.00  0.00    +0.000 A 
ATOM     10  C   UNL     1       1.797   9.427  18.023  0.00  0.00    +0.000 A 
ATOM     11  C   UNL     1       1.176   9.691  19.236  0.00  0.00    +0.000 A 
ATOM     12  C   UNL     1       1.231   8.702  20.215  0.00  0.00    +0.000 A 
ATOM     13  N   UNL     1       1.833   7.501  20.051  0.00  0.00    +0.000 NA
ATOM     14  N   UNL     1       3.804   5.772  17.493  0.00  0.00    +0.000 NA
ENDBRANCH   1  11
BRANCH   1  15
ATOM     15  N   UNL     1      -0.871  10.974  18.890  0.00  0.00    +0.000 N 
ATOM     16  C   UNL     1      -1.924  11.723  19.380  0.00  0.00    +0.000 C 
ATOM     17  O   UNL     1      -1.925  12.393  20.409  0.00  0.00    +0.000 OA
ATOM     18  H   UNL     1      -1.036  10.506  18.020  0.00  0.00    +0.000 HD
BRANCH  16  19
ATOM     19  C   UNL     1      -3.055  11.670  18.405  0.00  0.00    +0.000 A 
ATOM     20  N   UNL     1      -2.769  11.398  17.106  0.00  0.00    +0.000 NA
ATOM     21  N   UNL     1      -3.955  11.552  16.501  0.00  0.00    +0.000 N 
ATOM     22  C   UNL     1      -4.961  11.973  17.332  0.00  0.00    +0.000 A 
ATOM     23  C   UNL     1      -6.251  12.403  17.075  0.00  0.00    +0.000 A 
ATOM     24  C   UNL     1      -7.167  12.195  18.093  0.00  0.00    +0.000 A 
ATOM     25  C   UNL     1      -6.716  12.041  19.399  0.00  0.00    +0.000 A 
ATOM     26  C   UNL     1      -5.336  12.039  19.687  0.00  0.00    +0.000 A 
ATOM     27  C   UNL     1      -4.438  11.866  18.608  0.00  0.00    +0.000 A 
ATOM     28  H   UNL     1      -4.042  11.251  15.532  0.00  0.00    +0.000 HD
ENDBRANCH  16  19
ENDBRANCH   1  15
TORSDOF 3
ENDMDL
MODEL 9
REMARK VINA RESULT:      -8.4      1.073      1.851
REMARK  Name = 
REMARK  5 active torsions:
REMARK  status: ('A' for Active; 'I' for Inactive)
REMARK    1  A    between atoms: C_1  and  C_2
REMARK    2  A    between atoms: C_4  and  C_5
REMARK    3  A    between atoms: C_10  and  C_11
REMARK    4  A    between atoms: C_11  and  N_12
REMARK    5  A    between atoms: C_13  and  C_15
REMARK                            x       y       z     vdW  Elec       q    Type
REMARK                         _______ _______ _______ _____ _____    ______ ____
ROOT
ATOM      1  C   UNL     1       3.337   7.926  17.432  0.00  0.00    +0.000 C 
ENDROOT
BRANCH   1  11
ATOM      2  C   UNL     1      -2.147  11.716  23.365  0.00  0.00    +0.000 C 
ATOM      3  C   UNL     1      -1.517  11.781  22.026  0.00  0.00    +0.000 A 
ATOM      4  C   UNL     1      -1.604  12.816  21.079  0.00  0.00    +0.000 A 
ATOM      5  C   UNL     1      -0.855  12.396  20.001  0.00  0.00    +0.000 A 
ATOM      6  C   UNL     1      -0.635  13.071  18.697  0.00  0.00    +0.000 C 
ATOM      7  N   UNL     1      -0.314  11.164  20.356  0.00  0.00    +0.000 N 
ATOM      8  C   UNL     1       0.603  10.345  19.613  0.00  0.00    +0.000 A 
ATOM      9  C   UNL     1       0.965   9.099  20.133  0.00  0.00    +0.000 A 
ATOM     10  C   UNL     1       1.863   8.303  19.424  0.00  0.00    +0.000 A 
ATOM     11  C   UNL     1       2.386   8.756  18.220  0.00  0.00    +0.000 A 
ATOM     12  C   UNL     1       1.983  10.013  17.778  0.00  0.00    +0.000 A 
ATOM     13  N   UNL     1       1.106  10.807  18.435  0.00  0.00    +0.000 NA
ATOM     14  N   UNL     1      -0.762  10.772  21.587  0.00  0.00    +0.000 NA
ENDBRANCH   1  11
BRANCH   1  15
ATOM     15  N   UNL     1       3.448   6.571  17.985  0.00  0.00    +0.000 N 
ATOM     16  C   UNL     1       4.648   5.906  18.148  0.00  0.00    +0.000 C 
ATOM     17  O   UNL     1       5.750   6.288  17.762  0.00  0.00    +0.000 OA
ATOM     18  H   UNL     1       2.645   6.125  18.386  0.00  0.00    +0.000 HD
BRANCH  16  19
ATOM     19  C   UNL     1       4.417   4.673  18.960  0.00  0.00    +0.000 A 
ATOM     20  N   UNL     1       5.450   3.806  19.116  0.00  0.00    +0.000 NA
ATOM     21  N   UNL     1       4.882   2.780  19.764  0.00  0.00    +0.000 N 
ATOM     22  C   UNL     1       3.533   2.919  19.968  0.00  0.00    +0.000 A 
ATOM     23  C   UNL     1       2.573   2.036  20.431  0.00  0.00    +0.000 A 
ATOM     24  C   UNL     1       1.483   2.612  21.061  0.00  0.00    +0.000 A 
ATOM     25  C   UNL     1       1.159   3.937  20.796  0.00  0.00    +0.000 A 
ATOM     26  C   UNL     1       1.962   4.714  19.937  0.00  0.00    +0.000 A 
ATOM     27  C   UNL     1       3.253   4.230  19.624  0.00  0.00    +0.000 A 
ATOM     28  H   UNL     1       5.489   2.054  20.141  0.00  0.00    +0.000 HD
ENDBRANCH  16  19
ENDBRANCH   1  15
TORSDOF 3
ENDMDL
