MODEL 1
REMARK VINA RESULT:      -8.4      0.000      0.000
REMARK  Name = 
REMARK  5 active torsions:
REMARK  status: ('A' for Active; 'I' for Inactive)
REMARK    1  A    between atoms: C_1  and  C_2
REMARK    2  A    between atoms: C_5  and  S_6
REMARK    3  A    between atoms: S_6  and  N_9
REMARK    4  A    between atoms: C_16  and  C_17
REMARK    5  A    between atoms: N_19  and  C_20
REMARK                            x       y       z     vdW  Elec       q    Type
REMARK                         _______ _______ _______ _____ _____    ______ ____
ROOT
ATOM      1  C   UNL     1       1.022   3.134  19.293  0.00  0.00    +0.000 C 
ATOM      2  C   UNL     1       2.151   3.815  18.573  0.00  0.00    +0.000 A 
ATOM      3  C   UNL     1       2.788   3.102  17.535  0.00  0.00    +0.000 A 
ATOM      4  C   UNL     1       3.797   3.683  16.765  0.00  0.00    +0.000 A 
ATOM      5  C   UNL     1       4.182   4.995  17.021  0.00  0.00    +0.000 A 
ATOM      6  C   UNL     1       3.604   5.706  18.075  0.00  0.00    +0.000 A 
ATOM      7  C   UNL     1       2.586   5.128  18.858  0.00  0.00    +0.000 A 
ENDROOT
BRANCH   7   8
ATOM      8  C   UNL     1       1.996   6.032  19.896  0.00  0.00    +0.000 C 
ATOM      9  O   UNL     1       1.574   5.493  20.913  0.00  0.00    +0.000 OA
ATOM     10  N   UNL     1       1.908   7.376  19.578  0.00  0.00    +0.000 N 
ATOM     11  H   UNL     1       2.161   7.627  18.637  0.00  0.00    +0.000 HD
BRANCH  10  12
ATOM     12  C   UNL     1       1.341   8.413  20.381  0.00  0.00    +0.000 A 
ATOM     13  C   UNL     1       1.586   8.481  21.758  0.00  0.00    +0.000 A 
ATOM     14  C   UNL     1       0.993   9.465  22.544  0.00  0.00    +0.000 A 
ATOM     15  C   UNL     1       0.154  10.403  21.957  0.00  0.00    +0.000 A 
ATOM     16  C   UNL     1      -0.104  10.396  20.599  0.00  0.00    +0.000 A 
ATOM     17  N   UNL     1      -0.929  11.348  20.132  0.00  0.00    +0.000 NA
ATOM     18  C   UNL     1      -1.206  11.368  18.815  0.00  0.00    +0.000 A 
ATOM     19  C   UNL     1      -0.679  10.468  17.916  0.00  0.00    +0.000 A 
ATOM     20  C   UNL     1       0.177   9.482  18.403  0.00  0.00    +0.000 A 
ATOM     21  C   UNL     1       0.496   9.403  19.780  0.00  0.00    +0.000 A 
ENDBRANCH  10  12
ENDBRANCH   7   8
BRANCH   5  22
ATOM     22  S   UNL     1       5.491   5.736  16.075  0.00  0.00    +0.000 S 
ATOM     23  O   UNL     1       6.099   4.688  15.284  0.00  0.00    +0.000 OA
ATOM     24  O   UNL     1       4.947   6.920  15.443  0.00  0.00    +0.000 OA
BRANCH  22  25
ATOM     25  N   UNL     1       6.603   6.230  17.235  0.00  0.00    +0.000 NA
ATOM     26  C   UNL     1       7.291   5.208  18.062  0.00  0.00    +0.000 C 
ATOM     27  C   UNL     1       7.781   5.886  19.351  0.00  0.00    +0.000 C 
ATOM     28  O   UNL     1       8.661   6.986  19.058  0.00  0.00    +0.000 OA
ATOM     29  C   UNL     1       7.994   7.970  18.247  0.00  0.00    +0.000 C 
ATOM     30  C   UNL     1       7.517   7.360  16.921  0.00  0.00    +0.000 C 
ENDBRANCH  22  25
ENDBRANCH   5  22
TORSDOF 4
ENDMDL
MODEL 2
REMARK VINA RESULT:      -8.4      3.881      8.716
REMARK  Name = 
REMARK  5 active torsions:
REMARK  status: ('A' for Active; 'I' for Inactive)
REMARK    1  A    between atoms: C_1  and  C_2
REMARK    2  A    between atoms: C_5  and  S_6
REMARK    3  A    between atoms: S_6  and  N_9
REMARK    4  A    between atoms: C_16  and  C_17
REMARK    5  A    between atoms: N_19  and  C_20
REMARK                            x       y       z     vdW  Elec       q    Type
REMARK                         _______ _______ _______ _____ _____    ______ ____
ROOT
ATOM      1  C   UNL     1       1.457   7.870  21.411  0.00  0.00    +0.000 C 
ATOM      2  C   UNL     1       0.781   9.016  20.712  0.00  0.00    +0.000 A 
ATOM      3  C   UNL     1      -0.098   9.816  21.472  0.00  0.00    +0.000 A 
ATOM      4  C   UNL     1      -0.713  10.944  20.926  0.00  0.00    +0.000 A 
ATOM      5  C   UNL     1      -0.453  11.290  19.603  0.00  0.00    +0.000 A 
ATOM      6  C   UNL     1       0.372  10.487  18.814  0.00  0.00    +0.000 A 
ATOM      7  C   UNL     1       0.997   9.347  19.357  0.00  0.00    +0.000 A 
ENDROOT
BRANCH   7   8
ATOM      8  C   UNL     1       1.922   8.629  18.425  0.00  0.00    +0.000 C 
ATOM      9  O   UNL     1       2.174   9.190  17.364  0.00  0.00    +0.000 OA
ATOM     10  N   UNL     1       2.342   7.366  18.808  0.00  0.00    +0.000 N 
ATOM     11  H   UNL     1       1.917   6.990  19.639  0.00  0.00    +0.000 HD
BRANCH  10  12
ATOM     12  C   UNL     1       3.178   6.477  18.066  0.00  0.00    +0.000 A 
ATOM     13  C   UNL     1       4.289   6.949  17.355  0.00  0.00    +0.000 A 
ATOM     14  C   UNL     1       5.072   6.086  16.594  0.00  0.00    +0.000 A 
ATOM     15  C   UNL     1       4.760   4.733  16.546  0.00  0.00    +0.000 A 
ATOM     16  C   UNL     1       3.689   4.211  17.247  0.00  0.00    +0.000 A 
ATOM     17  N   UNL     1       3.474   2.889  17.132  0.00  0.00    +0.000 NA
ATOM     18  C   UNL     1       2.437   2.347  17.798  0.00  0.00    +0.000 A 
ATOM     19  C   UNL     1       1.588   3.076  18.600  0.00  0.00    +0.000 A 
ATOM     20  C   UNL     1       1.814   4.446  18.717  0.00  0.00    +0.000 A 
ATOM     21  C   UNL     1       2.881   5.075  18.032  0.00  0.00    +0.000 A 
ENDBRANCH  10  12
ENDBRANCH   7   8
BRANCH   5  22
ATOM     22  S   UNL     1      -1.257  12.701  18.881  0.00  0.00    +0.000 S 
ATOM     23  O   UNL     1      -1.883  13.439  19.958  0.00  0.00    +0.000 OA
ATOM     24  O   UNL     1      -0.300  13.339  18.004  0.00  0.00    +0.000 OA
BRANCH  22  25
ATOM     25  N   UNL     1      -2.472  12.033  17.930  0.00  0.00    +0.000 NA
ATOM     26  C   UNL     1      -2.116  11.033  16.893  0.00  0.00    +0.000 C 
ATOM     27  C   UNL     1      -3.237  11.013  15.842  0.00  0.00    +0.000 C 
ATOM     28  O   UNL     1      -4.506  10.701  16.441  0.00  0.00    +0.000 OA
ATOM     29  C   UNL     1      -4.844  11.666  17.453  0.00  0.00    +0.000 C 
ATOM     30  C   UNL     1      -3.779  11.702  18.559  0.00  0.00    +0.000 C 
ENDBRANCH  22  25
ENDBRANCH   5  22
TORSDOF 4
ENDMDL
MODEL 3
REMARK VINA RESULT:      -8.3      2.005      3.435
REMARK  Name = 
REMARK  5 active torsions:
REMARK  status: ('A' for Active; 'I' for Inactive)
REMARK    1  A    between atoms: C_1  and  C_2
REMARK    2  A    between atoms: C_5  and  S_6
REMARK    3  A    between atoms: S_6  and  N_9
REMARK    4  A    between atoms: C_16  and  C_17
REMARK    5  A    between atoms: N_19  and  C_20
REMARK                            x       y       z     vdW  Elec       q    Type
REMARK                         _______ _______ _______ _____ _____    ______ ____
ROOT
ATOM      1  C   UNL     1       1.537   4.682  20.295  0.00  0.00    +0.000 C 
ATOM      2  C   UNL     1       2.871   4.942  19.652  0.00  0.00    +0.000 A 
ATOM      3  C   UNL     1       3.855   3.936  19.759  0.00  0.00    +0.000 A 
ATOM      4  C   UNL     1       5.094   4.060  19.131  0.00  0.00    +0.000 A 
ATOM      5  C   UNL     1       5.368   5.199  18.380  0.00  0.00    +0.000 A 
ATOM      6  C   UNL     1       4.432   6.232  18.300  0.00  0.00    +0.000 A 
ATOM      7  C   UNL     1       3.178   6.115  18.930  0.00  0.00    +0.000 A 
ENDROOT
BRANCH   7   8
ATOM      8  C   UNL     1       2.241   7.258  18.689  0.00  0.00    +0.000 C 
ATOM      9  O   UNL     1       1.834   7.398  17.541  0.00  0.00    +0.000 OA
ATOM     10  N   UNL     1       1.986   8.095  19.762  0.00  0.00    +0.000 N 
ATOM     11  H   UNL     1       2.524   7.926  20.595  0.00  0.00    +0.000 HD
BRANCH  10  12
ATOM     12  C   UNL     1       1.171   9.269  19.760  0.00  0.00    +0.000 A 
ATOM     13  C   UNL     1       1.049  10.066  18.615  0.00  0.00    +0.000 A 
ATOM     14  C   UNL     1       0.293  11.235  18.633  0.00  0.00    +0.000 A 
ATOM     15  C   UNL     1      -0.362  11.614  19.798  0.00  0.00    +0.000 A 
ATOM     16  C   UNL     1      -0.294  10.852  20.949  0.00  0.00    +0.000 A 
ATOM     17  N   UNL     1      -0.965  11.308  22.020  0.00  0.00    +0.000 NA
ATOM     18  C   UNL     1      -0.917  10.594  23.160  0.00  0.00    +0.000 A 
ATOM     19  C   UNL     1      -0.222   9.411  23.284  0.00  0.00    +0.000 A 
ATOM     20  C   UNL     1       0.472   8.941  22.171  0.00  0.00    +0.000 A 
ATOM     21  C   UNL     1       0.469   9.654  20.949  0.00  0.00    +0.000 A 
ENDBRANCH  10  12
ENDBRANCH   7   8
BRANCH   5  22
ATOM     22  S   UNL     1       6.957   5.390  17.606  0.00  0.00    +0.000 S 
ATOM     23  O   UNL     1       7.279   6.801  17.625  0.00  0.00    +0.000 OA
ATOM     24  O   UNL     1       7.846   4.418  18.205  0.00  0.00    +0.000 OA
BRANCH  22  25
ATOM     25  N   UNL     1       6.688   4.936  16.009  0.00  0.00    +0.000 NA
ATOM     26  C   UNL     1       7.813   4.981  15.042  0.00  0.00    +0.000 C 
ATOM     27  C   UNL     1       7.224   5.077  13.626  0.00  0.00    +0.000 C 
ATOM     28  O   UNL     1       6.354   3.966  13.349  0.00  0.00    +0.000 OA
ATOM     29  C   UNL     1       5.270   3.919  14.295  0.00  0.00    +0.000 C 
ATOM     30  C   UNL     1       5.796   3.780  15.731  0.00  0.00    +0.000 C 
ENDBRANCH  22  25
ENDBRANCH   5  22
TORSDOF 4
ENDMDL
MODEL 4
REMARK VINA RESULT:      -8.2      4.228      7.763
REMARK  Name = 
REMARK  5 active torsions:
REMARK  status: ('A' for Active; 'I' for Inactive)
REMARK    1  A    between atoms: C_1  and  C_2
REMARK    2  A    between atoms: C_5  and  S_6
REMARK    3  A    between atoms: S_6  and  N_9
REMARK    4  A    between atoms: C_16  and  C_17
REMARK    5  A    between atoms: N_19  and  C_20
REMARK                            x       y       z     vdW  Elec       q    Type
REMARK                         _______ _______ _______ _____ _____    ______ ____
ROOT
ATOM      1  C   UNL     1       0.943   7.625  21.286  0.00  0.00    +0.000 C 
ATOM      2  C   UNL     1       0.768   9.019  20.750  0.00  0.00    +0.000 A 
ATOM      3  C   UNL     1       0.144   9.967  21.589  0.00  0.00    +0.000 A 
ATOM      4  C   UNL     1       0.006  11.301  21.203  0.00  0.00    +0.000 A 
ATOM      5  C   UNL     1       0.495  11.708  19.966  0.00  0.00    +0.000 A 
ATOM      6  C   UNL     1       1.070  10.780  19.096  0.00  0.00    +0.000 A 
ATOM      7  C   UNL     1       1.214   9.432  19.476  0.00  0.00    +0.000 A 
ENDROOT
BRANCH   7   8
ATOM      8  C   UNL     1       1.926   8.567  18.483  0.00  0.00    +0.000 C 
ATOM      9  O   UNL     1       1.875   8.925  17.311  0.00  0.00    +0.000 OA
ATOM     10  N   UNL     1       2.504   7.405  18.965  0.00  0.00    +0.000 N 
ATOM     11  H   UNL     1       2.319   7.184  19.929  0.00  0.00    +0.000 HD
BRANCH  10  12
ATOM     12  C   UNL     1       3.187   6.406  18.205  0.00  0.00    +0.000 A 
ATOM     13  C   UNL     1       4.287   6.731  17.401  0.00  0.00    +0.000 A 
ATOM     14  C   UNL     1       4.918   5.763  16.626  0.00  0.00    +0.000 A 
ATOM     15  C   UNL     1       4.462   4.452  16.654  0.00  0.00    +0.000 A 
ATOM     16  C   UNL     1       3.395   4.072  17.447  0.00  0.00    +0.000 A 
ATOM     17  N   UNL     1       3.035   2.778  17.401  0.00  0.00    +0.000 NA
ATOM     18  C   UNL     1       1.997   2.374  18.157  0.00  0.00    +0.000 A 
ATOM     19  C   UNL     1       1.289   3.217  18.984  0.00  0.00    +0.000 A 
ATOM     20  C   UNL     1       1.666   4.558  19.029  0.00  0.00    +0.000 A 
ATOM     21  C   UNL     1       2.741   5.044  18.249  0.00  0.00    +0.000 A 
ENDBRANCH  10  12
ENDBRANCH   7   8
BRANCH   5  22
ATOM     22  S   UNL     1       0.293  13.395  19.444  0.00  0.00    +0.000 S 
ATOM     23  O   UNL     1      -0.242  13.369  18.100  0.00  0.00    +0.000 OA
ATOM     24  O   UNL     1      -0.402  14.093  20.505  0.00  0.00    +0.000 OA
BRANCH  22  25
ATOM     25  N   UNL     1       1.863  13.989  19.371  0.00  0.00    +0.000 NA
ATOM     26  C   UNL     1       2.775  13.775  20.522  0.00  0.00    +0.000 C 
ATOM     27  C   UNL     1       3.881  14.840  20.462  0.00  0.00    +0.000 C 
ATOM     28  O   UNL     1       4.600  14.773  19.218  0.00  0.00    +0.000 OA
ATOM     29  C   UNL     1       3.712  14.971  18.104  0.00  0.00    +0.000 C 
ATOM     30  C   UNL     1       2.605  13.906  18.085  0.00  0.00    +0.000 C 
ENDBRANCH  22  25
ENDBRANCH   5  22
TORSDOF 4
ENDMDL
MODEL 5
REMARK VINA RESULT:      -8.1      4.273      8.078
REMARK  Name = 
REMARK  5 active torsions:
REMARK  status: ('A' for Active; 'I' for Inactive)
REMARK    1  A    between atoms: C_1  and  C_2
REMARK    2  A    between atoms: C_5  and  S_6
REMARK    3  A    between atoms: S_6  and  N_9
REMARK    4  A    between atoms: C_16  and  C_17
REMARK    5  A    between atoms: N_19  and  C_20
REMARK                            x       y       z     vdW  Elec       q    Type
REMARK                         _______ _______ _______ _____ _____    ______ ____
ROOT
ATOM      1  C   UNL     1       1.109   7.759  21.274  0.00  0.00    +0.000 C 
ATOM      2  C   UNL     1       0.743   9.093  20.687  0.00  0.00    +0.000 A 
ATOM      3  C   UNL     1       0.006   9.983  21.498  0.00  0.00    +0.000 A 
ATOM      4  C   UNL     1      -0.314  11.269  21.062  0.00  0.00    +0.000 A 
ATOM      5  C   UNL     1       0.103  11.688  19.802  0.00  0.00    +0.000 A 
ATOM      6  C   UNL     1       0.788  10.810  18.960  0.00  0.00    +0.000 A 
ATOM      7  C   UNL     1       1.116   9.510  19.391  0.00  0.00    +0.000 A 
ENDROOT
BRANCH   7   8
ATOM      8  C   UNL     1       1.927   8.708  18.421  0.00  0.00    +0.000 C 
ATOM      9  O   UNL     1       2.008   9.149  17.280  0.00  0.00    +0.000 OA
ATOM     10  N   UNL     1       2.441   7.506  18.878  0.00  0.00    +0.000 N 
ATOM     11  H   UNL     1       2.149   7.219  19.798  0.00  0.00    +0.000 HD
BRANCH  10  12
ATOM     12  C   UNL     1       3.197   6.554  18.127  0.00  0.00    +0.000 A 
ATOM     13  C   UNL     1       4.305   6.945  17.365  0.00  0.00    +0.000 A 
ATOM     14  C   UNL     1       5.009   6.022  16.597  0.00  0.00    +0.000 A 
ATOM     15  C   UNL     1       4.617   4.690  16.591  0.00  0.00    +0.000 A 
ATOM     16  C   UNL     1       3.545   4.246  17.342  0.00  0.00    +0.000 A 
ATOM     17  N   UNL     1       3.250   2.937  17.265  0.00  0.00    +0.000 NA
ATOM     18  C   UNL     1       2.209   2.470  17.980  0.00  0.00    +0.000 A 
ATOM     19  C   UNL     1       1.433   3.264  18.795  0.00  0.00    +0.000 A 
ATOM     20  C   UNL     1       1.742   4.621  18.872  0.00  0.00    +0.000 A 
ATOM     21  C   UNL     1       2.818   5.172  18.136  0.00  0.00    +0.000 A 
ENDBRANCH  10  12
ENDBRANCH   7   8
BRANCH   5  22
ATOM     22  S   UNL     1      -0.330  13.309  19.217  0.00  0.00    +0.000 S 
ATOM     23  O   UNL     1      -0.716  13.178  17.829  0.00  0.00    +0.000 OA
ATOM     24  O   UNL     1      -1.235  13.888  20.187  0.00  0.00    +0.000 OA
BRANCH  22  25
ATOM     25  N   UNL     1       1.117  14.163  19.280  0.00  0.00    +0.000 NA
ATOM     26  C   UNL     1       1.148  15.574  18.820  0.00  0.00    +0.000 C 
ATOM     27  C   UNL     1       2.598  15.926  18.452  0.00  0.00    +0.000 C 
ATOM     28  O   UNL     1       3.480  15.732  19.571  0.00  0.00    +0.000 OA
ATOM     29  C   UNL     1       3.439  14.366  20.022  0.00  0.00    +0.000 C 
ATOM     30  C   UNL     1       2.019  13.967  20.446  0.00  0.00    +0.000 C 
ENDBRANCH  22  25
ENDBRANCH   5  22
TORSDOF 4
ENDMDL
MODEL 6
REMARK VINA RESULT:      -8.1      4.269      9.265
REMARK  Name = 
REMARK  5 active torsions:
REMARK  status: ('A' for Active; 'I' for Inactive)
REMARK    1  A    between atoms: C_1  and  C_2
REMARK    2  A    between atoms: C_5  and  S_6
REMARK    3  A    between atoms: S_6  and  N_9
REMARK    4  A    between atoms: C_16  and  C_17
REMARK    5  A    between atoms: N_19  and  C_20
REMARK                            x       y       z     vdW  Elec       q    Type
REMARK                         _______ _______ _______ _____ _____    ______ ____
ROOT
ATOM      1  C   UNL     1      -1.370   9.656  16.813  0.00  0.00    +0.000 C 
ATOM      2  C   UNL     1      -1.105  10.332  18.129  0.00  0.00    +0.000 A 
ATOM      3  C   UNL     1      -2.157  11.078  18.702  0.00  0.00    +0.000 A 
ATOM      4  C   UNL     1      -2.025  11.678  19.955  0.00  0.00    +0.000 A 
ATOM      5  C   UNL     1      -0.832  11.537  20.658  0.00  0.00    +0.000 A 
ATOM      6  C   UNL     1       0.241  10.848  20.092  0.00  0.00    +0.000 A 
ATOM      7  C   UNL     1       0.118  10.239  18.827  0.00  0.00    +0.000 A 
ENDROOT
BRANCH   7   8
ATOM      8  C   UNL     1       1.316   9.461  18.381  0.00  0.00    +0.000 C 
ATOM      9  O   UNL     1       2.000   9.968  17.498  0.00  0.00    +0.000 OA
ATOM     10  N   UNL     1       1.495   8.209  18.944  0.00  0.00    +0.000 N 
ATOM     11  H   UNL     1       0.754   7.880  19.540  0.00  0.00    +0.000 HD
BRANCH  10  12
ATOM     12  C   UNL     1       2.528   7.270  18.640  0.00  0.00    +0.000 A 
ATOM     13  C   UNL     1       3.478   7.532  17.645  0.00  0.00    +0.000 A 
ATOM     14  C   UNL     1       4.453   6.594  17.320  0.00  0.00    +0.000 A 
ATOM     15  C   UNL     1       4.497   5.382  17.997  0.00  0.00    +0.000 A 
ATOM     16  C   UNL     1       3.598   5.082  19.004  0.00  0.00    +0.000 A 
ATOM     17  N   UNL     1       3.728   3.882  19.596  0.00  0.00    +0.000 NA
ATOM     18  C   UNL     1       2.867   3.554  20.577  0.00  0.00    +0.000 A 
ATOM     19  C   UNL     1       1.863   4.389  21.014  0.00  0.00    +0.000 A 
ATOM     20  C   UNL     1       1.731   5.631  20.398  0.00  0.00    +0.000 A 
ATOM     21  C   UNL     1       2.599   6.028  19.353  0.00  0.00    +0.000 A 
ENDBRANCH  10  12
ENDBRANCH   7   8
BRANCH   5  22
ATOM     22  S   UNL     1      -0.635  12.327  22.238  0.00  0.00    +0.000 S 
ATOM     23  O   UNL     1      -0.461  11.281  23.224  0.00  0.00    +0.000 OA
ATOM     24  O   UNL     1       0.359  13.367  22.077  0.00  0.00    +0.000 OA
BRANCH  22  25
ATOM     25  N   UNL     1      -2.121  13.064  22.513  0.00  0.00    +0.000 NA
ATOM     26  C   UNL     1      -3.065  12.456  23.483  0.00  0.00    +0.000 C 
ATOM     27  C   UNL     1      -4.481  12.949  23.147  0.00  0.00    +0.000 C 
ATOM     28  O   UNL     1      -4.555  14.384  23.189  0.00  0.00    +0.000 OA
ATOM     29  C   UNL     1      -3.631  14.971  22.255  0.00  0.00    +0.000 C 
ATOM     30  C   UNL     1      -2.189  14.548  22.567  0.00  0.00    +0.000 C 
ENDBRANCH  22  25
ENDBRANCH   5  22
TORSDOF 4
ENDMDL
MODEL 7
REMARK VINA RESULT:      -8.0      2.164      3.611
REMARK  Name = 
REMARK  5 active torsions:
REMARK  status: ('A' for Active; 'I' for Inactive)
REMARK    1  A    between atoms: C_1  and  C_2
REMARK    2  A    between atoms: C_5  and  S_6
REMARK    3  A    between atoms: S_6  and  N_9
REMARK    4  A    between atoms: C_16  and  C_17
REMARK    5  A    between atoms: N_19  and  C_20
REMARK                            x       y       z     vdW  Elec       q    Type
REMARK                         _______ _______ _______ _____ _____    ______ ____
ROOT
ATOM      1  C   UNL     1       1.774   5.089  19.549  0.00  0.00    +0.000 C 
ATOM      2  C   UNL     1       3.092   5.228  18.840  0.00  0.00    +0.000 A 
ATOM      3  C   UNL     1       3.940   4.099  18.812  0.00  0.00    +0.000 A 
ATOM      4  C   UNL     1       5.149   4.114  18.116  0.00  0.00    +0.000 A 
ATOM      5  C   UNL     1       5.528   5.264  17.431  0.00  0.00    +0.000 A 
ATOM      6  C   UNL     1       4.733   6.411  17.484  0.00  0.00    +0.000 A 
ATOM      7  C   UNL     1       3.512   6.405  18.185  0.00  0.00    +0.000 A 
ENDROOT
BRANCH   7   8
ATOM      8  C   UNL     1       2.721   7.673  18.087  0.00  0.00    +0.000 C 
ATOM      9  O   UNL     1       2.792   8.281  17.024  0.00  0.00    +0.000 OA
ATOM     10  N   UNL     1       2.050   8.082  19.226  0.00  0.00    +0.000 N 
ATOM     11  H   UNL     1       2.223   7.546  20.060  0.00  0.00    +0.000 HD
BRANCH  10  12
ATOM     12  C   UNL     1       1.278   9.274  19.387  0.00  0.00    +0.000 A 
ATOM     13  C   UNL     1       1.148  10.201  18.345  0.00  0.00    +0.000 A 
ATOM     14  C   UNL     1       0.435  11.383  18.523  0.00  0.00    +0.000 A 
ATOM     15  C   UNL     1      -0.168  11.647  19.745  0.00  0.00    +0.000 A 
ATOM     16  C   UNL     1      -0.091  10.756  20.799  0.00  0.00    +0.000 A 
ATOM     17  N   UNL     1      -0.711  11.107  21.939  0.00  0.00    +0.000 NA
ATOM     18  C   UNL     1      -0.653  10.266  22.988  0.00  0.00    +0.000 A 
ATOM     19  C   UNL     1       0.003   9.055  22.952  0.00  0.00    +0.000 A 
ATOM     20  C   UNL     1       0.644   8.694  21.769  0.00  0.00    +0.000 A 
ATOM     21  C   UNL     1       0.628   9.542  20.636  0.00  0.00    +0.000 A 
ENDBRANCH  10  12
ENDBRANCH   7   8
BRANCH   5  22
ATOM     22  S   UNL     1       7.083   5.312  16.571  0.00  0.00    +0.000 S 
ATOM     23  O   UNL     1       7.473   6.701  16.461  0.00  0.00    +0.000 OA
ATOM     24  O   UNL     1       7.954   4.345  17.204  0.00  0.00    +0.000 OA
BRANCH  22  25
ATOM     25  N   UNL     1       6.713   4.749  15.030  0.00  0.00    +0.000 NA
ATOM     26  C   UNL     1       5.291   4.565  14.646  0.00  0.00    +0.000 C 
ATOM     27  C   UNL     1       5.235   3.561  13.485  0.00  0.00    +0.000 C 
ATOM     28  O   UNL     1       6.014   4.017  12.365  0.00  0.00    +0.000 OA
ATOM     29  C   UNL     1       7.390   4.204  12.743  0.00  0.00    +0.000 C 
ATOM     30  C   UNL     1       7.515   5.234  13.876  0.00  0.00    +0.000 C 
ENDBRANCH  22  25
ENDBRANCH   5  22
TORSDOF 4
ENDMDL
MODEL 8
REMARK VINA RESULT:      -8.0      3.962      8.920
REMARK  Name = 
REMARK  5 active torsions:
REMARK  status: ('A' for Active; 'I' for Inactive)
REMARK    1  A    between atoms: C_1  and  C_2
REMARK    2  A    between atoms: C_5  and  S_6
REMARK    3  A    between atoms: S_6  and  N_9
REMARK    4  A    between atoms: C_16  and  C_17
REMARK    5  A    between atoms: N_19  and  C_20
REMARK                            x       y       z     vdW  Elec       q    Type
REMARK                         _______ _______ _______ _____ _____    ______ ____
ROOT
ATOM      1  C   UNL     1       1.643   8.022  21.558  0.00  0.00    +0.000 C 
ATOM      2  C   UNL     1       0.860   9.114  20.884  0.00  0.00    +0.000 A 
ATOM      3  C   UNL     1       0.008   9.899  21.691  0.00  0.00    +0.000 A 
ATOM      4  C   UNL     1      -0.701  10.980  21.165  0.00  0.00    +0.000 A 
ATOM      5  C   UNL     1      -0.564  11.295  19.816  0.00  0.00    +0.000 A 
ATOM      6  C   UNL     1       0.232  10.504  18.985  0.00  0.00    +0.000 A 
ATOM      7  C   UNL     1       0.951   9.411  19.507  0.00  0.00    +0.000 A 
ENDROOT
BRANCH   7   8
ATOM      8  C   UNL     1       1.831   8.705  18.523  0.00  0.00    +0.000 C 
ATOM      9  O   UNL     1       1.970   9.243  17.430  0.00  0.00    +0.000 OA
ATOM     10  N   UNL     1       2.338   7.475  18.906  0.00  0.00    +0.000 N 
ATOM     11  H   UNL     1       1.999   7.108  19.780  0.00  0.00    +0.000 HD
BRANCH  10  12
ATOM     12  C   UNL     1       3.153   6.601  18.124  0.00  0.00    +0.000 A 
ATOM     13  C   UNL     1       4.248   7.085  17.397  0.00  0.00    +0.000 A 
ATOM     14  C   UNL     1       5.009   6.237  16.598  0.00  0.00    +0.000 A 
ATOM     15  C   UNL     1       4.690   4.887  16.526  0.00  0.00    +0.000 A 
ATOM     16  C   UNL     1       3.635   4.353  17.241  0.00  0.00    +0.000 A 
ATOM     17  N   UNL     1       3.412   3.034  17.101  0.00  0.00    +0.000 NA
ATOM     18  C   UNL     1       2.390   2.481  17.779  0.00  0.00    +0.000 A 
ATOM     19  C   UNL     1       1.563   3.194  18.618  0.00  0.00    +0.000 A 
ATOM     20  C   UNL     1       1.797   4.560  18.761  0.00  0.00    +0.000 A 
ATOM     21  C   UNL     1       2.850   5.201  18.065  0.00  0.00    +0.000 A 
ENDBRANCH  10  12
ENDBRANCH   7   8
BRANCH   5  22
ATOM     22  S   UNL     1      -1.489  12.645  19.123  0.00  0.00    +0.000 S 
ATOM     23  O   UNL     1      -1.720  13.600  20.185  0.00  0.00    +0.000 OA
ATOM     24  O   UNL     1      -0.820  13.042  17.902  0.00  0.00    +0.000 OA
BRANCH  22  25
ATOM     25  N   UNL     1      -2.965  11.956  18.708  0.00  0.00    +0.000 NA
ATOM     26  C   UNL     1      -4.218  12.553  19.232  0.00  0.00    +0.000 C 
ATOM     27  C   UNL     1      -5.314  11.476  19.195  0.00  0.00    +0.000 C 
ATOM     28  O   UNL     1      -5.504  10.974  17.860  0.00  0.00    +0.000 OA
ATOM     29  C   UNL     1      -4.284  10.406  17.350  0.00  0.00    +0.000 C 
ATOM     30  C   UNL     1      -3.158  11.449  17.323  0.00  0.00    +0.000 C 
ENDBRANCH  22  25
ENDBRANCH   5  22
TORSDOF 4
ENDMDL
MODEL 9
REMARK VINA RESULT:      -7.9      4.226      8.448
REMARK  Name = 
REMARK  5 active torsions:
REMARK  status: ('A' for Active; 'I' for Inactive)
REMARK    1  A    between atoms: C_1  and  C_2
REMARK    2  A    between atoms: C_5  and  S_6
REMARK    3  A    between atoms: S_6  and  N_9
REMARK    4  A    between atoms: C_16  and  C_17
REMARK    5  A    between atoms: N_19  and  C_20
REMARK                            x       y       z     vdW  Elec       q    Type
REMARK                         _______ _______ _______ _____ _____    ______ ____
ROOT
ATOM      1  C   UNL     1       1.090   7.771  21.180  0.00  0.00    +0.000 C 
ATOM      2  C   UNL     1       0.953   9.115  20.522  0.00  0.00    +0.000 A 
ATOM      3  C   UNL     1       0.362  10.153  21.274  0.00  0.00    +0.000 A 
ATOM      4  C   UNL     1       0.261  11.450  20.770  0.00  0.00    +0.000 A 
ATOM      5  C   UNL     1       0.755  11.731  19.500  0.00  0.00    +0.000 A 
ATOM      6  C   UNL     1       1.298  10.712  18.715  0.00  0.00    +0.000 A 
ATOM      7  C   UNL     1       1.404   9.399  19.215  0.00  0.00    +0.000 A 
ENDROOT
BRANCH   7   8
ATOM      8  C   UNL     1       2.085   8.428  18.301  0.00  0.00    +0.000 C 
ATOM      9  O   UNL     1       2.118   8.726  17.112  0.00  0.00    +0.000 OA
ATOM     10  N   UNL     1       2.540   7.249  18.867  0.00  0.00    +0.000 N 
ATOM     11  H   UNL     1       2.294   7.096  19.831  0.00  0.00    +0.000 HD
BRANCH  10  12
ATOM     12  C   UNL     1       3.171   6.160  18.192  0.00  0.00    +0.000 A 
ATOM     13  C   UNL     1       4.286   6.362  17.370  0.00  0.00    +0.000 A 
ATOM     14  C   UNL     1       4.867   5.305  16.676  0.00  0.00    +0.000 A 
ATOM     15  C   UNL     1       4.343   4.025  16.806  0.00  0.00    +0.000 A 
ATOM     16  C   UNL     1       3.258   3.765  17.622  0.00  0.00    +0.000 A 
ATOM     17  N   UNL     1       2.831   2.492  17.677  0.00  0.00    +0.000 NA
ATOM     18  C   UNL     1       1.773   2.203  18.458  0.00  0.00    +0.000 A 
ATOM     19  C   UNL     1       1.110   3.145  19.214  0.00  0.00    +0.000 A 
ATOM     20  C   UNL     1       1.556   4.463  19.154  0.00  0.00    +0.000 A 
ATOM     21  C   UNL     1       2.656   4.830  18.342  0.00  0.00    +0.000 A 
ENDBRANCH  10  12
ENDBRANCH   7   8
BRANCH   5  22
ATOM     22  S   UNL     1       0.599  13.369  18.829  0.00  0.00    +0.000 S 
ATOM     23  O   UNL     1       1.876  13.719  18.245  0.00  0.00    +0.000 OA
ATOM     24  O   UNL     1      -0.611  13.395  18.035  0.00  0.00    +0.000 OA
BRANCH  22  25
ATOM     25  N   UNL     1       0.357  14.340  20.180  0.00  0.00    +0.000 NA
ATOM     26  C   UNL     1       1.463  15.206  20.660  0.00  0.00    +0.000 C 
ATOM     27  C   UNL     1       1.211  15.528  22.140  0.00  0.00    +0.000 C 
ATOM     28  O   UNL     1      -0.062  16.174  22.322  0.00  0.00    +0.000 OA
ATOM     29  C   UNL     1      -1.131  15.337  21.846  0.00  0.00    +0.000 C 
ATOM     30  C   UNL     1      -0.957  15.014  20.355  0.00  0.00    +0.000 C 
ENDBRANCH  22  25
ENDBRANCH   5  22
TORSDOF 4
ENDMDL
