MODEL 1
REMARK VINA RESULT:      -8.6      0.000      0.000
REMARK  Name = 
REMARK  7 active torsions:
REMARK  status: ('A' for Active; 'I' for Inactive)
REMARK    1  A    between atoms: C_1  and  C_2
REMARK    2  A    between atoms: C_5  and  C_6
REMARK    3  A    between atoms: C_8  and  O_9
REMARK    4  A    between atoms: C_10  and  C_11
REMARK    5  A    between atoms: C_11  and  N_12
REMARK    6  A    between atoms: C_13  and  C_15
REMARK    7  A    between atoms: N_21  and  C_22
REMARK                            x       y       z     vdW  Elec       q    Type
REMARK                         _______ _______ _______ _____ _____    ______ ____
ROOT
ATOM      1  C   UNL     1       3.916   4.045  18.544  0.00  0.00    +0.000 C 
ENDROOT
BRANCH   1   5
ATOM      2  C   UNL     1       6.259   5.243  15.808  0.00  0.00    +0.000 C 
ATOM      3  C   UNL     1       7.243   4.667  16.834  0.00  0.00    +0.000 C 
ATOM      4  C   UNL     1       6.408   4.466  18.093  0.00  0.00    +0.000 C 
ATOM      5  C   UNL     1       5.070   3.965  17.544  0.00  0.00    +0.000 C 
ATOM      6  C   UNL     1       4.861   4.815  16.282  0.00  0.00    +0.000 C 
BRANCH   2  11
ATOM      7  C   UNL     1       6.135   2.489  11.665  0.00  0.00    +0.000 C 
ATOM      8  C   UNL     1       6.495   3.567  12.606  0.00  0.00    +0.000 A 
ATOM      9  N   UNL     1       7.376   4.526  12.429  0.00  0.00    +0.000 NA
ATOM     10  N   UNL     1       7.408   5.291  13.571  0.00  0.00    +0.000 NA
ATOM     11  C   UNL     1       6.541   4.786  14.424  0.00  0.00    +0.000 A 
ATOM     12  N   UNL     1       5.931   3.705  13.846  0.00  0.00    +0.000 N 
ATOM     13  H   UNL     1       5.226   3.115  14.258  0.00  0.00    +0.000 HD
ENDBRANCH   2  11
BRANCH   4  14
ATOM     14  O   UNL     1       6.289   5.693  18.803  0.00  0.00    +0.000 OA
ATOM     15  H   UNL     1       7.079   6.239  18.648  0.00  0.00    +0.000 HD
ENDBRANCH   4  14
ENDBRANCH   1   5
BRANCH   1  16
ATOM     16  N   UNL     1       3.272   5.349  18.543  0.00  0.00    +0.000 N 
ATOM     17  C   UNL     1       2.656   5.850  19.674  0.00  0.00    +0.000 C 
ATOM     18  O   UNL     1       2.580   5.238  20.734  0.00  0.00    +0.000 OA
ATOM     19  H   UNL     1       3.442   5.963  17.758  0.00  0.00    +0.000 HD
BRANCH  17  20
ATOM     20  C   UNL     1       2.090   7.221  19.575  0.00  0.00    +0.000 A 
ATOM     21  C   UNL     1       2.243   7.906  18.367  0.00  0.00    +0.000 A 
ATOM     22  C   UNL     1       1.766   9.214  18.222  0.00  0.00    +0.000 A 
ATOM     23  C   UNL     1       1.138   9.844  19.313  0.00  0.00    +0.000 A 
ATOM     24  C   UNL     1       0.572  11.132  19.504  0.00  0.00    +0.000 A 
ATOM     25  C   UNL     1       0.107  11.198  20.797  0.00  0.00    +0.000 A 
ATOM     26  N   UNL     1       0.369   9.996  21.399  0.00  0.00    +0.000 N 
ATOM     27  C   UNL     1       0.024   9.669  22.764  0.00  0.00    +0.000 C 
ATOM     28  C   UNL     1       1.000   9.146  20.516  0.00  0.00    +0.000 A 
ATOM     29  C   UNL     1       1.469   7.830  20.676  0.00  0.00    +0.000 A 
ENDBRANCH  17  20
ENDBRANCH   1  16
TORSDOF 5
ENDMDL
MODEL 2
REMARK VINA RESULT:      -8.2      0.908      1.007
REMARK  Name = 
REMARK  7 active torsions:
REMARK  status: ('A' for Active; 'I' for Inactive)
REMARK    1  A    between atoms: C_1  and  C_2
REMARK    2  A    between atoms: C_5  and  C_6
REMARK    3  A    between atoms: C_8  and  O_9
REMARK    4  A    between atoms: C_10  and  C_11
REMARK    5  A    between atoms: C_11  and  N_12
REMARK    6  A    between atoms: C_13  and  C_15
REMARK    7  A    between atoms: N_21  and  C_22
REMARK                            x       y       z     vdW  Elec       q    Type
REMARK                         _______ _______ _______ _____ _____    ______ ____
ROOT
ATOM      1  C   UNL     1       3.044   4.574  18.775  0.00  0.00    +0.000 C 
ENDROOT
BRANCH   1   5
ATOM      2  C   UNL     1       6.066   5.430  16.641  0.00  0.00    +0.000 C 
ATOM      3  C   UNL     1       6.675   4.480  17.681  0.00  0.00    +0.000 C 
ATOM      4  C   UNL     1       5.602   4.354  18.757  0.00  0.00    +0.000 C 
ATOM      5  C   UNL     1       4.304   4.312  17.947  0.00  0.00    +0.000 C 
ATOM      6  C   UNL     1       4.543   5.342  16.834  0.00  0.00    +0.000 C 
BRANCH   2  11
ATOM      7  C   UNL     1       6.097   3.264  12.161  0.00  0.00    +0.000 C 
ATOM      8  C   UNL     1       6.491   4.134  13.286  0.00  0.00    +0.000 A 
ATOM      9  N   UNL     1       7.541   4.920  13.364  0.00  0.00    +0.000 NA
ATOM     10  N   UNL     1       7.531   5.523  14.599  0.00  0.00    +0.000 NA
ATOM     11  C   UNL     1       6.471   5.096  15.253  0.00  0.00    +0.000 A 
ATOM     12  N   UNL     1       5.779   4.228  14.452  0.00  0.00    +0.000 N 
ATOM     13  H   UNL     1       4.928   3.739  14.681  0.00  0.00    +0.000 HD
ENDBRANCH   2  11
BRANCH   4  14
ATOM     14  O   UNL     1       5.665   5.464  19.643  0.00  0.00    +0.000 OA
ATOM     15  H   UNL     1       6.260   5.259  20.385  0.00  0.00    +0.000 HD
ENDBRANCH   4  14
ENDBRANCH   1   5
BRANCH   1  16
ATOM     16  N   UNL     1       2.576   5.944  18.650  0.00  0.00    +0.000 N 
ATOM     17  C   UNL     1       2.091   6.643  19.739  0.00  0.00    +0.000 C 
ATOM     18  O   UNL     1       1.994   6.165  20.864  0.00  0.00    +0.000 OA
ATOM     19  H   UNL     1       2.782   6.442  17.794  0.00  0.00    +0.000 HD
BRANCH  17  20
ATOM     20  C   UNL     1       1.703   8.058  19.507  0.00  0.00    +0.000 A 
ATOM     21  C   UNL     1       2.063   8.644  18.291  0.00  0.00    +0.000 A 
ATOM     22  C   UNL     1       1.761   9.985  18.025  0.00  0.00    +0.000 A 
ATOM     23  C   UNL     1       1.097  10.749  19.004  0.00  0.00    +0.000 A 
ATOM     24  C   UNL     1       0.669  12.101  19.064  0.00  0.00    +0.000 A 
ATOM     25  C   UNL     1       0.079  12.301  20.291  0.00  0.00    +0.000 A 
ATOM     26  N   UNL     1       0.133  11.118  20.980  0.00  0.00    +0.000 N 
ATOM     27  C   UNL     1      -0.392  10.918  22.312  0.00  0.00    +0.000 C 
ATOM     28  C   UNL     1       0.751  10.148  20.218  0.00  0.00    +0.000 A 
ATOM     29  C   UNL     1       1.043   8.802  20.498  0.00  0.00    +0.000 A 
ENDBRANCH  17  20
ENDBRANCH   1  16
TORSDOF 5
ENDMDL
MODEL 3
REMARK VINA RESULT:      -8.1      1.057      1.329
REMARK  Name = 
REMARK  7 active torsions:
REMARK  status: ('A' for Active; 'I' for Inactive)
REMARK    1  A    between atoms: C_1  and  C_2
REMARK    2  A    between atoms: C_5  and  C_6
REMARK    3  A    between atoms: C_8  and  O_9
REMARK    4  A    between atoms: C_10  and  C_11
REMARK    5  A    between atoms: C_11  and  N_12
REMARK    6  A    between atoms: C_13  and  C_15
REMARK    7  A    between atoms: N_21  and  C_22
REMARK                            x       y       z     vdW  Elec       q    Type
REMARK                         _______ _______ _______ _____ _____    ______ ____
ROOT
ATOM      1  C   UNL     1       5.186   4.406  18.444  0.00  0.00    +0.000 C 
ENDROOT
BRANCH   1   5
ATOM      2  C   UNL     1       5.861   4.870  14.736  0.00  0.00    +0.000 C 
ATOM      3  C   UNL     1       7.280   4.892  15.318  0.00  0.00    +0.000 C 
ATOM      4  C   UNL     1       7.074   5.038  16.821  0.00  0.00    +0.000 C 
ATOM      5  C   UNL     1       5.855   4.152  17.091  0.00  0.00    +0.000 C 
ATOM      6  C   UNL     1       4.943   4.423  15.885  0.00  0.00    +0.000 C 
BRANCH   2  11
ATOM      7  C   UNL     1       7.122   1.739  11.080  0.00  0.00    +0.000 C 
ATOM      8  C   UNL     1       6.300   2.616  11.935  0.00  0.00    +0.000 A 
ATOM      9  N   UNL     1       5.035   2.937  11.777  0.00  0.00    +0.000 NA
ATOM     10  N   UNL     1       4.684   3.798  12.789  0.00  0.00    +0.000 NA
ATOM     11  C   UNL     1       5.741   3.984  13.551  0.00  0.00    +0.000 A 
ATOM     12  N   UNL     1       6.780   3.243  13.055  0.00  0.00    +0.000 N 
ATOM     13  H   UNL     1       7.715   3.186  13.424  0.00  0.00    +0.000 HD
ENDBRANCH   2  11
BRANCH   4  14
ATOM     14  O   UNL     1       6.850   6.403  17.154  0.00  0.00    +0.000 OA
ATOM     15  H   UNL     1       7.570   6.724  17.725  0.00  0.00    +0.000 HD
ENDBRANCH   4  14
ENDBRANCH   1   5
BRANCH   1  16
ATOM     16  N   UNL     1       4.416   5.638  18.457  0.00  0.00    +0.000 N 
ATOM     17  C   UNL     1       3.147   5.690  19.002  0.00  0.00    +0.000 C 
ATOM     18  O   UNL     1       2.573   4.717  19.481  0.00  0.00    +0.000 OA
ATOM     19  H   UNL     1       4.892   6.501  18.230  0.00  0.00    +0.000 HD
BRANCH  17  20
ATOM     20  C   UNL     1       2.480   7.018  19.021  0.00  0.00    +0.000 A 
ATOM     21  C   UNL     1       2.438   7.746  17.830  0.00  0.00    +0.000 A 
ATOM     22  C   UNL     1       1.859   9.019  17.790  0.00  0.00    +0.000 A 
ATOM     23  C   UNL     1       1.324   9.571  18.970  0.00  0.00    +0.000 A 
ATOM     24  C   UNL     1       0.698  10.809  19.273  0.00  0.00    +0.000 A 
ATOM     25  C   UNL     1       0.389  10.804  20.614  0.00  0.00    +0.000 A 
ATOM     26  N   UNL     1       0.803   9.608  21.137  0.00  0.00    +0.000 N 
ATOM     27  C   UNL     1       0.648   9.218  22.520  0.00  0.00    +0.000 C 
ATOM     28  C   UNL     1       1.381   8.831  20.154  0.00  0.00    +0.000 A 
ATOM     29  C   UNL     1       1.955   7.549  20.209  0.00  0.00    +0.000 A 
ENDBRANCH  17  20
ENDBRANCH   1  16
TORSDOF 5
ENDMDL
MODEL 4
REMARK VINA RESULT:      -7.8      3.920     10.283
REMARK  Name = 
REMARK  7 active torsions:
REMARK  status: ('A' for Active; 'I' for Inactive)
REMARK    1  A    between atoms: C_1  and  C_2
REMARK    2  A    between atoms: C_5  and  C_6
REMARK    3  A    between atoms: C_8  and  O_9
REMARK    4  A    between atoms: C_10  and  C_11
REMARK    5  A    between atoms: C_11  and  N_12
REMARK    6  A    between atoms: C_13  and  C_15
REMARK    7  A    between atoms: N_21  and  C_22
REMARK                            x       y       z     vdW  Elec       q    Type
REMARK                         _______ _______ _______ _____ _____    ______ ____
ROOT
ATOM      1  C   UNL     1       0.811  10.076  19.434  0.00  0.00    +0.000 C 
ENDROOT
BRANCH   1   5
ATOM      2  C   UNL     1      -1.303  11.315  22.333  0.00  0.00    +0.000 C 
ATOM      3  C   UNL     1      -0.403  10.280  23.021  0.00  0.00    +0.000 C 
ATOM      4  C   UNL     1       0.241   9.512  21.873  0.00  0.00    +0.000 C 
ATOM      5  C   UNL     1       0.520  10.606  20.839  0.00  0.00    +0.000 C 
ATOM      6  C   UNL     1      -0.725  11.501  20.921  0.00  0.00    +0.000 C 
BRANCH   2  11
ATOM      7  C   UNL     1      -3.178  15.141  24.903  0.00  0.00    +0.000 C 
ATOM      8  C   UNL     1      -2.204  14.285  24.199  0.00  0.00    +0.000 A 
ATOM      9  N   UNL     1      -0.937  14.539  23.959  0.00  0.00    +0.000 NA
ATOM     10  N   UNL     1      -0.417  13.481  23.253  0.00  0.00    +0.000 NA
ATOM     11  C   UNL     1      -1.376  12.597  23.079  0.00  0.00    +0.000 A 
ATOM     12  N   UNL     1      -2.518  13.060  23.675  0.00  0.00    +0.000 N 
ATOM     13  H   UNL     1      -3.415  12.602  23.703  0.00  0.00    +0.000 HD
ENDBRANCH   2  11
BRANCH   4  14
ATOM     14  O   UNL     1      -0.648   8.511  21.393  0.00  0.00    +0.000 OA
ATOM     15  H   UNL     1      -1.565   8.760  21.601  0.00  0.00    +0.000 HD
ENDBRANCH   4  14
ENDBRANCH   1   5
BRANCH   1  16
ATOM     16  N   UNL     1       1.479   8.785  19.457  0.00  0.00    +0.000 N 
ATOM     17  C   UNL     1       2.171   8.311  18.359  0.00  0.00    +0.000 C 
ATOM     18  O   UNL     1       2.251   8.914  17.294  0.00  0.00    +0.000 OA
ATOM     19  H   UNL     1       1.588   8.321  20.349  0.00  0.00    +0.000 HD
BRANCH  17  20
ATOM     20  C   UNL     1       2.871   7.010  18.520  0.00  0.00    +0.000 A 
ATOM     21  C   UNL     1       3.912   6.713  17.636  0.00  0.00    +0.000 A 
ATOM     22  C   UNL     1       4.587   5.490  17.710  0.00  0.00    +0.000 A 
ATOM     23  C   UNL     1       4.199   4.547  18.681  0.00  0.00    +0.000 A 
ATOM     24  C   UNL     1       4.648   3.240  19.009  0.00  0.00    +0.000 A 
ATOM     25  C   UNL     1       3.881   2.783  20.055  0.00  0.00    +0.000 A 
ATOM     26  N   UNL     1       2.982   3.764  20.377  0.00  0.00    +0.000 N 
ATOM     27  C   UNL     1       2.002   3.666  21.435  0.00  0.00    +0.000 C 
ATOM     28  C   UNL     1       3.151   4.858  19.553  0.00  0.00    +0.000 A 
ATOM     29  C   UNL     1       2.467   6.084  19.494  0.00  0.00    +0.000 A 
ENDBRANCH  17  20
ENDBRANCH   1  16
TORSDOF 5
ENDMDL
MODEL 5
REMARK VINA RESULT:      -7.8      3.188      4.157
REMARK  Name = 
REMARK  7 active torsions:
REMARK  status: ('A' for Active; 'I' for Inactive)
REMARK    1  A    between atoms: C_1  and  C_2
REMARK    2  A    between atoms: C_5  and  C_6
REMARK    3  A    between atoms: C_8  and  O_9
REMARK    4  A    between atoms: C_10  and  C_11
REMARK    5  A    between atoms: C_11  and  N_12
REMARK    6  A    between atoms: C_13  and  C_15
REMARK    7  A    between atoms: N_21  and  C_22
REMARK                            x       y       z     vdW  Elec       q    Type
REMARK                         _______ _______ _______ _____ _____    ______ ____
ROOT
ATOM      1  C   UNL     1       2.661   8.580  18.381  0.00  0.00    +0.000 C 
ENDROOT
BRANCH   1   5
ATOM      2  C   UNL     1       4.941   5.699  17.425  0.00  0.00    +0.000 C 
ATOM      3  C   UNL     1       3.564   5.022  17.429  0.00  0.00    +0.000 C 
ATOM      4  C   UNL     1       2.647   6.026  18.116  0.00  0.00    +0.000 C 
ATOM      5  C   UNL     1       3.140   7.371  17.576  0.00  0.00    +0.000 C 
ATOM      6  C   UNL     1       4.667   7.206  17.549  0.00  0.00    +0.000 C 
BRANCH   2  11
ATOM      7  C   UNL     1       6.242   3.635  13.088  0.00  0.00    +0.000 C 
ATOM      8  C   UNL     1       6.312   4.457  14.311  0.00  0.00    +0.000 A 
ATOM      9  N   UNL     1       7.321   5.186  14.733  0.00  0.00    +0.000 NA
ATOM     10  N   UNL     1       6.961   5.761  15.929  0.00  0.00    +0.000 NA
ATOM     11  C   UNL     1       5.735   5.375  16.214  0.00  0.00    +0.000 A 
ATOM     12  N   UNL     1       5.283   4.563  15.209  0.00  0.00    +0.000 N 
ATOM     13  H   UNL     1       4.383   4.114  15.151  0.00  0.00    +0.000 HD
ENDBRANCH   2  11
BRANCH   4  14
ATOM     14  O   UNL     1       2.773   5.919  19.529  0.00  0.00    +0.000 OA
ATOM     15  H   UNL     1       1.898   6.015  19.944  0.00  0.00    +0.000 HD
ENDBRANCH   4  14
ENDBRANCH   1   5
BRANCH   1  16
ATOM     16  N   UNL     1       1.253   8.867  18.163  0.00  0.00    +0.000 N 
ATOM     17  C   UNL     1       0.696  10.075  18.536  0.00  0.00    +0.000 C 
ATOM     18  O   UNL     1       1.325  10.970  19.093  0.00  0.00    +0.000 OA
ATOM     19  H   UNL     1       0.726   8.242  17.567  0.00  0.00    +0.000 HD
BRANCH  17  20
ATOM     20  C   UNL     1      -0.737  10.283  18.203  0.00  0.00    +0.000 A 
ATOM     21  C   UNL     1      -1.242   9.654  17.062  0.00  0.00    +0.000 A 
ATOM     22  C   UNL     1      -2.572   9.839  16.673  0.00  0.00    +0.000 A 
ATOM     23  C   UNL     1      -3.404  10.679  17.437  0.00  0.00    +0.000 A 
ATOM     24  C   UNL     1      -4.759  11.087  17.316  0.00  0.00    +0.000 A 
ATOM     25  C   UNL     1      -5.035  11.940  18.359  0.00  0.00    +0.000 A 
ATOM     26  N   UNL     1      -3.898  12.066  19.111  0.00  0.00    +0.000 N 
ATOM     27  C   UNL     1      -3.787  12.876  20.303  0.00  0.00    +0.000 C 
ATOM     28  C   UNL     1      -2.881  11.306  18.572  0.00  0.00    +0.000 A 
ATOM     29  C   UNL     1      -1.547  11.126  18.979  0.00  0.00    +0.000 A 
ENDBRANCH  17  20
ENDBRANCH   1  16
TORSDOF 5
ENDMDL
MODEL 6
REMARK VINA RESULT:      -7.8      1.154      2.015
REMARK  Name = 
REMARK  7 active torsions:
REMARK  status: ('A' for Active; 'I' for Inactive)
REMARK    1  A    between atoms: C_1  and  C_2
REMARK    2  A    between atoms: C_5  and  C_6
REMARK    3  A    between atoms: C_8  and  O_9
REMARK    4  A    between atoms: C_10  and  C_11
REMARK    5  A    between atoms: C_11  and  N_12
REMARK    6  A    between atoms: C_13  and  C_15
REMARK    7  A    between atoms: N_21  and  C_22
REMARK                            x       y       z     vdW  Elec       q    Type
REMARK                         _______ _______ _______ _____ _____    ______ ____
ROOT
ATOM      1  C   UNL     1       2.686   3.934  18.789  0.00  0.00    +0.000 C 
ENDROOT
BRANCH   1   5
ATOM      2  C   UNL     1       5.649   5.469  16.979  0.00  0.00    +0.000 C 
ATOM      3  C   UNL     1       6.339   4.698  18.112  0.00  0.00    +0.000 C 
ATOM      4  C   UNL     1       5.208   4.327  19.065  0.00  0.00    +0.000 C 
ATOM      5  C   UNL     1       4.059   3.972  18.117  0.00  0.00    +0.000 C 
ATOM      6  C   UNL     1       4.178   5.023  17.003  0.00  0.00    +0.000 C 
BRANCH   2  11
ATOM      7  C   UNL     1       6.438   3.623  12.426  0.00  0.00    +0.000 C 
ATOM      8  C   UNL     1       6.633   4.410  13.659  0.00  0.00    +0.000 A 
ATOM      9  N   UNL     1       7.649   5.186  13.964  0.00  0.00    +0.000 NA
ATOM     10  N   UNL     1       7.431   5.700  15.219  0.00  0.00    +0.000 NA
ATOM     11  C   UNL     1       6.281   5.232  15.657  0.00  0.00    +0.000 A 
ATOM     12  N   UNL     1       5.737   4.424  14.694  0.00  0.00    +0.000 N 
ATOM     13  H   UNL     1       4.865   3.923  14.745  0.00  0.00    +0.000 HD
ENDBRANCH   2  11
BRANCH   4  14
ATOM     14  O   UNL     1       4.904   5.427  19.915  0.00  0.00    +0.000 OA
ATOM     15  H   UNL     1       4.574   6.171  19.382  0.00  0.00    +0.000 HD
ENDBRANCH   4  14
ENDBRANCH   1   5
BRANCH   1  16
ATOM     16  N   UNL     1       2.155   5.263  19.041  0.00  0.00    +0.000 N 
ATOM     17  C   UNL     1       1.960   5.731  20.326  0.00  0.00    +0.000 C 
ATOM     18  O   UNL     1       2.188   5.067  21.332  0.00  0.00    +0.000 OA
ATOM     19  H   UNL     1       2.104   5.910  18.265  0.00  0.00    +0.000 HD
BRANCH  17  20
ATOM     20  C   UNL     1       1.476   7.129  20.463  0.00  0.00    +0.000 A 
ATOM     21  C   UNL     1       0.625   7.426  21.530  0.00  0.00    +0.000 A 
ATOM     22  C   UNL     1       0.105   8.715  21.693  0.00  0.00    +0.000 A 
ATOM     23  C   UNL     1       0.438   9.716  20.761  0.00  0.00    +0.000 A 
ATOM     24  C   UNL     1       0.079  11.083  20.626  0.00  0.00    +0.000 A 
ATOM     25  C   UNL     1       0.703  11.570  19.500  0.00  0.00    +0.000 A 
ATOM     26  N   UNL     1       1.428  10.549  18.946  0.00  0.00    +0.000 N 
ATOM     27  C   UNL     1       2.232  10.666  17.750  0.00  0.00    +0.000 C 
ATOM     28  C   UNL     1       1.285   9.399  19.695  0.00  0.00    +0.000 A 
ATOM     29  C   UNL     1       1.820   8.111  19.521  0.00  0.00    +0.000 A 
ENDBRANCH  17  20
ENDBRANCH   1  16
TORSDOF 5
ENDMDL
MODEL 7
REMARK VINA RESULT:      -7.7      3.758      8.756
REMARK  Name = 
REMARK  7 active torsions:
REMARK  status: ('A' for Active; 'I' for Inactive)
REMARK    1  A    between atoms: C_1  and  C_2
REMARK    2  A    between atoms: C_5  and  C_6
REMARK    3  A    between atoms: C_8  and  O_9
REMARK    4  A    between atoms: C_10  and  C_11
REMARK    5  A    between atoms: C_11  and  N_12
REMARK    6  A    between atoms: C_13  and  C_15
REMARK    7  A    between atoms: N_21  and  C_22
REMARK                            x       y       z     vdW  Elec       q    Type
REMARK                         _______ _______ _______ _____ _____    ______ ____
ROOT
ATOM      1  C   UNL     1       1.107   9.893  20.094  0.00  0.00    +0.000 C 
ENDROOT
BRANCH   1   5
ATOM      2  C   UNL     1      -1.902  11.566  18.493  0.00  0.00    +0.000 C 
ATOM      3  C   UNL     1      -0.783  12.567  18.180  0.00  0.00    +0.000 C 
ATOM      4  C   UNL     1       0.379  12.130  19.064  0.00  0.00    +0.000 C 
ATOM      5  C   UNL     1       0.305  10.602  19.000  0.00  0.00    +0.000 C 
ATOM      6  C   UNL     1      -1.203  10.315  19.047  0.00  0.00    +0.000 C 
BRANCH   2  11
ATOM      7  C   UNL     1      -3.191  10.061  13.928  0.00  0.00    +0.000 C 
ATOM      8  C   UNL     1      -3.305  10.604  15.295  0.00  0.00    +0.000 A 
ATOM      9  N   UNL     1      -4.374  11.103  15.875  0.00  0.00    +0.000 NA
ATOM     10  N   UNL     1      -4.021  11.514  17.138  0.00  0.00    +0.000 NA
ATOM     11  C   UNL     1      -2.741  11.255  17.308  0.00  0.00    +0.000 A 
ATOM     12  N   UNL     1      -2.255  10.665  16.172  0.00  0.00    +0.000 N 
ATOM     13  H   UNL     1      -1.311  10.358  16.006  0.00  0.00    +0.000 HD
ENDBRANCH   2  11
BRANCH   4  14
ATOM     14  O   UNL     1       0.209  12.637  20.382  0.00  0.00    +0.000 OA
ATOM     15  H   UNL     1      -0.649  12.347  20.737  0.00  0.00    +0.000 HD
ENDBRANCH   4  14
ENDBRANCH   1   5
BRANCH   1  16
ATOM     16  N   UNL     1       1.640   8.617  19.650  0.00  0.00    +0.000 N 
ATOM     17  C   UNL     1       2.212   8.469  18.400  0.00  0.00    +0.000 C 
ATOM     18  O   UNL     1       2.287   9.375  17.577  0.00  0.00    +0.000 OA
ATOM     19  H   UNL     1       1.755   7.883  20.337  0.00  0.00    +0.000 HD
BRANCH  17  20
ATOM     20  C   UNL     1       2.785   7.136  18.080  0.00  0.00    +0.000 A 
ATOM     21  C   UNL     1       3.987   7.094  17.370  0.00  0.00    +0.000 A 
ATOM     22  C   UNL     1       4.560   5.871  17.005  0.00  0.00    +0.000 A 
ATOM     23  C   UNL     1       3.905   4.672  17.349  0.00  0.00    +0.000 A 
ATOM     24  C   UNL     1       4.195   3.301  17.124  0.00  0.00    +0.000 A 
ATOM     25  C   UNL     1       3.180   2.560  17.684  0.00  0.00    +0.000 A 
ATOM     26  N   UNL     1       2.283   3.432  18.243  0.00  0.00    +0.000 N 
ATOM     27  C   UNL     1       1.078   3.039  18.937  0.00  0.00    +0.000 C 
ATOM     28  C   UNL     1       2.699   4.734  18.054  0.00  0.00    +0.000 A 
ATOM     29  C   UNL     1       2.114   5.954  18.432  0.00  0.00    +0.000 A 
ENDBRANCH  17  20
ENDBRANCH   1  16
TORSDOF 5
ENDMDL
MODEL 8
REMARK VINA RESULT:      -7.7      1.299      1.682
REMARK  Name = 
REMARK  7 active torsions:
REMARK  status: ('A' for Active; 'I' for Inactive)
REMARK    1  A    between atoms: C_1  and  C_2
REMARK    2  A    between atoms: C_5  and  C_6
REMARK    3  A    between atoms: C_8  and  O_9
REMARK    4  A    between atoms: C_10  and  C_11
REMARK    5  A    between atoms: C_11  and  N_12
REMARK    6  A    between atoms: C_13  and  C_15
REMARK    7  A    between atoms: N_21  and  C_22
REMARK                            x       y       z     vdW  Elec       q    Type
REMARK                         _______ _______ _______ _____ _____    ______ ____
ROOT
ATOM      1  C   UNL     1       4.115   5.644  19.503  0.00  0.00    +0.000 C 
ENDROOT
BRANCH   1   5
ATOM      2  C   UNL     1       6.158   3.967  16.777  0.00  0.00    +0.000 C 
ATOM      3  C   UNL     1       4.838   3.188  16.704  0.00  0.00    +0.000 C 
ATOM      4  C   UNL     1       4.093   3.581  17.975  0.00  0.00    +0.000 C 
ATOM      5  C   UNL     1       4.411   5.071  18.115  0.00  0.00    +0.000 C 
ATOM      6  C   UNL     1       5.889   5.161  17.707  0.00  0.00    +0.000 C 
BRANCH   2  11
ATOM      7  C   UNL     1       7.020   3.958  11.876  0.00  0.00    +0.000 C 
ATOM      8  C   UNL     1       7.030   4.389  13.287  0.00  0.00    +0.000 A 
ATOM      9  N   UNL     1       7.652   5.424  13.807  0.00  0.00    +0.000 NA
ATOM     10  N   UNL     1       7.410   5.431  15.160  0.00  0.00    +0.000 NA
ATOM     11  C   UNL     1       6.642   4.400  15.442  0.00  0.00    +0.000 A 
ATOM     12  N   UNL     1       6.366   3.724  14.283  0.00  0.00    +0.000 N 
ATOM     13  H   UNL     1       5.805   2.893  14.185  0.00  0.00    +0.000 HD
ENDBRANCH   2  11
BRANCH   4  14
ATOM     14  O   UNL     1       4.560   2.810  19.075  0.00  0.00    +0.000 OA
ATOM     15  H   UNL     1       3.818   2.604  19.670  0.00  0.00    +0.000 HD
ENDBRANCH   4  14
ENDBRANCH   1   5
BRANCH   1  16
ATOM     16  N   UNL     1       3.323   6.861  19.441  0.00  0.00    +0.000 N 
ATOM     17  C   UNL     1       2.106   6.963  20.088  0.00  0.00    +0.000 C 
ATOM     18  O   UNL     1       1.597   6.048  20.726  0.00  0.00    +0.000 OA
ATOM     19  H   UNL     1       3.760   7.695  19.073  0.00  0.00    +0.000 HD
BRANCH  17  20
ATOM     20  C   UNL     1       1.417   8.278  20.012  0.00  0.00    +0.000 A 
ATOM     21  C   UNL     1       1.540   9.014  18.831  0.00  0.00    +0.000 A 
ATOM     22  C   UNL     1       0.947  10.275  18.709  0.00  0.00    +0.000 A 
ATOM     23  C   UNL     1       0.228  10.807  19.796  0.00  0.00    +0.000 A 
ATOM     24  C   UNL     1      -0.463  12.030  20.007  0.00  0.00    +0.000 A 
ATOM     25  C   UNL     1      -0.971  12.009  21.285  0.00  0.00    +0.000 A 
ATOM     26  N   UNL     1      -0.616  10.817  21.860  0.00  0.00    +0.000 N 
ATOM     27  C   UNL     1      -0.970  10.414  23.202  0.00  0.00    +0.000 C 
ATOM     28  C   UNL     1       0.121  10.059  20.973  0.00  0.00    +0.000 A 
ATOM     29  C   UNL     1       0.707   8.789  21.109  0.00  0.00    +0.000 A 
ENDBRANCH  17  20
ENDBRANCH   1  16
TORSDOF 5
ENDMDL
MODEL 9
REMARK VINA RESULT:      -7.7      3.080     10.370
REMARK  Name = 
REMARK  7 active torsions:
REMARK  status: ('A' for Active; 'I' for Inactive)
REMARK    1  A    between atoms: C_1  and  C_2
REMARK    2  A    between atoms: C_5  and  C_6
REMARK    3  A    between atoms: C_8  and  O_9
REMARK    4  A    between atoms: C_10  and  C_11
REMARK    5  A    between atoms: C_11  and  N_12
REMARK    6  A    between atoms: C_13  and  C_15
REMARK    7  A    between atoms: N_21  and  C_22
REMARK                            x       y       z     vdW  Elec       q    Type
REMARK                         _______ _______ _______ _____ _____    ______ ____
ROOT
ATOM      1  C   UNL     1       1.440   9.143  21.634  0.00  0.00    +0.000 C 
ENDROOT
BRANCH   1   5
ATOM      2  C   UNL     1      -1.135  11.909  21.267  0.00  0.00    +0.000 C 
ATOM      3  C   UNL     1      -1.331  11.122  19.964  0.00  0.00    +0.000 C 
ATOM      4  C   UNL     1      -0.121  10.199  19.890  0.00  0.00    +0.000 C 
ATOM      5  C   UNL     1       0.072   9.765  21.345  0.00  0.00    +0.000 C 
ATOM      6  C   UNL     1      -0.209  11.048  22.141  0.00  0.00    +0.000 C 
BRANCH   2  11
ATOM      7  C   UNL     1      -4.514  12.416  24.884  0.00  0.00    +0.000 C 
ATOM      8  C   UNL     1      -3.907  12.428  23.540  0.00  0.00    +0.000 A 
ATOM      9  N   UNL     1      -4.492  12.702  22.395  0.00  0.00    +0.000 NA
ATOM     10  N   UNL     1      -3.559  12.567  21.396  0.00  0.00    +0.000 NA
ATOM     11  C   UNL     1      -2.417  12.217  21.949  0.00  0.00    +0.000 A 
ATOM     12  N   UNL     1      -2.590  12.133  23.305  0.00  0.00    +0.000 N 
ATOM     13  H   UNL     1      -1.896  11.883  23.990  0.00  0.00    +0.000 HD
ENDBRANCH   2  11
BRANCH   4  14
ATOM     14  O   UNL     1       1.001  10.902  19.370  0.00  0.00    +0.000 OA
ATOM     15  H   UNL     1       1.806  10.633  19.845  0.00  0.00    +0.000 HD
ENDBRANCH   4  14
ENDBRANCH   1   5
BRANCH   1  16
ATOM     16  N   UNL     1       1.505   7.744  21.246  0.00  0.00    +0.000 N 
ATOM     17  C   UNL     1       1.985   7.360  20.009  0.00  0.00    +0.000 C 
ATOM     18  O   UNL     1       2.360   8.151  19.150  0.00  0.00    +0.000 OA
ATOM     19  H   UNL     1       1.367   7.044  21.963  0.00  0.00    +0.000 HD
BRANCH  17  20
ATOM     20  C   UNL     1       2.068   5.899  19.747  0.00  0.00    +0.000 A 
ATOM     21  C   UNL     1       1.294   5.047  20.540  0.00  0.00    +0.000 A 
ATOM     22  C   UNL     1       1.356   3.660  20.369  0.00  0.00    +0.000 A 
ATOM     23  C   UNL     1       2.217   3.122  19.394  0.00  0.00    +0.000 A 
ATOM     24  C   UNL     1       2.525   1.798  18.985  0.00  0.00    +0.000 A 
ATOM     25  C   UNL     1       3.462   1.876  17.981  0.00  0.00    +0.000 A 
ATOM     26  N   UNL     1       3.735   3.201  17.763  0.00  0.00    +0.000 N 
ATOM     27  C   UNL     1       4.668   3.696  16.777  0.00  0.00    +0.000 C 
ATOM     28  C   UNL     1       2.988   3.989  18.614  0.00  0.00    +0.000 A 
ATOM     29  C   UNL     1       2.934   5.385  18.770  0.00  0.00    +0.000 A 
ENDBRANCH  17  20
ENDBRANCH   1  16
TORSDOF 5
ENDMDL
