MODEL 1
REMARK VINA RESULT:      -9.0      0.000      0.000
REMARK  Name = 
REMARK  4 active torsions:
REMARK  status: ('A' for Active; 'I' for Inactive)
REMARK    1  A    between atoms: N_6  and  C_7
REMARK    2  A    between atoms: C_11  and  C_12
REMARK    3  A    between atoms: C_12  and  N_13
REMARK    4  A    between atoms: N_13  and  C_14
REMARK                            x       y       z     vdW  Elec       q    Type
REMARK                         _______ _______ _______ _____ _____    ______ ____
ROOT
ATOM      1  C   UNL     1       4.452   7.399  17.564  0.00  0.00    +0.000 C 
ENDROOT
BRANCH   1   6
ATOM      2  C   UNL     1       6.551   4.912  15.468  0.00  0.00    +0.000 A 
ATOM      3  C   UNL     1       7.366   4.386  16.476  0.00  0.00    +0.000 A 
ATOM      4  C   UNL     1       7.253   4.816  17.802  0.00  0.00    +0.000 A 
ATOM      5  C   UNL     1       6.307   5.775  18.155  0.00  0.00    +0.000 A 
ATOM      6  C   UNL     1       5.440   6.299  17.189  0.00  0.00    +0.000 A 
ATOM      7  C   UNL     1       5.578   5.862  15.851  0.00  0.00    +0.000 A 
BRANCH   2  13
ATOM      8  O   UNL     1       8.568   5.839  13.389  0.00  0.00    +0.000 OA
ATOM      9  C   UNL     1       7.658   5.046  13.198  0.00  0.00    +0.000 C 
ATOM     10  C   UNL     1       7.328   4.516  11.823  0.00  0.00    +0.000 C 
ATOM     11  C   UNL     1       6.435   3.326  12.107  0.00  0.00    +0.000 C 
ATOM     12  C   UNL     1       5.759   3.692  13.414  0.00  0.00    +0.000 C 
ATOM     13  N   UNL     1       6.713   4.527  14.102  0.00  0.00    +0.000 N 
ENDBRANCH   2  13
ENDBRANCH   1   6
BRANCH   1  14
ATOM     14  N   UNL     1       3.125   6.812  17.516  0.00  0.00    +0.000 N 
ATOM     15  H   UNL     1       2.458   7.454  17.100  0.00  0.00    +0.000 HD
BRANCH  14  16
ATOM     16  C   UNL     1       2.551   6.229  18.659  0.00  0.00    +0.000 A 
ATOM     17  N   UNL     1       2.247   6.986  19.726  0.00  0.00    +0.000 NA
ATOM     18  C   UNL     1       1.709   6.337  20.773  0.00  0.00    +0.000 A 
ATOM     19  N   UNL     1       1.477   5.021  20.869  0.00  0.00    +0.000 NA
ATOM     20  C   UNL     1       1.811   4.265  19.811  0.00  0.00    +0.000 A 
ATOM     21  C   UNL     1       1.656   2.873  19.827  0.00  0.00    +0.000 A 
ATOM     22  F   UNL     1       1.164   2.270  20.922  0.00  0.00    +0.000 F 
ATOM     23  C   UNL     1       2.001   2.056  18.748  0.00  0.00    +0.000 A 
ATOM     24  C   UNL     1       2.507   2.627  17.595  0.00  0.00    +0.000 A 
ATOM     25  C   UNL     1       2.679   4.002  17.543  0.00  0.00    +0.000 A 
ATOM     26  C   UNL     1       2.345   4.833  18.644  0.00  0.00    +0.000 A 
ENDBRANCH  14  16
ENDBRANCH   1  14
TORSDOF 4
ENDMDL
MODEL 2
REMARK VINA RESULT:      -8.2      3.509      5.752
REMARK  Name = 
REMARK  4 active torsions:
REMARK  status: ('A' for Active; 'I' for Inactive)
REMARK    1  A    between atoms: N_6  and  C_7
REMARK    2  A    between atoms: C_11  and  C_12
REMARK    3  A    between atoms: C_12  and  N_13
REMARK    4  A    between atoms: N_13  and  C_14
REMARK                            x       y       z     vdW  Elec       q    Type
REMARK                         _______ _______ _______ _____ _____    ______ ____
ROOT
ATOM      1  C   UNL     1       1.517   5.875  20.660  0.00  0.00    +0.000 C 
ENDROOT
BRANCH   1   6
ATOM      2  C   UNL     1       3.697   4.153  17.964  0.00  0.00    +0.000 A 
ATOM      3  C   UNL     1       2.887   3.050  17.678  0.00  0.00    +0.000 A 
ATOM      4  C   UNL     1       1.667   2.853  18.332  0.00  0.00    +0.000 A 
ATOM      5  C   UNL     1       1.219   3.768  19.281  0.00  0.00    +0.000 A 
ATOM      6  C   UNL     1       1.975   4.911  19.570  0.00  0.00    +0.000 A 
ATOM      7  C   UNL     1       3.212   5.085  18.909  0.00  0.00    +0.000 A 
BRANCH   2  13
ATOM      8  O   UNL     1       6.437   4.593  19.210  0.00  0.00    +0.000 OA
ATOM      9  C   UNL     1       6.194   4.559  18.013  0.00  0.00    +0.000 C 
ATOM     10  C   UNL     1       7.237   4.881  16.969  0.00  0.00    +0.000 C 
ATOM     11  C   UNL     1       6.629   4.354  15.687  0.00  0.00    +0.000 C 
ATOM     12  C   UNL     1       5.137   4.473  15.924  0.00  0.00    +0.000 C 
ATOM     13  N   UNL     1       4.976   4.318  17.350  0.00  0.00    +0.000 N 
ENDBRANCH   2  13
ENDBRANCH   1   6
BRANCH   1  14
ATOM     14  N   UNL     1       2.272   7.103  20.484  0.00  0.00    +0.000 N 
ATOM     15  H   UNL     1       2.749   7.364  21.342  0.00  0.00    +0.000 HD
BRANCH  14  16
ATOM     16  C   UNL     1       1.675   8.246  19.925  0.00  0.00    +0.000 A 
ATOM     17  N   UNL     1       1.871   8.549  18.631  0.00  0.00    +0.000 NA
ATOM     18  C   UNL     1       1.265   9.665  18.190  0.00  0.00    +0.000 A 
ATOM     19  N   UNL     1       0.517  10.511  18.912  0.00  0.00    +0.000 NA
ATOM     20  C   UNL     1       0.351  10.220  20.212  0.00  0.00    +0.000 A 
ATOM     21  C   UNL     1      -0.371  11.064  21.066  0.00  0.00    +0.000 A 
ATOM     22  F   UNL     1      -0.910  12.196  20.583  0.00  0.00    +0.000 F 
ATOM     23  C   UNL     1      -0.557  10.796  22.424  0.00  0.00    +0.000 A 
ATOM     24  C   UNL     1      -0.027   9.641  22.969  0.00  0.00    +0.000 A 
ATOM     25  C   UNL     1       0.696   8.782  22.156  0.00  0.00    +0.000 A 
ATOM     26  C   UNL     1       0.902   9.061  20.780  0.00  0.00    +0.000 A 
ENDBRANCH  14  16
ENDBRANCH   1  14
TORSDOF 4
ENDMDL
MODEL 3
REMARK VINA RESULT:      -8.1      3.495      6.995
REMARK  Name = 
REMARK  4 active torsions:
REMARK  status: ('A' for Active; 'I' for Inactive)
REMARK    1  A    between atoms: N_6  and  C_7
REMARK    2  A    between atoms: C_11  and  C_12
REMARK    3  A    between atoms: C_12  and  N_13
REMARK    4  A    between atoms: N_13  and  C_14
REMARK                            x       y       z     vdW  Elec       q    Type
REMARK                         _______ _______ _______ _____ _____    ______ ____
ROOT
ATOM      1  C   UNL     1       3.147   2.865  17.616  0.00  0.00    +0.000 C 
ENDROOT
BRANCH   1   6
ATOM      2  C   UNL     1       2.173   6.126  19.460  0.00  0.00    +0.000 A 
ATOM      3  C   UNL     1       1.909   5.606  20.732  0.00  0.00    +0.000 A 
ATOM      4  C   UNL     1       2.036   4.240  21.000  0.00  0.00    +0.000 A 
ATOM      5  C   UNL     1       2.447   3.360  20.002  0.00  0.00    +0.000 A 
ATOM      6  C   UNL     1       2.764   3.840  18.726  0.00  0.00    +0.000 A 
ATOM      7  C   UNL     1       2.616   5.222  18.470  0.00  0.00    +0.000 A 
BRANCH   2  13
ATOM      8  O   UNL     1       1.107   8.377  21.206  0.00  0.00    +0.000 OA
ATOM      9  C   UNL     1       1.432   8.477  20.032  0.00  0.00    +0.000 C 
ATOM     10  C   UNL     1       1.205   9.741  19.238  0.00  0.00    +0.000 C 
ATOM     11  C   UNL     1       2.076   9.550  18.013  0.00  0.00    +0.000 C 
ATOM     12  C   UNL     1       2.111   8.045  17.832  0.00  0.00    +0.000 C 
ATOM     13  N   UNL     1       1.974   7.510  19.165  0.00  0.00    +0.000 N 
ENDBRANCH   2  13
ENDBRANCH   1   6
BRANCH   1  14
ATOM     14  N   UNL     1       4.590   2.933  17.471  0.00  0.00    +0.000 N 
ATOM     15  H   UNL     1       5.051   2.830  18.369  0.00  0.00    +0.000 HD
BRANCH  14  16
ATOM     16  C   UNL     1       5.196   3.983  16.761  0.00  0.00    +0.000 A 
ATOM     17  N   UNL     1       4.989   4.118  15.441  0.00  0.00    +0.000 NA
ATOM     18  C   UNL     1       5.618   5.146  14.848  0.00  0.00    +0.000 A 
ATOM     19  N   UNL     1       6.446   6.025  15.430  0.00  0.00    +0.000 NA
ATOM     20  C   UNL     1       6.675   5.867  16.744  0.00  0.00    +0.000 A 
ATOM     21  C   UNL     1       7.562   6.698  17.438  0.00  0.00    +0.000 A 
ATOM     22  F   UNL     1       8.207   7.679  16.783  0.00  0.00    +0.000 F 
ATOM     23  C   UNL     1       7.830   6.558  18.802  0.00  0.00    +0.000 A 
ATOM     24  C   UNL     1       7.188   5.568  19.524  0.00  0.00    +0.000 A 
ATOM     25  C   UNL     1       6.305   4.722  18.870  0.00  0.00    +0.000 A 
ATOM     26  C   UNL     1       6.045   4.851  17.481  0.00  0.00    +0.000 A 
ENDBRANCH  14  16
ENDBRANCH   1  14
TORSDOF 4
ENDMDL
MODEL 4
REMARK VINA RESULT:      -8.0      3.834      6.131
REMARK  Name = 
REMARK  4 active torsions:
REMARK  status: ('A' for Active; 'I' for Inactive)
REMARK    1  A    between atoms: N_6  and  C_7
REMARK    2  A    between atoms: C_11  and  C_12
REMARK    3  A    between atoms: C_12  and  N_13
REMARK    4  A    between atoms: N_13  and  C_14
REMARK                            x       y       z     vdW  Elec       q    Type
REMARK                         _______ _______ _______ _____ _____    ______ ____
ROOT
ATOM      1  C   UNL     1       1.414   6.197  20.853  0.00  0.00    +0.000 C 
ENDROOT
BRANCH   1   6
ATOM      2  C   UNL     1       4.281   5.188  18.456  0.00  0.00    +0.000 A 
ATOM      3  C   UNL     1       3.763   3.984  17.965  0.00  0.00    +0.000 A 
ATOM      4  C   UNL     1       2.523   3.498  18.390  0.00  0.00    +0.000 A 
ATOM      5  C   UNL     1       1.760   4.216  19.308  0.00  0.00    +0.000 A 
ATOM      6  C   UNL     1       2.218   5.447  19.795  0.00  0.00    +0.000 A 
ATOM      7  C   UNL     1       3.480   5.915  19.364  0.00  0.00    +0.000 A 
BRANCH   2  13
ATOM      8  O   UNL     1       6.893   5.212  20.015  0.00  0.00    +0.000 OA
ATOM      9  C   UNL     1       6.729   5.657  18.889  0.00  0.00    +0.000 C 
ATOM     10  C   UNL     1       7.807   6.426  18.162  0.00  0.00    +0.000 C 
ATOM     11  C   UNL     1       7.325   6.439  16.726  0.00  0.00    +0.000 C 
ATOM     12  C   UNL     1       5.816   6.379  16.855  0.00  0.00    +0.000 C 
ATOM     13  N   UNL     1       5.579   5.649  18.078  0.00  0.00    +0.000 N 
ENDBRANCH   2  13
ENDBRANCH   1   6
BRANCH   1  14
ATOM     14  N   UNL     1       1.961   7.540  20.927  0.00  0.00    +0.000 N 
ATOM     15  H   UNL     1       2.201   7.783  21.883  0.00  0.00    +0.000 HD
BRANCH  14  16
ATOM     16  C   UNL     1       1.296   8.625  20.330  0.00  0.00    +0.000 A 
ATOM     17  N   UNL     1       1.490   8.907  19.031  0.00  0.00    +0.000 NA
ATOM     18  C   UNL     1       0.818   9.968  18.553  0.00  0.00    +0.000 A 
ATOM     19  N   UNL     1       0.006  10.782  19.242  0.00  0.00    +0.000 NA
ATOM     20  C   UNL     1      -0.159  10.514  20.547  0.00  0.00    +0.000 A 
ATOM     21  C   UNL     1      -0.946  11.331  21.369  0.00  0.00    +0.000 A 
ATOM     22  F   UNL     1      -1.552  12.411  20.849  0.00  0.00    +0.000 F 
ATOM     23  C   UNL     1      -1.133  11.086  22.732  0.00  0.00    +0.000 A 
ATOM     24  C   UNL     1      -0.536   9.984  23.315  0.00  0.00    +0.000 A 
ATOM     25  C   UNL     1       0.255   9.154  22.534  0.00  0.00    +0.000 A 
ATOM     26  C   UNL     1       0.460   9.409  21.153  0.00  0.00    +0.000 A 
ENDBRANCH  14  16
ENDBRANCH   1  14
TORSDOF 4
ENDMDL
MODEL 5
REMARK VINA RESULT:      -7.9      3.693      6.121
REMARK  Name = 
REMARK  4 active torsions:
REMARK  status: ('A' for Active; 'I' for Inactive)
REMARK    1  A    between atoms: N_6  and  C_7
REMARK    2  A    between atoms: C_11  and  C_12
REMARK    3  A    between atoms: C_12  and  N_13
REMARK    4  A    between atoms: N_13  and  C_14
REMARK                            x       y       z     vdW  Elec       q    Type
REMARK                         _______ _______ _______ _____ _____    ______ ____
ROOT
ATOM      1  C   UNL     1       1.208   6.007  20.836  0.00  0.00    +0.000 C 
ENDROOT
BRANCH   1   6
ATOM      2  C   UNL     1       4.384   4.391  19.325  0.00  0.00    +0.000 A 
ATOM      3  C   UNL     1       4.182   3.064  19.718  0.00  0.00    +0.000 A 
ATOM      4  C   UNL     1       3.055   2.687  20.455  0.00  0.00    +0.000 A 
ATOM      5  C   UNL     1       2.091   3.630  20.803  0.00  0.00    +0.000 A 
ATOM      6  C   UNL     1       2.229   4.962  20.395  0.00  0.00    +0.000 A 
ATOM      7  C   UNL     1       3.382   5.327  19.662  0.00  0.00    +0.000 A 
BRANCH   2  13
ATOM      8  O   UNL     1       5.297   3.811  16.482  0.00  0.00    +0.000 OA
ATOM      9  C   UNL     1       5.928   4.437  17.321  0.00  0.00    +0.000 C 
ATOM     10  C   UNL     1       7.348   4.895  17.086  0.00  0.00    +0.000 C 
ATOM     11  C   UNL     1       7.577   5.915  18.180  0.00  0.00    +0.000 C 
ATOM     12  C   UNL     1       6.670   5.446  19.301  0.00  0.00    +0.000 C 
ATOM     13  N   UNL     1       5.570   4.790  18.635  0.00  0.00    +0.000 N 
ENDBRANCH   2  13
ENDBRANCH   1   6
BRANCH   1  14
ATOM     14  N   UNL     1       1.912   7.273  20.930  0.00  0.00    +0.000 N 
ATOM     15  H   UNL     1       2.138   7.494  21.895  0.00  0.00    +0.000 HD
BRANCH  14  16
ATOM     16  C   UNL     1       1.412   8.426  20.300  0.00  0.00    +0.000 A 
ATOM     17  N   UNL     1       1.725   8.690  19.021  0.00  0.00    +0.000 NA
ATOM     18  C   UNL     1       1.207   9.819  18.509  0.00  0.00    +0.000 A 
ATOM     19  N   UNL     1       0.441  10.714  19.150  0.00  0.00    +0.000 NA
ATOM     20  C   UNL     1       0.157  10.461  20.437  0.00  0.00    +0.000 A 
ATOM     21  C   UNL     1      -0.593  11.355  21.212  0.00  0.00    +0.000 A 
ATOM     22  F   UNL     1      -1.041  12.497  20.663  0.00  0.00    +0.000 F 
ATOM     23  C   UNL     1      -0.900  11.128  22.555  0.00  0.00    +0.000 A 
ATOM     24  C   UNL     1      -0.468   9.965  23.166  0.00  0.00    +0.000 A 
ATOM     25  C   UNL     1       0.281   9.057  22.433  0.00  0.00    +0.000 A 
ATOM     26  C   UNL     1       0.610   9.293  21.072  0.00  0.00    +0.000 A 
ENDBRANCH  14  16
ENDBRANCH   1  14
TORSDOF 4
ENDMDL
MODEL 6
REMARK VINA RESULT:      -7.9      5.047      6.434
REMARK  Name = 
REMARK  4 active torsions:
REMARK  status: ('A' for Active; 'I' for Inactive)
REMARK    1  A    between atoms: N_6  and  C_7
REMARK    2  A    between atoms: C_11  and  C_12
REMARK    3  A    between atoms: C_12  and  N_13
REMARK    4  A    between atoms: N_13  and  C_14
REMARK                            x       y       z     vdW  Elec       q    Type
REMARK                         _______ _______ _______ _____ _____    ______ ____
ROOT
ATOM      1  C   UNL     1       2.156   9.475  17.873  0.00  0.00    +0.000 C 
ENDROOT
BRANCH   1   6
ATOM      2  C   UNL     1       4.031   6.101  18.150  0.00  0.00    +0.000 A 
ATOM      3  C   UNL     1       3.378   5.560  19.262  0.00  0.00    +0.000 A 
ATOM      4  C   UNL     1       2.358   6.257  19.918  0.00  0.00    +0.000 A 
ATOM      5  C   UNL     1       1.955   7.510  19.463  0.00  0.00    +0.000 A 
ATOM      6  C   UNL     1       2.550   8.073  18.328  0.00  0.00    +0.000 A 
ATOM      7  C   UNL     1       3.589   7.359  17.687  0.00  0.00    +0.000 A 
BRANCH   2  13
ATOM      8  O   UNL     1       6.654   5.096  19.317  0.00  0.00    +0.000 OA
ATOM      9  C   UNL     1       6.323   5.029  18.142  0.00  0.00    +0.000 C 
ATOM     10  C   UNL     1       7.266   4.548  17.065  0.00  0.00    +0.000 C 
ATOM     11  C   UNL     1       6.351   4.274  15.890  0.00  0.00    +0.000 C 
ATOM     12  C   UNL     1       5.207   5.247  16.094  0.00  0.00    +0.000 C 
ATOM     13  N   UNL     1       5.122   5.422  17.524  0.00  0.00    +0.000 N 
ENDBRANCH   2  13
ENDBRANCH   1   6
BRANCH   1  14
ATOM     14  N   UNL     1       0.712   9.482  17.723  0.00  0.00    +0.000 N 
ATOM     15  H   UNL     1       0.448   9.521  16.744  0.00  0.00    +0.000 HD
BRANCH  14  16
ATOM     16  C   UNL     1      -0.086  10.382  18.451  0.00  0.00    +0.000 A 
ATOM     17  N   UNL     1       0.410  11.007  19.530  0.00  0.00    +0.000 NA
ATOM     18  C   UNL     1      -0.432  11.842  20.165  0.00  0.00    +0.000 A 
ATOM     19  N   UNL     1      -1.711  12.086  19.848  0.00  0.00    +0.000 NA
ATOM     20  C   UNL     1      -2.210  11.434  18.786  0.00  0.00    +0.000 A 
ATOM     21  C   UNL     1      -3.549  11.580  18.400  0.00  0.00    +0.000 A 
ATOM     22  F   UNL     1      -4.361  12.387  19.104  0.00  0.00    +0.000 F 
ATOM     23  C   UNL     1      -4.104  10.911  17.306  0.00  0.00    +0.000 A 
ATOM     24  C   UNL     1      -3.309  10.073  16.546  0.00  0.00    +0.000 A 
ATOM     25  C   UNL     1      -1.979   9.901  16.899  0.00  0.00    +0.000 A 
ATOM     26  C   UNL     1      -1.417  10.565  18.020  0.00  0.00    +0.000 A 
ENDBRANCH  14  16
ENDBRANCH   1  14
TORSDOF 4
ENDMDL
MODEL 7
REMARK VINA RESULT:      -7.9      5.044      7.235
REMARK  Name = 
REMARK  4 active torsions:
REMARK  status: ('A' for Active; 'I' for Inactive)
REMARK    1  A    between atoms: N_6  and  C_7
REMARK    2  A    between atoms: C_11  and  C_12
REMARK    3  A    between atoms: C_12  and  N_13
REMARK    4  A    between atoms: N_13  and  C_14
REMARK                            x       y       z     vdW  Elec       q    Type
REMARK                         _______ _______ _______ _____ _____    ______ ____
ROOT
ATOM      1  C   UNL     1       2.275   9.436  17.862  0.00  0.00    +0.000 C 
ENDROOT
BRANCH   1   6
ATOM      2  C   UNL     1       2.756   5.652  18.518  0.00  0.00    +0.000 A 
ATOM      3  C   UNL     1       3.933   5.436  17.793  0.00  0.00    +0.000 A 
ATOM      4  C   UNL     1       4.564   6.476  17.103  0.00  0.00    +0.000 A 
ATOM      5  C   UNL     1       4.039   7.766  17.136  0.00  0.00    +0.000 A 
ATOM      6  C   UNL     1       2.887   8.039  17.884  0.00  0.00    +0.000 A 
ATOM      7  C   UNL     1       2.255   6.972  18.563  0.00  0.00    +0.000 A 
BRANCH   2  13
ATOM      8  O   UNL     1       1.741   3.013  17.399  0.00  0.00    +0.000 OA
ATOM      9  C   UNL     1       1.600   3.402  18.549  0.00  0.00    +0.000 C 
ATOM     10  C   UNL     1       0.754   2.657  19.554  0.00  0.00    +0.000 C 
ATOM     11  C   UNL     1       1.168   3.260  20.880  0.00  0.00    +0.000 C 
ATOM     12  C   UNL     1       1.580   4.673  20.517  0.00  0.00    +0.000 C 
ATOM     13  N   UNL     1       2.071   4.577  19.163  0.00  0.00    +0.000 N 
ENDBRANCH   2  13
ENDBRANCH   1   6
BRANCH   1  14
ATOM     14  N   UNL     1       0.834   9.269  17.938  0.00  0.00    +0.000 N 
ATOM     15  H   UNL     1       0.438   9.105  17.018  0.00  0.00    +0.000 HD
BRANCH  14  16
ATOM     16  C   UNL     1       0.034  10.198  18.625  0.00  0.00    +0.000 A 
ATOM     17  N   UNL     1       0.498  10.807  19.729  0.00  0.00    +0.000 NA
ATOM     18  C   UNL     1      -0.343  11.672  20.321  0.00  0.00    +0.000 A 
ATOM     19  N   UNL     1      -1.595  11.963  19.940  0.00  0.00    +0.000 NA
ATOM     20  C   UNL     1      -2.064  11.328  18.854  0.00  0.00    +0.000 A 
ATOM     21  C   UNL     1      -3.375  11.522  18.401  0.00  0.00    +0.000 A 
ATOM     22  F   UNL     1      -4.192  12.359  19.064  0.00  0.00    +0.000 F 
ATOM     23  C   UNL     1      -3.899  10.873  17.280  0.00  0.00    +0.000 A 
ATOM     24  C   UNL     1      -3.098  10.006  16.560  0.00  0.00    +0.000 A 
ATOM     25  C   UNL     1      -1.795   9.785  16.980  0.00  0.00    +0.000 A 
ATOM     26  C   UNL     1      -1.266  10.430  18.128  0.00  0.00    +0.000 A 
ENDBRANCH  14  16
ENDBRANCH   1  14
TORSDOF 4
ENDMDL
MODEL 8
REMARK VINA RESULT:      -7.9      3.046      6.723
REMARK  Name = 
REMARK  4 active torsions:
REMARK  status: ('A' for Active; 'I' for Inactive)
REMARK    1  A    between atoms: N_6  and  C_7
REMARK    2  A    between atoms: C_11  and  C_12
REMARK    3  A    between atoms: C_12  and  N_13
REMARK    4  A    between atoms: N_13  and  C_14
REMARK                            x       y       z     vdW  Elec       q    Type
REMARK                         _______ _______ _______ _____ _____    ______ ____
ROOT
ATOM      1  C   UNL     1       3.071   2.972  17.713  0.00  0.00    +0.000 C 
ENDROOT
BRANCH   1   6
ATOM      2  C   UNL     1       2.183   6.353  19.376  0.00  0.00    +0.000 A 
ATOM      3  C   UNL     1       2.006   5.926  20.697  0.00  0.00    +0.000 A 
ATOM      4  C   UNL     1       2.164   4.582  21.054  0.00  0.00    +0.000 A 
ATOM      5  C   UNL     1       2.520   3.635  20.098  0.00  0.00    +0.000 A 
ATOM      6  C   UNL     1       2.750   4.023  18.772  0.00  0.00    +0.000 A 
ATOM      7  C   UNL     1       2.572   5.382  18.427  0.00  0.00    +0.000 A 
BRANCH   2  13
ATOM      8  O   UNL     1       3.199   7.926  16.979  0.00  0.00    +0.000 OA
ATOM      9  C   UNL     1       2.503   8.368  17.881  0.00  0.00    +0.000 C 
ATOM     10  C   UNL     1       2.166   9.836  17.992  0.00  0.00    +0.000 C 
ATOM     11  C   UNL     1       1.020   9.862  18.981  0.00  0.00    +0.000 C 
ATOM     12  C   UNL     1       1.277   8.652  19.857  0.00  0.00    +0.000 C 
ATOM     13  N   UNL     1       1.952   7.711  18.996  0.00  0.00    +0.000 N 
ENDBRANCH   2  13
ENDBRANCH   1   6
BRANCH   1  14
ATOM     14  N   UNL     1       4.509   2.997  17.514  0.00  0.00    +0.000 N 
ATOM     15  H   UNL     1       5.000   2.854  18.391  0.00  0.00    +0.000 HD
BRANCH  14  16
ATOM     16  C   UNL     1       5.123   4.046  16.809  0.00  0.00    +0.000 A 
ATOM     17  N   UNL     1       4.901   4.200  15.493  0.00  0.00    +0.000 NA
ATOM     18  C   UNL     1       5.539   5.226  14.905  0.00  0.00    +0.000 A 
ATOM     19  N   UNL     1       6.389   6.084  15.488  0.00  0.00    +0.000 NA
ATOM     20  C   UNL     1       6.631   5.906  16.796  0.00  0.00    +0.000 A 
ATOM     21  C   UNL     1       7.541   6.715  17.490  0.00  0.00    +0.000 A 
ATOM     22  F   UNL     1       8.192   7.693  16.839  0.00  0.00    +0.000 F 
ATOM     23  C   UNL     1       7.823   6.552  18.849  0.00  0.00    +0.000 A 
ATOM     24  C   UNL     1       7.175   5.564  19.566  0.00  0.00    +0.000 A 
ATOM     25  C   UNL     1       6.270   4.740  18.913  0.00  0.00    +0.000 A 
ATOM     26  C   UNL     1       5.994   4.891  17.529  0.00  0.00    +0.000 A 
ENDBRANCH  14  16
ENDBRANCH   1  14
TORSDOF 4
ENDMDL
MODEL 9
REMARK VINA RESULT:      -7.8      4.365      7.072
REMARK  Name = 
REMARK  4 active torsions:
REMARK  status: ('A' for Active; 'I' for Inactive)
REMARK    1  A    between atoms: N_6  and  C_7
REMARK    2  A    between atoms: C_11  and  C_12
REMARK    3  A    between atoms: C_12  and  N_13
REMARK    4  A    between atoms: N_13  and  C_14
REMARK                            x       y       z     vdW  Elec       q    Type
REMARK                         _______ _______ _______ _____ _____    ______ ____
ROOT
ATOM      1  C   UNL     1       2.424   8.823  17.823  0.00  0.00    +0.000 C 
ENDROOT
BRANCH   1   6
ATOM      2  C   UNL     1       3.034   5.124  18.789  0.00  0.00    +0.000 A 
ATOM      3  C   UNL     1       4.127   4.843  17.962  0.00  0.00    +0.000 A 
ATOM      4  C   UNL     1       4.661   5.813  17.107  0.00  0.00    +0.000 A 
ATOM      5  C   UNL     1       4.123   7.097  17.072  0.00  0.00    +0.000 A 
ATOM      6  C   UNL     1       3.057   7.437  17.913  0.00  0.00    +0.000 A 
ATOM      7  C   UNL     1       2.521   6.440  18.760  0.00  0.00    +0.000 A 
BRANCH   2  13
ATOM      8  O   UNL     1       1.488   2.621  18.020  0.00  0.00    +0.000 OA
ATOM      9  C   UNL     1       1.704   3.005  19.160  0.00  0.00    +0.000 C 
ATOM     10  C   UNL     1       1.089   2.335  20.366  0.00  0.00    +0.000 C 
ATOM     11  C   UNL     1       1.906   2.871  21.523  0.00  0.00    +0.000 C 
ATOM     12  C   UNL     1       2.348   4.239  21.044  0.00  0.00    +0.000 C 
ATOM     13  N   UNL     1       2.442   4.115  19.609  0.00  0.00    +0.000 N 
ENDBRANCH   2  13
ENDBRANCH   1   6
BRANCH   1  14
ATOM     14  N   UNL     1       1.431   8.905  18.879  0.00  0.00    +0.000 N 
ATOM     15  H   UNL     1       0.639   8.301  18.682  0.00  0.00    +0.000 HD
BRANCH  14  16
ATOM     16  C   UNL     1       0.960  10.148  19.334  0.00  0.00    +0.000 A 
ATOM     17  N   UNL     1       1.131  11.252  18.587  0.00  0.00    +0.000 NA
ATOM     18  C   UNL     1       0.654  12.395  19.109  0.00  0.00    +0.000 A 
ATOM     19  N   UNL     1       0.057  12.546  20.300  0.00  0.00    +0.000 NA
ATOM     20  C   UNL     1      -0.083  11.445  21.055  0.00  0.00    +0.000 A 
ATOM     21  C   UNL     1      -0.647  11.502  22.336  0.00  0.00    +0.000 A 
ATOM     22  F   UNL     1      -1.058  12.682  22.831  0.00  0.00    +0.000 F 
ATOM     23  C   UNL     1      -0.800  10.378  23.152  0.00  0.00    +0.000 A 
ATOM     24  C   UNL     1      -0.398   9.140  22.688  0.00  0.00    +0.000 A 
ATOM     25  C   UNL     1       0.168   9.044  21.426  0.00  0.00    +0.000 A 
ATOM     26  C   UNL     1       0.341  10.186  20.601  0.00  0.00    +0.000 A 
ENDBRANCH  14  16
ENDBRANCH   1  14
TORSDOF 4
ENDMDL
