MODEL 1
REMARK VINA RESULT:      -8.6      0.000      0.000
REMARK  Name = 
REMARK  7 active torsions:
REMARK  status: ('A' for Active; 'I' for Inactive)
REMARK    1  A    between atoms: C_2  and  C_3
REMARK    2  A    between atoms: C_3  and  N_4
REMARK    3  A    between atoms: N_4  and  C_5
REMARK    4  A    between atoms: C_5  and  C_6
REMARK    5  A    between atoms: C_5  and  C_12
REMARK    6  A    between atoms: N_18  and  C_19
REMARK    7  A    between atoms: N_23  and  C_24
REMARK                            x       y       z     vdW  Elec       q    Type
REMARK                         _______ _______ _______ _____ _____    ______ ____
ROOT
ATOM      1  C   UNL     1       2.042   8.006  18.938  0.00  0.00    +0.000 C 
ENDROOT
BRANCH   1   3
ATOM      2  O   UNL     1       2.031   9.815  17.322  0.00  0.00    +0.000 OA
ATOM      3  C   UNL     1       1.738   9.414  18.440  0.00  0.00    +0.000 C 
ATOM      4  N   UNL     1       1.128  10.291  19.411  0.00  0.00    +0.000 N 
ATOM      5  H   UNL     1       1.077   9.973  20.373  0.00  0.00    +0.000 HD
BRANCH   4   6
ATOM      6  C   UNL     1       0.609  11.541  19.085  0.00  0.00    +0.000 A 
ATOM      7  C   UNL     1       1.271  12.752  19.081  0.00  0.00    +0.000 A 
ATOM      8  C   UNL     1       0.315  13.702  18.684  0.00  0.00    +0.000 A 
ATOM      9  N   UNL     1      -0.866  13.147  18.429  0.00  0.00    +0.000 NA
ATOM     10  N   UNL     1      -0.670  11.830  18.652  0.00  0.00    +0.000 N 
BRANCH  10  11
ATOM     11  C   UNL     1      -1.786  10.922  18.488  0.00  0.00    +0.000 C 
ATOM     12  C   UNL     1      -1.736  10.095  17.202  0.00  0.00    +0.000 C 
ATOM     13  C   UNL     1      -3.181   9.685  16.934  0.00  0.00    +0.000 C 
ATOM     14  C   UNL     1      -4.065  10.602  17.775  0.00  0.00    +0.000 C 
ATOM     15  C   UNL     1      -3.137  11.633  18.404  0.00  0.00    +0.000 C 
ENDBRANCH  10  11
ENDBRANCH   4   6
ENDBRANCH   1   3
BRANCH   1  16
ATOM     16  N   UNL     1       3.052   7.273  18.159  0.00  0.00    +0.000 NA
ATOM     17  H   UNL     1       3.806   7.906  17.886  0.00  0.00    +0.000 HD
BRANCH  16  18
ATOM     18  C   UNL     1       3.647   6.085  18.791  0.00  0.00    +0.000 C 
BRANCH  18  19
ATOM     19  C   UNL     1       2.645   4.975  19.125  0.00  0.00    +0.000 A 
ATOM     20  C   UNL     1       2.028   4.199  18.128  0.00  0.00    +0.000 A 
ATOM     21  C   UNL     1       1.200   3.124  18.460  0.00  0.00    +0.000 A 
ATOM     22  C   UNL     1       0.970   2.806  19.795  0.00  0.00    +0.000 A 
ATOM     23  C   UNL     1       1.551   3.578  20.799  0.00  0.00    +0.000 A 
ATOM     24  C   UNL     1       2.387   4.648  20.470  0.00  0.00    +0.000 A 
ENDBRANCH  18  19
BRANCH  18  25
ATOM     25  C   UNL     1       4.807   5.558  17.938  0.00  0.00    +0.000 A 
ATOM     26  C   UNL     1       4.791   5.725  16.545  0.00  0.00    +0.000 A 
ATOM     27  C   UNL     1       5.881   5.337  15.760  0.00  0.00    +0.000 A 
ATOM     28  C   UNL     1       7.006   4.767  16.357  0.00  0.00    +0.000 A 
ATOM     29  C   UNL     1       7.022   4.542  17.734  0.00  0.00    +0.000 A 
ATOM     30  C   UNL     1       5.929   4.935  18.516  0.00  0.00    +0.000 A 
ENDBRANCH  18  25
ENDBRANCH  16  18
ENDBRANCH   1  16
TORSDOF 7
ENDMDL
MODEL 2
REMARK VINA RESULT:      -8.5      1.781      4.283
REMARK  Name = 
REMARK  7 active torsions:
REMARK  status: ('A' for Active; 'I' for Inactive)
REMARK    1  A    between atoms: C_2  and  C_3
REMARK    2  A    between atoms: C_3  and  N_4
REMARK    3  A    between atoms: N_4  and  C_5
REMARK    4  A    between atoms: C_5  and  C_6
REMARK    5  A    between atoms: C_5  and  C_12
REMARK    6  A    between atoms: N_18  and  C_19
REMARK    7  A    between atoms: N_23  and  C_24
REMARK                            x       y       z     vdW  Elec       q    Type
REMARK                         _______ _______ _______ _____ _____    ______ ____
ROOT
ATOM      1  C   UNL     1       2.756   8.688  17.782  0.00  0.00    +0.000 C 
ENDROOT
BRANCH   1   3
ATOM      2  O   UNL     1       2.016  10.971  18.133  0.00  0.00    +0.000 OA
ATOM      3  C   UNL     1       1.731   9.786  18.039  0.00  0.00    +0.000 C 
ATOM      4  N   UNL     1       0.376   9.326  18.236  0.00  0.00    +0.000 N 
ATOM      5  H   UNL     1       0.222   8.328  18.335  0.00  0.00    +0.000 HD
BRANCH   4   6
ATOM      6  C   UNL     1      -0.717  10.187  18.292  0.00  0.00    +0.000 A 
ATOM      7  C   UNL     1      -1.598  10.493  17.276  0.00  0.00    +0.000 A 
ATOM      8  C   UNL     1      -2.514  11.401  17.833  0.00  0.00    +0.000 A 
ATOM      9  N   UNL     1      -2.260  11.646  19.115  0.00  0.00    +0.000 NA
ATOM     10  N   UNL     1      -1.180  10.883  19.391  0.00  0.00    +0.000 N 
BRANCH  10  11
ATOM     11  C   UNL     1      -0.614  10.934  20.723  0.00  0.00    +0.000 C 
ATOM     12  C   UNL     1      -0.467   9.566  21.392  0.00  0.00    +0.000 C 
ATOM     13  C   UNL     1      -0.432   9.855  22.889  0.00  0.00    +0.000 C 
ATOM     14  C   UNL     1      -0.978  11.268  23.080  0.00  0.00    +0.000 C 
ATOM     15  C   UNL     1      -1.466  11.727  21.713  0.00  0.00    +0.000 C 
ENDBRANCH  10  11
ENDBRANCH   4   6
ENDBRANCH   1   3
BRANCH   1  16
ATOM     16  N   UNL     1       2.576   7.467  18.584  0.00  0.00    +0.000 NA
ATOM     17  H   UNL     1       1.595   7.369  18.851  0.00  0.00    +0.000 HD
BRANCH  16  18
ATOM     18  C   UNL     1       3.023   6.202  17.980  0.00  0.00    +0.000 C 
BRANCH  18  19
ATOM     19  C   UNL     1       4.543   6.000  17.981  0.00  0.00    +0.000 A 
ATOM     20  C   UNL     1       5.350   6.392  16.899  0.00  0.00    +0.000 A 
ATOM     21  C   UNL     1       6.742   6.296  16.966  0.00  0.00    +0.000 A 
ATOM     22  C   UNL     1       7.353   5.802  18.115  0.00  0.00    +0.000 A 
ATOM     23  C   UNL     1       6.571   5.385  19.189  0.00  0.00    +0.000 A 
ATOM     24  C   UNL     1       5.179   5.489  19.128  0.00  0.00    +0.000 A 
ENDBRANCH  18  19
BRANCH  18  25
ATOM     25  C   UNL     1       2.297   5.020  18.631  0.00  0.00    +0.000 A 
ATOM     26  C   UNL     1       1.887   5.096  19.971  0.00  0.00    +0.000 A 
ATOM     27  C   UNL     1       1.141   4.067  20.556  0.00  0.00    +0.000 A 
ATOM     28  C   UNL     1       0.798   2.940  19.810  0.00  0.00    +0.000 A 
ATOM     29  C   UNL     1       1.241   2.819  18.492  0.00  0.00    +0.000 A 
ATOM     30  C   UNL     1       1.986   3.852  17.910  0.00  0.00    +0.000 A 
ENDBRANCH  18  25
ENDBRANCH  16  18
ENDBRANCH   1  16
TORSDOF 7
ENDMDL
MODEL 3
REMARK VINA RESULT:      -8.5      1.778      4.239
REMARK  Name = 
REMARK  7 active torsions:
REMARK  status: ('A' for Active; 'I' for Inactive)
REMARK    1  A    between atoms: C_2  and  C_3
REMARK    2  A    between atoms: C_3  and  N_4
REMARK    3  A    between atoms: N_4  and  C_5
REMARK    4  A    between atoms: C_5  and  C_6
REMARK    5  A    between atoms: C_5  and  C_12
REMARK    6  A    between atoms: N_18  and  C_19
REMARK    7  A    between atoms: N_23  and  C_24
REMARK                            x       y       z     vdW  Elec       q    Type
REMARK                         _______ _______ _______ _____ _____    ______ ____
ROOT
ATOM      1  C   UNL     1       2.976   8.293  17.590  0.00  0.00    +0.000 C 
ENDROOT
BRANCH   1   3
ATOM      2  O   UNL     1       2.280  10.612  17.729  0.00  0.00    +0.000 OA
ATOM      3  C   UNL     1       1.987   9.429  17.821  0.00  0.00    +0.000 C 
ATOM      4  N   UNL     1       0.665   9.017  18.231  0.00  0.00    +0.000 N 
ATOM      5  H   UNL     1       0.524   8.042  18.473  0.00  0.00    +0.000 HD
BRANCH   4   6
ATOM      6  C   UNL     1      -0.415   9.893  18.302  0.00  0.00    +0.000 A 
ATOM      7  C   UNL     1      -1.268  10.261  17.282  0.00  0.00    +0.000 A 
ATOM      8  C   UNL     1      -2.181  11.158  17.860  0.00  0.00    +0.000 A 
ATOM      9  N   UNL     1      -1.952  11.340  19.157  0.00  0.00    +0.000 NA
ATOM     10  N   UNL     1      -0.892  10.546  19.421  0.00  0.00    +0.000 N 
BRANCH  10  11
ATOM     11  C   UNL     1      -0.357  10.525  20.767  0.00  0.00    +0.000 C 
ATOM     12  C   UNL     1      -0.322   9.135  21.405  0.00  0.00    +0.000 C 
ATOM     13  C   UNL     1      -0.303   9.386  22.909  0.00  0.00    +0.000 C 
ATOM     14  C   UNL     1      -0.753  10.829  23.123  0.00  0.00    +0.000 C 
ATOM     15  C   UNL     1      -1.174  11.354  21.757  0.00  0.00    +0.000 C 
ENDBRANCH  10  11
ENDBRANCH   4   6
ENDBRANCH   1   3
BRANCH   1  16
ATOM     16  N   UNL     1       2.829   7.144  18.498  0.00  0.00    +0.000 NA
ATOM     17  H   UNL     1       1.926   7.192  18.975  0.00  0.00    +0.000 HD
BRANCH  16  18
ATOM     18  C   UNL     1       2.970   5.804  17.905  0.00  0.00    +0.000 C 
BRANCH  18  19
ATOM     19  C   UNL     1       4.420   5.352  17.699  0.00  0.00    +0.000 A 
ATOM     20  C   UNL     1       4.871   4.819  16.478  0.00  0.00    +0.000 A 
ATOM     21  C   UNL     1       6.219   4.513  16.280  0.00  0.00    +0.000 A 
ATOM     22  C   UNL     1       7.142   4.728  17.299  0.00  0.00    +0.000 A 
ATOM     23  C   UNL     1       6.712   5.231  18.525  0.00  0.00    +0.000 A 
ATOM     24  C   UNL     1       5.365   5.548  18.723  0.00  0.00    +0.000 A 
ENDBRANCH  18  19
BRANCH  18  25
ATOM     25  C   UNL     1       2.170   4.780  18.716  0.00  0.00    +0.000 A 
ATOM     26  C   UNL     1       1.640   3.642  18.090  0.00  0.00    +0.000 A 
ATOM     27  C   UNL     1       0.988   2.649  18.829  0.00  0.00    +0.000 A 
ATOM     28  C   UNL     1       0.850   2.783  20.211  0.00  0.00    +0.000 A 
ATOM     29  C   UNL     1       1.321   3.932  20.847  0.00  0.00    +0.000 A 
ATOM     30  C   UNL     1       1.974   4.922  20.103  0.00  0.00    +0.000 A 
ENDBRANCH  18  25
ENDBRANCH  16  18
ENDBRANCH   1  16
TORSDOF 7
ENDMDL
MODEL 4
REMARK VINA RESULT:      -8.5      0.757      3.436
REMARK  Name = 
REMARK  7 active torsions:
REMARK  status: ('A' for Active; 'I' for Inactive)
REMARK    1  A    between atoms: C_2  and  C_3
REMARK    2  A    between atoms: C_3  and  N_4
REMARK    3  A    between atoms: N_4  and  C_5
REMARK    4  A    between atoms: C_5  and  C_6
REMARK    5  A    between atoms: C_5  and  C_12
REMARK    6  A    between atoms: N_18  and  C_19
REMARK    7  A    between atoms: N_23  and  C_24
REMARK                            x       y       z     vdW  Elec       q    Type
REMARK                         _______ _______ _______ _____ _____    ______ ____
ROOT
ATOM      1  C   UNL     1       2.008   7.644  18.857  0.00  0.00    +0.000 C 
ENDROOT
BRANCH   1   3
ATOM      2  O   UNL     1       2.156   9.470  17.266  0.00  0.00    +0.000 OA
ATOM      3  C   UNL     1       1.808   9.074  18.370  0.00  0.00    +0.000 C 
ATOM      4  N   UNL     1       1.230   9.977  19.337  0.00  0.00    +0.000 N 
ATOM      5  H   UNL     1       1.132   9.651  20.293  0.00  0.00    +0.000 HD
BRANCH   4   6
ATOM      6  C   UNL     1       0.800  11.262  19.015  0.00  0.00    +0.000 A 
ATOM      7  C   UNL     1       1.551  12.419  18.992  0.00  0.00    +0.000 A 
ATOM      8  C   UNL     1       0.662  13.437  18.609  0.00  0.00    +0.000 A 
ATOM      9  N   UNL     1      -0.563  12.973  18.380  0.00  0.00    +0.000 NA
ATOM     10  N   UNL     1      -0.462  11.645  18.605  0.00  0.00    +0.000 N 
BRANCH  10  11
ATOM     11  C   UNL     1      -1.647  10.824  18.468  0.00  0.00    +0.000 C 
ATOM     12  C   UNL     1      -1.693  10.005  17.176  0.00  0.00    +0.000 C 
ATOM     13  C   UNL     1      -3.171   9.705  16.947  0.00  0.00    +0.000 C 
ATOM     14  C   UNL     1      -3.961  10.678  17.817  0.00  0.00    +0.000 C 
ATOM     15  C   UNL     1      -2.943  11.633  18.426  0.00  0.00    +0.000 C 
ENDBRANCH  10  11
ENDBRANCH   4   6
ENDBRANCH   1   3
BRANCH   1  16
ATOM     16  N   UNL     1       3.294   7.033  18.484  0.00  0.00    +0.000 NA
ATOM     17  H   UNL     1       3.867   6.893  19.319  0.00  0.00    +0.000 HD
BRANCH  16  18
ATOM     18  C   UNL     1       3.237   5.765  17.740  0.00  0.00    +0.000 C 
BRANCH  18  19
ATOM     19  C   UNL     1       4.574   5.322  17.137  0.00  0.00    +0.000 A 
ATOM     20  C   UNL     1       4.695   4.156  16.359  0.00  0.00    +0.000 A 
ATOM     21  C   UNL     1       5.899   3.829  15.732  0.00  0.00    +0.000 A 
ATOM     22  C   UNL     1       7.008   4.660  15.873  0.00  0.00    +0.000 A 
ATOM     23  C   UNL     1       6.917   5.806  16.659  0.00  0.00    +0.000 A 
ATOM     24  C   UNL     1       5.711   6.140  17.280  0.00  0.00    +0.000 A 
ENDBRANCH  18  19
BRANCH  18  25
ATOM     25  C   UNL     1       2.623   4.667  18.616  0.00  0.00    +0.000 A 
ATOM     26  C   UNL     1       1.505   3.948  18.165  0.00  0.00    +0.000 A 
ATOM     27  C   UNL     1       0.988   2.880  18.906  0.00  0.00    +0.000 A 
ATOM     28  C   UNL     1       1.579   2.517  20.117  0.00  0.00    +0.000 A 
ATOM     29  C   UNL     1       2.657   3.252  20.610  0.00  0.00    +0.000 A 
ATOM     30  C   UNL     1       3.173   4.318  19.864  0.00  0.00    +0.000 A 
ENDBRANCH  18  25
ENDBRANCH  16  18
ENDBRANCH   1  16
TORSDOF 7
ENDMDL
MODEL 5
REMARK VINA RESULT:      -8.5      0.576      3.540
REMARK  Name = 
REMARK  7 active torsions:
REMARK  status: ('A' for Active; 'I' for Inactive)
REMARK    1  A    between atoms: C_2  and  C_3
REMARK    2  A    between atoms: C_3  and  N_4
REMARK    3  A    between atoms: N_4  and  C_5
REMARK    4  A    between atoms: C_5  and  C_6
REMARK    5  A    between atoms: C_5  and  C_12
REMARK    6  A    between atoms: N_18  and  C_19
REMARK    7  A    between atoms: N_23  and  C_24
REMARK                            x       y       z     vdW  Elec       q    Type
REMARK                         _______ _______ _______ _____ _____    ______ ____
ROOT
ATOM      1  C   UNL     1       1.924   7.654  18.777  0.00  0.00    +0.000 C 
ENDROOT
BRANCH   1   3
ATOM      2  O   UNL     1       2.123   9.528  17.250  0.00  0.00    +0.000 OA
ATOM      3  C   UNL     1       1.739   9.099  18.328  0.00  0.00    +0.000 C 
ATOM      4  N   UNL     1       1.128   9.971  19.303  0.00  0.00    +0.000 N 
ATOM      5  H   UNL     1       0.999   9.615  20.244  0.00  0.00    +0.000 HD
BRANCH   4   6
ATOM      6  C   UNL     1       0.707  11.265  19.007  0.00  0.00    +0.000 A 
ATOM      7  C   UNL     1       1.468  12.416  19.003  0.00  0.00    +0.000 A 
ATOM      8  C   UNL     1       0.586  13.448  18.643  0.00  0.00    +0.000 A 
ATOM      9  N   UNL     1      -0.644  12.998  18.410  0.00  0.00    +0.000 NA
ATOM     10  N   UNL     1      -0.553  11.666  18.610  0.00  0.00    +0.000 N 
BRANCH  10  11
ATOM     11  C   UNL     1      -1.745  10.857  18.461  0.00  0.00    +0.000 C 
ATOM     12  C   UNL     1      -1.791  10.042  17.168  0.00  0.00    +0.000 C 
ATOM     13  C   UNL     1      -3.270   9.757  16.927  0.00  0.00    +0.000 C 
ATOM     14  C   UNL     1      -4.056  10.737  17.793  0.00  0.00    +0.000 C 
ATOM     15  C   UNL     1      -3.032  11.679  18.412  0.00  0.00    +0.000 C 
ENDBRANCH  10  11
ENDBRANCH   4   6
ENDBRANCH   1   3
BRANCH   1  16
ATOM     16  N   UNL     1       3.244   7.074  18.480  0.00  0.00    +0.000 NA
ATOM     17  H   UNL     1       3.820   7.071  19.325  0.00  0.00    +0.000 HD
BRANCH  16  18
ATOM     18  C   UNL     1       3.262   5.722  17.900  0.00  0.00    +0.000 C 
BRANCH  18  19
ATOM     19  C   UNL     1       4.654   5.222  17.497  0.00  0.00    +0.000 A 
ATOM     20  C   UNL     1       4.862   4.430  16.354  0.00  0.00    +0.000 A 
ATOM     21  C   UNL     1       6.150   4.075  15.948  0.00  0.00    +0.000 A 
ATOM     22  C   UNL     1       7.255   4.502  16.679  0.00  0.00    +0.000 A 
ATOM     23  C   UNL     1       7.070   5.266  17.829  0.00  0.00    +0.000 A 
ATOM     24  C   UNL     1       5.782   5.630  18.231  0.00  0.00    +0.000 A 
ENDBRANCH  18  19
BRANCH  18  25
ATOM     25  C   UNL     1       2.558   4.736  18.838  0.00  0.00    +0.000 A 
ATOM     26  C   UNL     1       2.860   4.728  20.208  0.00  0.00    +0.000 A 
ATOM     27  C   UNL     1       2.162   3.902  21.095  0.00  0.00    +0.000 A 
ATOM     28  C   UNL     1       1.153   3.062  20.624  0.00  0.00    +0.000 A 
ATOM     29  C   UNL     1       0.873   3.013  19.257  0.00  0.00    +0.000 A 
ATOM     30  C   UNL     1       1.573   3.844  18.374  0.00  0.00    +0.000 A 
ENDBRANCH  18  25
ENDBRANCH  16  18
ENDBRANCH   1  16
TORSDOF 7
ENDMDL
MODEL 6
REMARK VINA RESULT:      -8.5      1.391      3.727
REMARK  Name = 
REMARK  7 active torsions:
REMARK  status: ('A' for Active; 'I' for Inactive)
REMARK    1  A    between atoms: C_2  and  C_3
REMARK    2  A    between atoms: C_3  and  N_4
REMARK    3  A    between atoms: N_4  and  C_5
REMARK    4  A    between atoms: C_5  and  C_6
REMARK    5  A    between atoms: C_5  and  C_12
REMARK    6  A    between atoms: N_18  and  C_19
REMARK    7  A    between atoms: N_23  and  C_24
REMARK                            x       y       z     vdW  Elec       q    Type
REMARK                         _______ _______ _______ _____ _____    ______ ____
ROOT
ATOM      1  C   UNL     1       2.650   8.507  17.790  0.00  0.00    +0.000 C 
ENDROOT
BRANCH   1   3
ATOM      2  O   UNL     1       2.080  10.851  18.037  0.00  0.00    +0.000 OA
ATOM      3  C   UNL     1       1.872   9.689  18.355  0.00  0.00    +0.000 C 
ATOM      4  N   UNL     1       0.893   9.355  19.362  0.00  0.00    +0.000 N 
ATOM      5  H   UNL     1       0.887   8.407  19.724  0.00  0.00    +0.000 HD
BRANCH   4   6
ATOM      6  C   UNL     1      -0.038  10.269  19.849  0.00  0.00    +0.000 A 
ATOM      7  C   UNL     1      -0.052  10.875  21.088  0.00  0.00    +0.000 A 
ATOM      8  C   UNL     1      -1.187  11.703  21.090  0.00  0.00    +0.000 A 
ATOM      9  N   UNL     1      -1.845  11.653  19.934  0.00  0.00    +0.000 NA
ATOM     10  N   UNL     1      -1.123  10.797  19.178  0.00  0.00    +0.000 N 
BRANCH  10  11
ATOM     11  C   UNL     1      -1.586  10.491  17.841  0.00  0.00    +0.000 C 
ATOM     12  C   UNL     1      -1.957  11.721  17.011  0.00  0.00    +0.000 C 
ATOM     13  C   UNL     1      -2.919  11.208  15.944  0.00  0.00    +0.000 C 
ATOM     14  C   UNL     1      -3.416   9.845  16.415  0.00  0.00    +0.000 C 
ATOM     15  C   UNL     1      -2.859   9.646  17.819  0.00  0.00    +0.000 C 
ENDBRANCH  10  11
ENDBRANCH   4   6
ENDBRANCH   1   3
BRANCH   1  16
ATOM     16  N   UNL     1       2.600   7.282  18.605  0.00  0.00    +0.000 NA
ATOM     17  H   UNL     1       1.646   7.125  18.937  0.00  0.00    +0.000 HD
BRANCH  16  18
ATOM     18  C   UNL     1       3.082   6.043  17.974  0.00  0.00    +0.000 C 
BRANCH  18  19
ATOM     19  C   UNL     1       4.605   5.874  17.991  0.00  0.00    +0.000 A 
ATOM     20  C   UNL     1       5.406   6.197  16.881  0.00  0.00    +0.000 A 
ATOM     21  C   UNL     1       6.799   6.136  16.955  0.00  0.00    +0.000 A 
ATOM     22  C   UNL     1       7.420   5.747  18.139  0.00  0.00    +0.000 A 
ATOM     23  C   UNL     1       6.645   5.398  19.242  0.00  0.00    +0.000 A 
ATOM     24  C   UNL     1       5.251   5.468  19.174  0.00  0.00    +0.000 A 
ENDBRANCH  18  19
BRANCH  18  25
ATOM     25  C   UNL     1       2.374   4.829  18.585  0.00  0.00    +0.000 A 
ATOM     26  C   UNL     1       1.785   4.921  19.855  0.00  0.00    +0.000 A 
ATOM     27  C   UNL     1       1.053   3.855  20.389  0.00  0.00    +0.000 A 
ATOM     28  C   UNL     1       0.904   2.674  19.662  0.00  0.00    +0.000 A 
ATOM     29  C   UNL     1       1.528   2.540  18.421  0.00  0.00    +0.000 A 
ATOM     30  C   UNL     1       2.257   3.611  17.889  0.00  0.00    +0.000 A 
ENDBRANCH  18  25
ENDBRANCH  16  18
ENDBRANCH   1  16
TORSDOF 7
ENDMDL
MODEL 7
REMARK VINA RESULT:      -8.5      1.111      3.425
REMARK  Name = 
REMARK  7 active torsions:
REMARK  status: ('A' for Active; 'I' for Inactive)
REMARK    1  A    between atoms: C_2  and  C_3
REMARK    2  A    between atoms: C_3  and  N_4
REMARK    3  A    between atoms: N_4  and  C_5
REMARK    4  A    between atoms: C_5  and  C_6
REMARK    5  A    between atoms: C_5  and  C_12
REMARK    6  A    between atoms: N_18  and  C_19
REMARK    7  A    between atoms: N_23  and  C_24
REMARK                            x       y       z     vdW  Elec       q    Type
REMARK                         _______ _______ _______ _____ _____    ______ ____
ROOT
ATOM      1  C   UNL     1       2.352   8.384  17.958  0.00  0.00    +0.000 C 
ENDROOT
BRANCH   1   3
ATOM      2  O   UNL     1       1.052   9.161  19.852  0.00  0.00    +0.000 OA
ATOM      3  C   UNL     1       1.479   9.369  18.725  0.00  0.00    +0.000 C 
ATOM      4  N   UNL     1       1.119  10.565  18.001  0.00  0.00    +0.000 N 
ATOM      5  H   UNL     1       1.341  10.606  17.011  0.00  0.00    +0.000 HD
BRANCH   4   6
ATOM      6  C   UNL     1       0.493  11.656  18.598  0.00  0.00    +0.000 A 
ATOM      7  C   UNL     1       1.084  12.810  19.069  0.00  0.00    +0.000 A 
ATOM      8  C   UNL     1       0.032  13.592  19.575  0.00  0.00    +0.000 A 
ATOM      9  N   UNL     1      -1.150  13.000  19.423  0.00  0.00    +0.000 NA
ATOM     10  N   UNL     1      -0.860  11.835  18.805  0.00  0.00    +0.000 N 
BRANCH  10  11
ATOM     11  C   UNL     1      -1.941  10.917  18.508  0.00  0.00    +0.000 C 
ATOM     12  C   UNL     1      -1.861  10.286  17.117  0.00  0.00    +0.000 C 
ATOM     13  C   UNL     1      -3.289   9.862  16.788  0.00  0.00    +0.000 C 
ATOM     14  C   UNL     1      -4.206  10.614  17.748  0.00  0.00    +0.000 C 
ATOM     15  C   UNL     1      -3.318  11.579  18.522  0.00  0.00    +0.000 C 
ENDBRANCH  10  11
ENDBRANCH   4   6
ENDBRANCH   1   3
BRANCH   1  16
ATOM     16  N   UNL     1       2.639   7.125  18.664  0.00  0.00    +0.000 NA
ATOM     17  H   UNL     1       1.782   6.759  19.083  0.00  0.00    +0.000 HD
BRANCH  16  18
ATOM     18  C   UNL     1       3.268   6.051  17.879  0.00  0.00    +0.000 C 
BRANCH  18  19
ATOM     19  C   UNL     1       4.794   5.980  18.008  0.00  0.00    +0.000 A 
ATOM     20  C   UNL     1       5.653   6.568  17.062  0.00  0.00    +0.000 A 
ATOM     21  C   UNL     1       7.036   6.583  17.256  0.00  0.00    +0.000 A 
ATOM     22  C   UNL     1       7.588   6.009  18.398  0.00  0.00    +0.000 A 
ATOM     23  C   UNL     1       6.757   5.399  19.335  0.00  0.00    +0.000 A 
ATOM     24  C   UNL     1       5.372   5.391  19.148  0.00  0.00    +0.000 A 
ENDBRANCH  18  19
BRANCH  18  25
ATOM     25  C   UNL     1       2.613   4.704  18.205  0.00  0.00    +0.000 A 
ATOM     26  C   UNL     1       2.871   3.581  17.405  0.00  0.00    +0.000 A 
ATOM     27  C   UNL     1       2.359   2.324  17.740  0.00  0.00    +0.000 A 
ATOM     28  C   UNL     1       1.571   2.170  18.881  0.00  0.00    +0.000 A 
ATOM     29  C   UNL     1       1.256   3.283  19.661  0.00  0.00    +0.000 A 
ATOM     30  C   UNL     1       1.773   4.539  19.323  0.00  0.00    +0.000 A 
ENDBRANCH  18  25
ENDBRANCH  16  18
ENDBRANCH   1  16
TORSDOF 7
ENDMDL
MODEL 8
REMARK VINA RESULT:      -8.5      0.947      3.586
REMARK  Name = 
REMARK  7 active torsions:
REMARK  status: ('A' for Active; 'I' for Inactive)
REMARK    1  A    between atoms: C_2  and  C_3
REMARK    2  A    between atoms: C_3  and  N_4
REMARK    3  A    between atoms: N_4  and  C_5
REMARK    4  A    between atoms: C_5  and  C_6
REMARK    5  A    between atoms: C_5  and  C_12
REMARK    6  A    between atoms: N_18  and  C_19
REMARK    7  A    between atoms: N_23  and  C_24
REMARK                            x       y       z     vdW  Elec       q    Type
REMARK                         _______ _______ _______ _____ _____    ______ ____
ROOT
ATOM      1  C   UNL     1       2.346   8.309  17.658  0.00  0.00    +0.000 C 
ENDROOT
BRANCH   1   3
ATOM      2  O   UNL     1       1.246   8.882  19.743  0.00  0.00    +0.000 OA
ATOM      3  C   UNL     1       1.560   9.206  18.607  0.00  0.00    +0.000 C 
ATOM      4  N   UNL     1       1.138  10.469  18.048  0.00  0.00    +0.000 N 
ATOM      5  H   UNL     1       1.259  10.613  17.051  0.00  0.00    +0.000 HD
BRANCH   4   6
ATOM      6  C   UNL     1       0.582  11.490  18.814  0.00  0.00    +0.000 A 
ATOM      7  C   UNL     1       1.209  12.259  19.774  0.00  0.00    +0.000 A 
ATOM      8  C   UNL     1       0.225  13.141  20.251  0.00  0.00    +0.000 A 
ATOM      9  N   UNL     1      -0.941  12.971  19.635  0.00  0.00    +0.000 NA
ATOM     10  N   UNL     1      -0.706  11.983  18.745  0.00  0.00    +0.000 N 
BRANCH  10  11
ATOM     11  C   UNL     1      -1.797  11.525  17.910  0.00  0.00    +0.000 C 
ATOM     12  C   UNL     1      -3.186  11.805  18.486  0.00  0.00    +0.000 C 
ATOM     13  C   UNL     1      -4.108  10.791  17.817  0.00  0.00    +0.000 C 
ATOM     14  C   UNL     1      -3.216   9.702  17.229  0.00  0.00    +0.000 C 
ATOM     15  C   UNL     1      -1.799  10.012  17.691  0.00  0.00    +0.000 C 
ENDBRANCH  10  11
ENDBRANCH   4   6
ENDBRANCH   1   3
BRANCH   1  16
ATOM     16  N   UNL     1       3.195   7.301  18.314  0.00  0.00    +0.000 NA
ATOM     17  H   UNL     1       2.922   7.202  19.294  0.00  0.00    +0.000 HD
BRANCH  16  18
ATOM     18  C   UNL     1       3.230   5.962  17.704  0.00  0.00    +0.000 C 
BRANCH  18  19
ATOM     19  C   UNL     1       4.640   5.397  17.497  0.00  0.00    +0.000 A 
ATOM     20  C   UNL     1       5.034   4.798  16.287  0.00  0.00    +0.000 A 
ATOM     21  C   UNL     1       6.353   4.386  16.083  0.00  0.00    +0.000 A 
ATOM     22  C   UNL     1       7.303   4.562  17.086  0.00  0.00    +0.000 A 
ATOM     23  C   UNL     1       6.927   5.130  18.301  0.00  0.00    +0.000 A 
ATOM     24  C   UNL     1       5.610   5.552  18.504  0.00  0.00    +0.000 A 
ENDBRANCH  18  19
BRANCH  18  25
ATOM     25  C   UNL     1       2.347   4.995  18.500  0.00  0.00    +0.000 A 
ATOM     26  C   UNL     1       1.836   3.841  17.889  0.00  0.00    +0.000 A 
ATOM     27  C   UNL     1       1.107   2.899  18.623  0.00  0.00    +0.000 A 
ATOM     28  C   UNL     1       0.872   3.101  19.983  0.00  0.00    +0.000 A 
ATOM     29  C   UNL     1       1.324   4.268  20.599  0.00  0.00    +0.000 A 
ATOM     30  C   UNL     1       2.055   5.207  19.861  0.00  0.00    +0.000 A 
ENDBRANCH  18  25
ENDBRANCH  16  18
ENDBRANCH   1  16
TORSDOF 7
ENDMDL
MODEL 9
REMARK VINA RESULT:      -8.4      1.233      3.566
REMARK  Name = 
REMARK  7 active torsions:
REMARK  status: ('A' for Active; 'I' for Inactive)
REMARK    1  A    between atoms: C_2  and  C_3
REMARK    2  A    between atoms: C_3  and  N_4
REMARK    3  A    between atoms: N_4  and  C_5
REMARK    4  A    between atoms: C_5  and  C_6
REMARK    5  A    between atoms: C_5  and  C_12
REMARK    6  A    between atoms: N_18  and  C_19
REMARK    7  A    between atoms: N_23  and  C_24
REMARK                            x       y       z     vdW  Elec       q    Type
REMARK                         _______ _______ _______ _____ _____    ______ ____
ROOT
ATOM      1  C   UNL     1       2.452   8.569  17.738  0.00  0.00    +0.000 C 
ENDROOT
BRANCH   1   3
ATOM      2  O   UNL     1       2.234  10.963  18.062  0.00  0.00    +0.000 OA
ATOM      3  C   UNL     1       1.865   9.834  18.352  0.00  0.00    +0.000 C 
ATOM      4  N   UNL     1       0.866   9.614  19.371  0.00  0.00    +0.000 N 
ATOM      5  H   UNL     1       0.729   8.667  19.707  0.00  0.00    +0.000 HD
BRANCH   4   6
ATOM      6  C   UNL     1       0.087  10.638  19.904  0.00  0.00    +0.000 A 
ATOM      7  C   UNL     1       0.446  11.550  20.875  0.00  0.00    +0.000 A 
ATOM      8  C   UNL     1      -0.682  12.366  21.062  0.00  0.00    +0.000 A 
ATOM      9  N   UNL     1      -1.686  12.023  20.260  0.00  0.00    +0.000 NA
ATOM     10  N   UNL     1      -1.199  10.988  19.542  0.00  0.00    +0.000 N 
BRANCH  10  11
ATOM     11  C   UNL     1      -2.062  10.347  18.571  0.00  0.00    +0.000 C 
ATOM     12  C   UNL     1      -1.408  10.121  17.207  0.00  0.00    +0.000 C 
ATOM     13  C   UNL     1      -2.567  10.007  16.222  0.00  0.00    +0.000 C 
ATOM     14  C   UNL     1      -3.797  10.583  16.918  0.00  0.00    +0.000 C 
ATOM     15  C   UNL     1      -3.310  11.164  18.239  0.00  0.00    +0.000 C 
ENDBRANCH  10  11
ENDBRANCH   4   6
ENDBRANCH   1   3
BRANCH   1  16
ATOM     16  N   UNL     1       2.443   7.388  18.616  0.00  0.00    +0.000 NA
ATOM     17  H   UNL     1       1.508   7.249  19.003  0.00  0.00    +0.000 HD
BRANCH  16  18
ATOM     18  C   UNL     1       2.896   6.117  18.027  0.00  0.00    +0.000 C 
BRANCH  18  19
ATOM     19  C   UNL     1       4.416   5.919  18.039  0.00  0.00    +0.000 A 
ATOM     20  C   UNL     1       5.231   6.322  16.966  0.00  0.00    +0.000 A 
ATOM     21  C   UNL     1       6.622   6.228  17.043  0.00  0.00    +0.000 A 
ATOM     22  C   UNL     1       7.226   5.726  18.192  0.00  0.00    +0.000 A 
ATOM     23  C   UNL     1       6.436   5.297  19.256  0.00  0.00    +0.000 A 
ATOM     24  C   UNL     1       5.044   5.399  19.186  0.00  0.00    +0.000 A 
ENDBRANCH  18  19
BRANCH  18  25
ATOM     25  C   UNL     1       2.169   4.941  18.688  0.00  0.00    +0.000 A 
ATOM     26  C   UNL     1       1.924   3.765  17.961  0.00  0.00    +0.000 A 
ATOM     27  C   UNL     1       1.347   2.647  18.572  0.00  0.00    +0.000 A 
ATOM     28  C   UNL     1       0.999   2.689  19.922  0.00  0.00    +0.000 A 
ATOM     29  C   UNL     1       1.184   3.865  20.650  0.00  0.00    +0.000 A 
ATOM     30  C   UNL     1       1.764   4.981  20.035  0.00  0.00    +0.000 A 
ENDBRANCH  18  25
ENDBRANCH  16  18
ENDBRANCH   1  16
TORSDOF 7
ENDMDL
