MODEL 1
REMARK VINA RESULT:      -8.4      0.000      0.000
REMARK  Name = 
REMARK  6 active torsions:
REMARK  status: ('A' for Active; 'I' for Inactive)
REMARK    1  A    between atoms: C_1  and  C_2
REMARK    2  A    between atoms: C_2  and  C_3
REMARK    3  A    between atoms: C_5  and  N_6
REMARK    4  A    between atoms: C_7  and  C_9
REMARK    5  A    between atoms: C_9  and  C_10
REMARK    6  A    between atoms: N_13  and  C_14
REMARK                            x       y       z     vdW  Elec       q    Type
REMARK                         _______ _______ _______ _____ _____    ______ ____
ROOT
ATOM      1  N   UNL     1       4.405   4.132  17.021  0.00  0.00    +0.000 N 
ATOM      2  C   UNL     1       3.532   3.158  17.450  0.00  0.00    +0.000 C 
ATOM      3  O   UNL     1       3.877   1.996  17.647  0.00  0.00    +0.000 OA
ATOM      4  H   UNL     1       4.063   5.067  16.825  0.00  0.00    +0.000 HD
ENDROOT
BRANCH   1   9
ATOM      5  C   UNL     1       7.829   6.840  18.253  0.00  0.00    +0.000 C 
ATOM      6  C   UNL     1       6.884   6.121  17.277  0.00  0.00    +0.000 C 
ATOM      7  C   UNL     1       5.583   6.938  17.195  0.00  0.00    +0.000 C 
ATOM      8  C   UNL     1       6.707   4.678  17.767  0.00  0.00    +0.000 C 
ATOM      9  C   UNL     1       5.822   3.865  16.820  0.00  0.00    +0.000 C 
ATOM     10  C   UNL     1       6.228   4.140  15.390  0.00  0.00    +0.000 A 
ATOM     11  C   UNL     1       5.790   3.295  14.357  0.00  0.00    +0.000 A 
ATOM     12  C   UNL     1       6.190   3.524  13.040  0.00  0.00    +0.000 A 
ATOM     13  C   UNL     1       7.031   4.595  12.754  0.00  0.00    +0.000 A 
ATOM     14  F   UNL     1       7.422   4.807  11.492  0.00  0.00    +0.000 F 
ATOM     15  C   UNL     1       7.468   5.447  13.758  0.00  0.00    +0.000 A 
ATOM     16  C   UNL     1       7.055   5.231  15.073  0.00  0.00    +0.000 A 
ATOM     17  O   UNL     1       7.525   6.134  15.989  0.00  0.00    +0.000 OA
ENDBRANCH   1   9
BRANCH   2  18
ATOM     18  C   UNL     1       2.124   3.644  17.728  0.00  0.00    +0.000 C 
BRANCH  18  19
ATOM     19  C   UNL     1       2.128   4.854  18.582  0.00  0.00    +0.000 A 
ATOM     20  C   UNL     1       2.534   5.001  19.919  0.00  0.00    +0.000 A 
ATOM     21  N   UNL     1       2.452   6.280  20.286  0.00  0.00    +0.000 NA
ATOM     22  N   UNL     1       1.988   6.878  19.155  0.00  0.00    +0.000 N 
ATOM     23  N   UNL     1       1.749   6.046  18.100  0.00  0.00    +0.000 NA
BRANCH  22  24
ATOM     24  C   UNL     1       1.813   8.281  19.061  0.00  0.00    +0.000 A 
ATOM     25  C   UNL     1       2.288   8.971  17.937  0.00  0.00    +0.000 A 
ATOM     26  C   UNL     1       2.082  10.347  17.829  0.00  0.00    +0.000 A 
ATOM     27  C   UNL     1       1.419  11.037  18.845  0.00  0.00    +0.000 A 
ATOM     28  C   UNL     1       0.956  10.355  19.969  0.00  0.00    +0.000 A 
ATOM     29  C   UNL     1       1.147   8.977  20.080  0.00  0.00    +0.000 A 
ENDBRANCH  22  24
ENDBRANCH  18  19
ENDBRANCH   2  18
TORSDOF 4
ENDMDL
MODEL 2
REMARK VINA RESULT:      -8.3      3.646      5.682
REMARK  Name = 
REMARK  6 active torsions:
REMARK  status: ('A' for Active; 'I' for Inactive)
REMARK    1  A    between atoms: C_1  and  C_2
REMARK    2  A    between atoms: C_2  and  C_3
REMARK    3  A    between atoms: C_5  and  N_6
REMARK    4  A    between atoms: C_7  and  C_9
REMARK    5  A    between atoms: C_9  and  C_10
REMARK    6  A    between atoms: N_13  and  C_14
REMARK                            x       y       z     vdW  Elec       q    Type
REMARK                         _______ _______ _______ _____ _____    ______ ____
ROOT
ATOM      1  N   UNL     1       2.242   7.117  18.866  0.00  0.00    +0.000 N 
ATOM      2  C   UNL     1       1.980   8.428  18.538  0.00  0.00    +0.000 C 
ATOM      3  O   UNL     1       2.054   8.853  17.389  0.00  0.00    +0.000 OA
ATOM      4  H   UNL     1       2.216   6.823  19.837  0.00  0.00    +0.000 HD
ENDROOT
BRANCH   1   9
ATOM      5  C   UNL     1       1.334   2.679  19.103  0.00  0.00    +0.000 C 
ATOM      6  C   UNL     1       2.218   3.936  19.094  0.00  0.00    +0.000 C 
ATOM      7  C   UNL     1       2.178   4.548  20.506  0.00  0.00    +0.000 C 
ATOM      8  C   UNL     1       1.714   4.861  17.979  0.00  0.00    +0.000 C 
ATOM      9  C   UNL     1       2.575   6.120  17.858  0.00  0.00    +0.000 C 
ATOM     10  C   UNL     1       4.036   5.741  17.932  0.00  0.00    +0.000 A 
ATOM     11  C   UNL     1       5.024   6.658  17.537  0.00  0.00    +0.000 A 
ATOM     12  C   UNL     1       6.372   6.301  17.570  0.00  0.00    +0.000 A 
ATOM     13  C   UNL     1       6.735   5.027  17.994  0.00  0.00    +0.000 A 
ATOM     14  F   UNL     1       8.029   4.683  18.015  0.00  0.00    +0.000 F 
ATOM     15  C   UNL     1       5.776   4.108  18.396  0.00  0.00    +0.000 A 
ATOM     16  C   UNL     1       4.428   4.469  18.382  0.00  0.00    +0.000 A 
ATOM     17  O   UNL     1       3.560   3.501  18.812  0.00  0.00    +0.000 OA
ENDBRANCH   1   9
BRANCH   2  18
ATOM     18  C   UNL     1       1.527   9.294  19.696  0.00  0.00    +0.000 C 
BRANCH  18  19
ATOM     19  C   UNL     1       0.582  10.343  19.250  0.00  0.00    +0.000 A 
ATOM     20  C   UNL     1       0.818  11.705  18.995  0.00  0.00    +0.000 A 
ATOM     21  N   UNL     1      -0.290  12.283  18.531  0.00  0.00    +0.000 NA
ATOM     22  N   UNL     1      -1.177  11.250  18.523  0.00  0.00    +0.000 N 
ATOM     23  N   UNL     1      -0.698  10.056  18.980  0.00  0.00    +0.000 NA
BRANCH  22  24
ATOM     24  C   UNL     1      -2.496  11.391  18.026  0.00  0.00    +0.000 A 
ATOM     25  C   UNL     1      -2.777  11.077  16.690  0.00  0.00    +0.000 A 
ATOM     26  C   UNL     1      -4.083  11.182  16.212  0.00  0.00    +0.000 A 
ATOM     27  C   UNL     1      -5.106  11.613  17.059  0.00  0.00    +0.000 A 
ATOM     28  C   UNL     1      -4.827  11.936  18.385  0.00  0.00    +0.000 A 
ATOM     29  C   UNL     1      -3.525  11.823  18.875  0.00  0.00    +0.000 A 
ENDBRANCH  22  24
ENDBRANCH  18  19
ENDBRANCH   2  18
TORSDOF 4
ENDMDL
MODEL 3
REMARK VINA RESULT:      -8.1      3.925      5.732
REMARK  Name = 
REMARK  6 active torsions:
REMARK  status: ('A' for Active; 'I' for Inactive)
REMARK    1  A    between atoms: C_1  and  C_2
REMARK    2  A    between atoms: C_2  and  C_3
REMARK    3  A    between atoms: C_5  and  N_6
REMARK    4  A    between atoms: C_7  and  C_9
REMARK    5  A    between atoms: C_9  and  C_10
REMARK    6  A    between atoms: N_13  and  C_14
REMARK                            x       y       z     vdW  Elec       q    Type
REMARK                         _______ _______ _______ _____ _____    ______ ____
ROOT
ATOM      1  N   UNL     1       3.151   6.990  18.346  0.00  0.00    +0.000 N 
ATOM      2  C   UNL     1       2.317   7.977  18.820  0.00  0.00    +0.000 C 
ATOM      3  O   UNL     1       1.900   7.998  19.974  0.00  0.00    +0.000 OA
ATOM      4  H   UNL     1       3.430   6.988  17.370  0.00  0.00    +0.000 HD
ENDROOT
BRANCH   1   9
ATOM      5  C   UNL     1       6.847   4.469  17.594  0.00  0.00    +0.000 C 
ATOM      6  C   UNL     1       5.342   4.760  17.718  0.00  0.00    +0.000 C 
ATOM      7  C   UNL     1       4.878   5.403  16.399  0.00  0.00    +0.000 C 
ATOM      8  C   UNL     1       5.129   5.627  18.965  0.00  0.00    +0.000 C 
ATOM      9  C   UNL     1       3.646   5.921  19.202  0.00  0.00    +0.000 C 
ATOM     10  C   UNL     1       2.845   4.655  19.007  0.00  0.00    +0.000 A 
ATOM     11  C   UNL     1       1.518   4.582  19.465  0.00  0.00    +0.000 A 
ATOM     12  C   UNL     1       0.784   3.405  19.320  0.00  0.00    +0.000 A 
ATOM     13  C   UNL     1       1.375   2.297  18.719  0.00  0.00    +0.000 A 
ATOM     14  F   UNL     1       0.673   1.165  18.590  0.00  0.00    +0.000 F 
ATOM     15  C   UNL     1       2.681   2.350  18.253  0.00  0.00    +0.000 A 
ATOM     16  C   UNL     1       3.411   3.532  18.380  0.00  0.00    +0.000 A 
ATOM     17  O   UNL     1       4.683   3.491  17.875  0.00  0.00    +0.000 OA
ENDBRANCH   1   9
BRANCH   2  18
ATOM     18  C   UNL     1       2.005   9.077  17.824  0.00  0.00    +0.000 C 
BRANCH  18  19
ATOM     19  C   UNL     1       0.870   9.913  18.279  0.00  0.00    +0.000 A 
ATOM     20  C   UNL     1       0.843  10.925  19.253  0.00  0.00    +0.000 A 
ATOM     21  N   UNL     1      -0.366  11.486  19.297  0.00  0.00    +0.000 NA
ATOM     22  N   UNL     1      -1.046  10.789  18.347  0.00  0.00    +0.000 N 
ATOM     23  N   UNL     1      -0.342   9.802  17.720  0.00  0.00    +0.000 NA
BRANCH  22  24
ATOM     24  C   UNL     1      -2.382  11.101  17.993  0.00  0.00    +0.000 A 
ATOM     25  C   UNL     1      -2.861  10.778  16.716  0.00  0.00    +0.000 A 
ATOM     26  C   UNL     1      -4.187  11.053  16.382  0.00  0.00    +0.000 A 
ATOM     27  C   UNL     1      -5.032  11.662  17.313  0.00  0.00    +0.000 A 
ATOM     28  C   UNL     1      -4.555  11.993  18.579  0.00  0.00    +0.000 A 
ATOM     29  C   UNL     1      -3.233  11.711  18.926  0.00  0.00    +0.000 A 
ENDBRANCH  22  24
ENDBRANCH  18  19
ENDBRANCH   2  18
TORSDOF 4
ENDMDL
MODEL 4
REMARK VINA RESULT:      -8.0      3.839      5.806
REMARK  Name = 
REMARK  6 active torsions:
REMARK  status: ('A' for Active; 'I' for Inactive)
REMARK    1  A    between atoms: C_1  and  C_2
REMARK    2  A    between atoms: C_2  and  C_3
REMARK    3  A    between atoms: C_5  and  N_6
REMARK    4  A    between atoms: C_7  and  C_9
REMARK    5  A    between atoms: C_9  and  C_10
REMARK    6  A    between atoms: N_13  and  C_14
REMARK                            x       y       z     vdW  Elec       q    Type
REMARK                         _______ _______ _______ _____ _____    ______ ____
ROOT
ATOM      1  N   UNL     1       3.074   6.963  18.361  0.00  0.00    +0.000 N 
ATOM      2  C   UNL     1       2.272   7.982  18.824  0.00  0.00    +0.000 C 
ATOM      3  O   UNL     1       1.886   8.047  19.988  0.00  0.00    +0.000 OA
ATOM      4  H   UNL     1       3.327   6.925  17.378  0.00  0.00    +0.000 HD
ENDROOT
BRANCH   1   9
ATOM      5  C   UNL     1       6.791   4.455  17.674  0.00  0.00    +0.000 C 
ATOM      6  C   UNL     1       5.284   4.738  17.783  0.00  0.00    +0.000 C 
ATOM      7  C   UNL     1       4.824   5.356  16.451  0.00  0.00    +0.000 C 
ATOM      8  C   UNL     1       5.057   5.624  19.014  0.00  0.00    +0.000 C 
ATOM      9  C   UNL     1       3.571   5.912  19.237  0.00  0.00    +0.000 C 
ATOM     10  C   UNL     1       2.778   4.638  19.058  0.00  0.00    +0.000 A 
ATOM     11  C   UNL     1       1.450   4.563  19.509  0.00  0.00    +0.000 A 
ATOM     12  C   UNL     1       0.724   3.379  19.378  0.00  0.00    +0.000 A 
ATOM     13  C   UNL     1       1.327   2.266  18.800  0.00  0.00    +0.000 A 
ATOM     14  F   UNL     1       0.633   1.127  18.685  0.00  0.00    +0.000 F 
ATOM     15  C   UNL     1       2.635   2.320  18.341  0.00  0.00    +0.000 A 
ATOM     16  C   UNL     1       3.356   3.509  18.454  0.00  0.00    +0.000 A 
ATOM     17  O   UNL     1       4.631   3.467  17.957  0.00  0.00    +0.000 OA
ENDBRANCH   1   9
BRANCH   2  18
ATOM     18  C   UNL     1       1.956   9.056  17.802  0.00  0.00    +0.000 C 
BRANCH  18  19
ATOM     19  C   UNL     1       1.012  10.059  18.346  0.00  0.00    +0.000 A 
ATOM     20  C   UNL     1       1.279  11.288  18.972  0.00  0.00    +0.000 A 
ATOM     21  N   UNL     1       0.139  11.925  19.239  0.00  0.00    +0.000 NA
ATOM     22  N   UNL     1      -0.797  11.057  18.769  0.00  0.00    +0.000 N 
ATOM     23  N   UNL     1      -0.314   9.893  18.243  0.00  0.00    +0.000 NA
BRANCH  22  24
ATOM     24  C   UNL     1      -2.181  11.360  18.779  0.00  0.00    +0.000 A 
ATOM     25  C   UNL     1      -2.703  12.216  19.759  0.00  0.00    +0.000 A 
ATOM     26  C   UNL     1      -4.059  12.542  19.745  0.00  0.00    +0.000 A 
ATOM     27  C   UNL     1      -4.898  12.007  18.766  0.00  0.00    +0.000 A 
ATOM     28  C   UNL     1      -4.383  11.148  17.797  0.00  0.00    +0.000 A 
ATOM     29  C   UNL     1      -3.026  10.825  17.796  0.00  0.00    +0.000 A 
ENDBRANCH  22  24
ENDBRANCH  18  19
ENDBRANCH   2  18
TORSDOF 4
ENDMDL
MODEL 5
REMARK VINA RESULT:      -7.7      2.303      3.088
REMARK  Name = 
REMARK  6 active torsions:
REMARK  status: ('A' for Active; 'I' for Inactive)
REMARK    1  A    between atoms: C_1  and  C_2
REMARK    2  A    between atoms: C_2  and  C_3
REMARK    3  A    between atoms: C_5  and  N_6
REMARK    4  A    between atoms: C_7  and  C_9
REMARK    5  A    between atoms: C_9  and  C_10
REMARK    6  A    between atoms: N_13  and  C_14
REMARK                            x       y       z     vdW  Elec       q    Type
REMARK                         _______ _______ _______ _____ _____    ______ ____
ROOT
ATOM      1  N   UNL     1       4.284   6.571  17.797  0.00  0.00    +0.000 N 
ATOM      2  C   UNL     1       2.920   6.731  17.881  0.00  0.00    +0.000 C 
ATOM      3  O   UNL     1       2.142   5.784  17.944  0.00  0.00    +0.000 OA
ATOM      4  H   UNL     1       4.885   7.383  17.697  0.00  0.00    +0.000 HD
ENDROOT
BRANCH   1   9
ATOM      5  C   UNL     1       8.409   5.627  19.433  0.00  0.00    +0.000 C 
ATOM      6  C   UNL     1       7.330   5.807  18.353  0.00  0.00    +0.000 C 
ATOM      7  C   UNL     1       7.233   7.308  18.032  0.00  0.00    +0.000 C 
ATOM      8  C   UNL     1       6.032   5.175  18.871  0.00  0.00    +0.000 C 
ATOM      9  C   UNL     1       4.911   5.257  17.832  0.00  0.00    +0.000 C 
ATOM     10  C   UNL     1       5.454   4.878  16.474  0.00  0.00    +0.000 A 
ATOM     11  C   UNL     1       4.574   4.572  15.422  0.00  0.00    +0.000 A 
ATOM     12  C   UNL     1       5.070   4.188  14.176  0.00  0.00    +0.000 A 
ATOM     13  C   UNL     1       6.445   4.106  13.979  0.00  0.00    +0.000 A 
ATOM     14  F   UNL     1       6.918   3.727  12.786  0.00  0.00    +0.000 F 
ATOM     15  C   UNL     1       7.331   4.411  15.002  0.00  0.00    +0.000 A 
ATOM     16  C   UNL     1       6.839   4.813  16.244  0.00  0.00    +0.000 A 
ATOM     17  O   UNL     1       7.791   5.109  17.182  0.00  0.00    +0.000 OA
ENDBRANCH   1   9
BRANCH   2  18
ATOM     18  C   UNL     1       2.454   8.171  17.957  0.00  0.00    +0.000 C 
BRANCH  18  19
ATOM     19  C   UNL     1       1.729   8.439  19.221  0.00  0.00    +0.000 A 
ATOM     20  C   UNL     1       1.827   7.786  20.461  0.00  0.00    +0.000 A 
ATOM     21  N   UNL     1       1.058   8.396  21.363  0.00  0.00    +0.000 NA
ATOM     22  N   UNL     1       0.505   9.406  20.639  0.00  0.00    +0.000 N 
ATOM     23  N   UNL     1       0.862   9.456  19.323  0.00  0.00    +0.000 NA
BRANCH  22  24
ATOM     24  C   UNL     1      -0.347  10.376  21.224  0.00  0.00    +0.000 A 
ATOM     25  C   UNL     1      -0.964  11.343  20.418  0.00  0.00    +0.000 A 
ATOM     26  C   UNL     1      -1.830  12.273  20.991  0.00  0.00    +0.000 A 
ATOM     27  C   UNL     1      -2.071  12.252  22.366  0.00  0.00    +0.000 A 
ATOM     28  C   UNL     1      -1.450  11.299  23.171  0.00  0.00    +0.000 A 
ATOM     29  C   UNL     1      -0.591  10.356  22.605  0.00  0.00    +0.000 A 
ENDBRANCH  22  24
ENDBRANCH  18  19
ENDBRANCH   2  18
TORSDOF 4
ENDMDL
MODEL 6
REMARK VINA RESULT:      -7.6      3.331      5.620
REMARK  Name = 
REMARK  6 active torsions:
REMARK  status: ('A' for Active; 'I' for Inactive)
REMARK    1  A    between atoms: C_1  and  C_2
REMARK    2  A    between atoms: C_2  and  C_3
REMARK    3  A    between atoms: C_5  and  N_6
REMARK    4  A    between atoms: C_7  and  C_9
REMARK    5  A    between atoms: C_9  and  C_10
REMARK    6  A    between atoms: N_13  and  C_14
REMARK                            x       y       z     vdW  Elec       q    Type
REMARK                         _______ _______ _______ _____ _____    ______ ____
ROOT
ATOM      1  N   UNL     1       2.213   6.951  18.832  0.00  0.00    +0.000 N 
ATOM      2  C   UNL     1       1.997   8.275  18.527  0.00  0.00    +0.000 C 
ATOM      3  O   UNL     1       2.156   8.732  17.398  0.00  0.00    +0.000 OA
ATOM      4  H   UNL     1       2.116   6.629  19.790  0.00  0.00    +0.000 HD
ENDROOT
BRANCH   1   9
ATOM      5  C   UNL     1       1.416   2.487  18.990  0.00  0.00    +0.000 C 
ATOM      6  C   UNL     1       2.267   3.767  19.018  0.00  0.00    +0.000 C 
ATOM      7  C   UNL     1       2.179   4.358  20.436  0.00  0.00    +0.000 C 
ATOM      8  C   UNL     1       1.764   4.694  17.904  0.00  0.00    +0.000 C 
ATOM      9  C   UNL     1       2.594   5.977  17.819  0.00  0.00    +0.000 C 
ATOM     10  C   UNL     1       4.062   5.634  17.921  0.00  0.00    +0.000 A 
ATOM     11  C   UNL     1       5.035   6.582  17.561  0.00  0.00    +0.000 A 
ATOM     12  C   UNL     1       6.391   6.260  17.621  0.00  0.00    +0.000 A 
ATOM     13  C   UNL     1       6.778   4.990  18.037  0.00  0.00    +0.000 A 
ATOM     14  F   UNL     1       8.079   4.679  18.083  0.00  0.00    +0.000 F 
ATOM     15  C   UNL     1       5.834   4.041  18.405  0.00  0.00    +0.000 A 
ATOM     16  C   UNL     1       4.478   4.367  18.364  0.00  0.00    +0.000 A 
ATOM     17  O   UNL     1       3.626   3.372  18.762  0.00  0.00    +0.000 OA
ENDBRANCH   1   9
BRANCH   2  18
ATOM     18  C   UNL     1       1.483   9.117  19.677  0.00  0.00    +0.000 C 
BRANCH  18  19
ATOM     19  C   UNL     1       0.845  10.363  19.194  0.00  0.00    +0.000 A 
ATOM     20  C   UNL     1      -0.473  10.579  18.757  0.00  0.00    +0.000 A 
ATOM     21  N   UNL     1      -0.660  11.870  18.485  0.00  0.00    +0.000 NA
ATOM     22  N   UNL     1       0.560  12.406  18.760  0.00  0.00    +0.000 N 
ATOM     23  N   UNL     1       1.517  11.522  19.167  0.00  0.00    +0.000 NA
BRANCH  22  24
ATOM     24  C   UNL     1       0.809  13.799  18.678  0.00  0.00    +0.000 A 
ATOM     25  C   UNL     1      -0.252  14.707  18.798  0.00  0.00    +0.000 A 
ATOM     26  C   UNL     1      -0.001  16.078  18.753  0.00  0.00    +0.000 A 
ATOM     27  C   UNL     1       1.303  16.545  18.574  0.00  0.00    +0.000 A 
ATOM     28  C   UNL     1       2.358  15.644  18.443  0.00  0.00    +0.000 A 
ATOM     29  C   UNL     1       2.117  14.271  18.499  0.00  0.00    +0.000 A 
ENDBRANCH  22  24
ENDBRANCH  18  19
ENDBRANCH   2  18
TORSDOF 4
ENDMDL
MODEL 7
REMARK VINA RESULT:      -7.6      1.147      1.714
REMARK  Name = 
REMARK  6 active torsions:
REMARK  status: ('A' for Active; 'I' for Inactive)
REMARK    1  A    between atoms: C_1  and  C_2
REMARK    2  A    between atoms: C_2  and  C_3
REMARK    3  A    between atoms: C_5  and  N_6
REMARK    4  A    between atoms: C_7  and  C_9
REMARK    5  A    between atoms: C_9  and  C_10
REMARK    6  A    between atoms: N_13  and  C_14
REMARK                            x       y       z     vdW  Elec       q    Type
REMARK                         _______ _______ _______ _____ _____    ______ ____
ROOT
ATOM      1  N   UNL     1       4.422   4.313  17.053  0.00  0.00    +0.000 N 
ATOM      2  C   UNL     1       3.792   4.158  18.267  0.00  0.00    +0.000 C 
ATOM      3  O   UNL     1       4.358   3.702  19.257  0.00  0.00    +0.000 OA
ATOM      4  H   UNL     1       3.899   4.649  16.251  0.00  0.00    +0.000 HD
ENDROOT
BRANCH   1   9
ATOM      5  C   UNL     1       7.924   6.956  18.208  0.00  0.00    +0.000 C 
ATOM      6  C   UNL     1       6.961   6.233  17.253  0.00  0.00    +0.000 C 
ATOM      7  C   UNL     1       5.687   7.086  17.135  0.00  0.00    +0.000 C 
ATOM      8  C   UNL     1       6.737   4.814  17.792  0.00  0.00    +0.000 C 
ATOM      9  C   UNL     1       5.831   3.996  16.869  0.00  0.00    +0.000 C 
ATOM     10  C   UNL     1       6.251   4.208  15.433  0.00  0.00    +0.000 A 
ATOM     11  C   UNL     1       5.791   3.342  14.427  0.00  0.00    +0.000 A 
ATOM     12  C   UNL     1       6.203   3.512  13.105  0.00  0.00    +0.000 A 
ATOM     13  C   UNL     1       7.078   4.546  12.786  0.00  0.00    +0.000 A 
ATOM     14  F   UNL     1       7.480   4.701  11.519  0.00  0.00    +0.000 F 
ATOM     15  C   UNL     1       7.538   5.418  13.763  0.00  0.00    +0.000 A 
ATOM     16  C   UNL     1       7.113   5.262  15.082  0.00  0.00    +0.000 A 
ATOM     17  O   UNL     1       7.607   6.181  15.968  0.00  0.00    +0.000 OA
ENDBRANCH   1   9
BRANCH   2  18
ATOM     18  C   UNL     1       2.361   4.658  18.308  0.00  0.00    +0.000 C 
BRANCH  18  19
ATOM     19  C   UNL     1       2.302   6.109  18.600  0.00  0.00    +0.000 A 
ATOM     20  C   UNL     1       2.740   7.193  17.821  0.00  0.00    +0.000 A 
ATOM     21  N   UNL     1       2.424   8.343  18.417  0.00  0.00    +0.000 NA
ATOM     22  N   UNL     1       1.803   7.922  19.553  0.00  0.00    +0.000 N 
ATOM     23  N   UNL     1       1.731   6.569  19.721  0.00  0.00    +0.000 NA
BRANCH  22  24
ATOM     24  C   UNL     1       1.224   8.827  20.477  0.00  0.00    +0.000 A 
ATOM     25  C   UNL     1       0.790  10.087  20.043  0.00  0.00    +0.000 A 
ATOM     26  C   UNL     1       0.187  10.962  20.946  0.00  0.00    +0.000 A 
ATOM     27  C   UNL     1       0.029  10.590  22.282  0.00  0.00    +0.000 A 
ATOM     28  C   UNL     1       0.469   9.342  22.718  0.00  0.00    +0.000 A 
ATOM     29  C   UNL     1       1.063   8.455  21.819  0.00  0.00    +0.000 A 
ENDBRANCH  22  24
ENDBRANCH  18  19
ENDBRANCH   2  18
TORSDOF 4
ENDMDL
MODEL 8
REMARK VINA RESULT:      -7.6      4.512      8.895
REMARK  Name = 
REMARK  6 active torsions:
REMARK  status: ('A' for Active; 'I' for Inactive)
REMARK    1  A    between atoms: C_1  and  C_2
REMARK    2  A    between atoms: C_2  and  C_3
REMARK    3  A    between atoms: C_5  and  N_6
REMARK    4  A    between atoms: C_7  and  C_9
REMARK    5  A    between atoms: C_9  and  C_10
REMARK    6  A    between atoms: N_13  and  C_14
REMARK                            x       y       z     vdW  Elec       q    Type
REMARK                         _______ _______ _______ _____ _____    ______ ____
ROOT
ATOM      1  N   UNL     1       0.678   9.544  19.706  0.00  0.00    +0.000 N 
ATOM      2  C   UNL     1       1.610   8.640  19.249  0.00  0.00    +0.000 C 
ATOM      3  O   UNL     1       2.204   8.779  18.183  0.00  0.00    +0.000 OA
ATOM      4  H   UNL     1       0.178   9.362  20.570  0.00  0.00    +0.000 HD
ENDROOT
BRANCH   1   9
ATOM      5  C   UNL     1      -0.125  13.609  21.553  0.00  0.00    +0.000 C 
ATOM      6  C   UNL     1      -0.469  12.306  20.813  0.00  0.00    +0.000 C 
ATOM      7  C   UNL     1      -0.679  11.208  21.870  0.00  0.00    +0.000 C 
ATOM      8  C   UNL     1       0.654  12.022  19.807  0.00  0.00    +0.000 C 
ATOM      9  C   UNL     1       0.367  10.767  18.980  0.00  0.00    +0.000 C 
ATOM     10  C   UNL     1      -1.075  10.779  18.530  0.00  0.00    +0.000 A 
ATOM     11  C   UNL     1      -1.503   9.912  17.510  0.00  0.00    +0.000 A 
ATOM     12  C   UNL     1      -2.825   9.942  17.066  0.00  0.00    +0.000 A 
ATOM     13  C   UNL     1      -3.721  10.841  17.638  0.00  0.00    +0.000 A 
ATOM     14  F   UNL     1      -4.987  10.876  17.203  0.00  0.00    +0.000 F 
ATOM     15  C   UNL     1      -3.321  11.700  18.651  0.00  0.00    +0.000 A 
ATOM     16  C   UNL     1      -2.004  11.659  19.110  0.00  0.00    +0.000 A 
ATOM     17  O   UNL     1      -1.711  12.532  20.123  0.00  0.00    +0.000 OA
ENDBRANCH   1   9
BRANCH   2  18
ATOM     18  C   UNL     1       1.898   7.491  20.194  0.00  0.00    +0.000 C 
BRANCH  18  19
ATOM     19  C   UNL     1       2.506   6.344  19.482  0.00  0.00    +0.000 A 
ATOM     20  C   UNL     1       1.968   5.074  19.215  0.00  0.00    +0.000 A 
ATOM     21  N   UNL     1       2.816   4.362  18.473  0.00  0.00    +0.000 NA
ATOM     22  N   UNL     1       3.858   5.224  18.314  0.00  0.00    +0.000 N 
ATOM     23  N   UNL     1       3.726   6.432  18.935  0.00  0.00    +0.000 NA
BRANCH  22  24
ATOM     24  C   UNL     1       4.984   4.908  17.514  0.00  0.00    +0.000 A 
ATOM     25  C   UNL     1       6.272   4.976  18.063  0.00  0.00    +0.000 A 
ATOM     26  C   UNL     1       7.377   4.629  17.285  0.00  0.00    +0.000 A 
ATOM     27  C   UNL     1       7.202   4.230  15.958  0.00  0.00    +0.000 A 
ATOM     28  C   UNL     1       5.923   4.173  15.408  0.00  0.00    +0.000 A 
ATOM     29  C   UNL     1       4.810   4.506  16.182  0.00  0.00    +0.000 A 
ENDBRANCH  22  24
ENDBRANCH  18  19
ENDBRANCH   2  18
TORSDOF 4
ENDMDL
MODEL 9
REMARK VINA RESULT:      -7.6      3.578      5.667
REMARK  Name = 
REMARK  6 active torsions:
REMARK  status: ('A' for Active; 'I' for Inactive)
REMARK    1  A    between atoms: C_1  and  C_2
REMARK    2  A    between atoms: C_2  and  C_3
REMARK    3  A    between atoms: C_5  and  N_6
REMARK    4  A    between atoms: C_7  and  C_9
REMARK    5  A    between atoms: C_9  and  C_10
REMARK    6  A    between atoms: N_13  and  C_14
REMARK                            x       y       z     vdW  Elec       q    Type
REMARK                         _______ _______ _______ _____ _____    ______ ____
ROOT
ATOM      1  N   UNL     1       3.120   7.016  18.423  0.00  0.00    +0.000 N 
ATOM      2  C   UNL     1       2.307   7.990  18.956  0.00  0.00    +0.000 C 
ATOM      3  O   UNL     1       1.936   7.979  20.126  0.00  0.00    +0.000 OA
ATOM      4  H   UNL     1       3.361   7.041  17.437  0.00  0.00    +0.000 HD
ENDROOT
BRANCH   1   9
ATOM      5  C   UNL     1       6.730   4.460  17.415  0.00  0.00    +0.000 C 
ATOM      6  C   UNL     1       5.240   4.769  17.629  0.00  0.00    +0.000 C 
ATOM      7  C   UNL     1       4.712   5.444  16.351  0.00  0.00    +0.000 C 
ATOM      8  C   UNL     1       5.109   5.614  18.903  0.00  0.00    +0.000 C 
ATOM      9  C   UNL     1       3.647   5.923  19.228  0.00  0.00    +0.000 C 
ATOM     10  C   UNL     1       2.817   4.672  19.055  0.00  0.00    +0.000 A 
ATOM     11  C   UNL     1       1.517   4.608  19.586  0.00  0.00    +0.000 A 
ATOM     12  C   UNL     1       0.759   3.444  19.459  0.00  0.00    +0.000 A 
ATOM     13  C   UNL     1       1.299   2.341  18.805  0.00  0.00    +0.000 A 
ATOM     14  F   UNL     1       0.574   1.221  18.695  0.00  0.00    +0.000 F 
ATOM     15  C   UNL     1       2.577   2.385  18.267  0.00  0.00    +0.000 A 
ATOM     16  C   UNL     1       3.330   3.555  18.376  0.00  0.00    +0.000 A 
ATOM     17  O   UNL     1       4.571   3.506  17.799  0.00  0.00    +0.000 OA
ENDBRANCH   1   9
BRANCH   2  18
ATOM     18  C   UNL     1       1.958   9.117  18.004  0.00  0.00    +0.000 C 
BRANCH  18  19
ATOM     19  C   UNL     1       0.710   9.803  18.412  0.00  0.00    +0.000 A 
ATOM     20  C   UNL     1      -0.530   9.863  17.755  0.00  0.00    +0.000 A 
ATOM     21  N   UNL     1      -1.415  10.518  18.505  0.00  0.00    +0.000 NA
ATOM     22  N   UNL     1      -0.681  10.846  19.603  0.00  0.00    +0.000 N 
ATOM     23  N   UNL     1       0.626  10.457  19.579  0.00  0.00    +0.000 NA
BRANCH  22  24
ATOM     24  C   UNL     1      -1.249  11.505  20.722  0.00  0.00    +0.000 A 
ATOM     25  C   UNL     1      -2.305  12.409  20.540  0.00  0.00    +0.000 A 
ATOM     26  C   UNL     1      -2.887  13.028  21.646  0.00  0.00    +0.000 A 
ATOM     27  C   UNL     1      -2.409  12.761  22.930  0.00  0.00    +0.000 A 
ATOM     28  C   UNL     1      -1.352  11.871  23.113  0.00  0.00    +0.000 A 
ATOM     29  C   UNL     1      -0.772  11.237  22.013  0.00  0.00    +0.000 A 
ENDBRANCH  22  24
ENDBRANCH  18  19
ENDBRANCH   2  18
TORSDOF 4
ENDMDL
