MODEL 1
REMARK VINA RESULT:      -8.4      0.000      0.000
REMARK  Name = 
REMARK  6 active torsions:
REMARK  status: ('A' for Active; 'I' for Inactive)
REMARK    1  A    between atoms: C_1  and  N_2
REMARK    2  A    between atoms: C_9  and  C_10
REMARK    3  A    between atoms: C_14  and  C_15
REMARK    4  A    between atoms: N_17  and  C_18
REMARK    5  A    between atoms: C_20  and  C_21
REMARK    6  A    between atoms: C_20  and  O_22
REMARK                            x       y       z     vdW  Elec       q    Type
REMARK                         _______ _______ _______ _____ _____    ______ ____
ROOT
ATOM      1  C   UNL     1       1.959   7.941  19.076  0.00  0.00    +0.000 A 
ATOM      2  C   UNL     1       1.649   8.686  17.924  0.00  0.00    +0.000 A 
ATOM      3  C   UNL     1       0.901   9.864  18.001  0.00  0.00    +0.000 A 
ATOM      4  C   UNL     1       0.468  10.335  19.238  0.00  0.00    +0.000 A 
ATOM      5  C   UNL     1       0.783   9.629  20.403  0.00  0.00    +0.000 A 
ATOM      6  C   UNL     1       1.490   8.422  20.313  0.00  0.00    +0.000 A 
ENDROOT
BRANCH   1  15
ATOM      7  C   UNL     1       2.490   2.868  21.386  0.00  0.00    +0.000 C 
ATOM      8  N   UNL     1       3.426   3.305  20.393  0.00  0.00    +0.000 N 
ATOM      9  C   UNL     1       4.545   2.584  19.932  0.00  0.00    +0.000 A 
ATOM     10  O   UNL     1       4.910   1.476  20.285  0.00  0.00    +0.000 OA
ATOM     11  N   UNL     1       5.175   3.391  18.980  0.00  0.00    +0.000 N 
ATOM     12  C   UNL     1       4.475   4.577  18.853  0.00  0.00    +0.000 A 
ATOM     13  N   UNL     1       4.782   5.597  18.053  0.00  0.00    +0.000 NA
ATOM     14  C   UNL     1       3.922   6.649  18.160  0.00  0.00    +0.000 A 
ATOM     15  C   UNL     1       2.789   6.720  19.006  0.00  0.00    +0.000 A 
ATOM     16  C   UNL     1       2.522   5.595  19.810  0.00  0.00    +0.000 A 
ATOM     17  C   UNL     1       3.389   4.532  19.722  0.00  0.00    +0.000 A 
ATOM     18  H   UNL     1       6.010   3.154  18.473  0.00  0.00    +0.000 HD
ENDBRANCH   1  15
BRANCH   5  19
ATOM     19  C   UNL     1       0.385  10.217  21.715  0.00  0.00    +0.000 C 
ATOM     20  O   UNL     1       0.771   9.705  22.759  0.00  0.00    +0.000 OA
ATOM     21  N   UNL     1      -0.471  11.303  21.672  0.00  0.00    +0.000 N 
ATOM     22  H   UNL     1      -0.804  11.635  20.775  0.00  0.00    +0.000 HD
BRANCH  21  23
ATOM     23  C   UNL     1      -1.050  11.887  22.903  0.00  0.00    +0.000 C 
ATOM     24  C   UNL     1      -0.969  13.424  22.964  0.00  0.00    +0.000 C 
ATOM     25  C   UNL     1      -2.441  13.495  22.481  0.00  0.00    +0.000 C 
ATOM     26  C   UNL     1      -3.306  14.466  23.274  0.00  0.00    +0.000 C 
ATOM     27  C   UNL     1      -2.589  12.006  22.887  0.00  0.00    +0.000 C 
BRANCH  25  28
ATOM     28  O   UNL     1      -2.615  13.741  21.066  0.00  0.00    +0.000 OA
ATOM     29  H   UNL     1      -2.150  14.580  20.898  0.00  0.00    +0.000 HD
ENDBRANCH  25  28
ENDBRANCH  21  23
ENDBRANCH   5  19
TORSDOF 4
ENDMDL
MODEL 2
REMARK VINA RESULT:      -8.3      2.916      9.382
REMARK  Name = 
REMARK  6 active torsions:
REMARK  status: ('A' for Active; 'I' for Inactive)
REMARK    1  A    between atoms: C_1  and  N_2
REMARK    2  A    between atoms: C_9  and  C_10
REMARK    3  A    between atoms: C_14  and  C_15
REMARK    4  A    between atoms: N_17  and  C_18
REMARK    5  A    between atoms: C_20  and  C_21
REMARK    6  A    between atoms: C_20  and  O_22
REMARK                            x       y       z     vdW  Elec       q    Type
REMARK                         _______ _______ _______ _____ _____    ______ ____
ROOT
ATOM      1  C   UNL     1       2.252   6.761  19.579  0.00  0.00    +0.000 A 
ATOM      2  C   UNL     1       1.652   6.040  20.628  0.00  0.00    +0.000 A 
ATOM      3  C   UNL     1       2.033   4.728  20.918  0.00  0.00    +0.000 A 
ATOM      4  C   UNL     1       3.043   4.116  20.179  0.00  0.00    +0.000 A 
ATOM      5  C   UNL     1       3.676   4.816  19.148  0.00  0.00    +0.000 A 
ATOM      6  C   UNL     1       3.254   6.114  18.830  0.00  0.00    +0.000 A 
ENDROOT
BRANCH   1  15
ATOM      7  C   UNL     1      -0.469  11.112  21.820  0.00  0.00    +0.000 C 
ATOM      8  N   UNL     1       0.098  11.219  20.508  0.00  0.00    +0.000 N 
ATOM      9  C   UNL     1       0.013  12.337  19.656  0.00  0.00    +0.000 A 
ATOM     10  O   UNL     1      -0.542  13.399  19.878  0.00  0.00    +0.000 OA
ATOM     11  N   UNL     1       0.693  11.997  18.482  0.00  0.00    +0.000 N 
ATOM     12  C   UNL     1       1.182  10.708  18.597  0.00  0.00    +0.000 A 
ATOM     13  N   UNL     1       1.870  10.037  17.674  0.00  0.00    +0.000 NA
ATOM     14  C   UNL     1       2.199   8.771  18.057  0.00  0.00    +0.000 A 
ATOM     15  C   UNL     1       1.887   8.166  19.298  0.00  0.00    +0.000 A 
ATOM     16  C   UNL     1       1.172   8.946  20.226  0.00  0.00    +0.000 A 
ATOM     17  C   UNL     1       0.821  10.220  19.849  0.00  0.00    +0.000 A 
ATOM     18  H   UNL     1       0.802  12.590  17.677  0.00  0.00    +0.000 HD
ENDBRANCH   1  15
BRANCH   5  19
ATOM     19  C   UNL     1       4.817   4.162  18.446  0.00  0.00    +0.000 C 
ATOM     20  O   UNL     1       5.782   3.759  19.084  0.00  0.00    +0.000 OA
ATOM     21  N   UNL     1       4.740   4.099  17.065  0.00  0.00    +0.000 N 
ATOM     22  H   UNL     1       3.943   4.511  16.596  0.00  0.00    +0.000 HD
BRANCH  21  23
ATOM     23  C   UNL     1       5.867   3.603  16.245  0.00  0.00    +0.000 C 
ATOM     24  C   UNL     1       5.655   3.767  14.727  0.00  0.00    +0.000 C 
ATOM     25  C   UNL     1       6.519   5.053  14.771  0.00  0.00    +0.000 C 
ATOM     26  C   UNL     1       7.562   5.136  13.664  0.00  0.00    +0.000 C 
ATOM     27  C   UNL     1       7.059   4.580  16.144  0.00  0.00    +0.000 C 
BRANCH  25  28
ATOM     28  O   UNL     1       5.775   6.294  14.825  0.00  0.00    +0.000 OA
ATOM     29  H   UNL     1       5.073   6.195  14.158  0.00  0.00    +0.000 HD
ENDBRANCH  25  28
ENDBRANCH  21  23
ENDBRANCH   5  19
TORSDOF 4
ENDMDL
MODEL 3
REMARK VINA RESULT:      -8.0      3.265      4.311
REMARK  Name = 
REMARK  6 active torsions:
REMARK  status: ('A' for Active; 'I' for Inactive)
REMARK    1  A    between atoms: C_1  and  N_2
REMARK    2  A    between atoms: C_9  and  C_10
REMARK    3  A    between atoms: C_14  and  C_15
REMARK    4  A    between atoms: N_17  and  C_18
REMARK    5  A    between atoms: C_20  and  C_21
REMARK    6  A    between atoms: C_20  and  O_22
REMARK                            x       y       z     vdW  Elec       q    Type
REMARK                         _______ _______ _______ _____ _____    ______ ____
ROOT
ATOM      1  C   UNL     1       2.274   7.423  19.305  0.00  0.00    +0.000 A 
ATOM      2  C   UNL     1       1.878   7.168  20.631  0.00  0.00    +0.000 A 
ATOM      3  C   UNL     1       1.023   8.038  21.312  0.00  0.00    +0.000 A 
ATOM      4  C   UNL     1       0.524   9.170  20.672  0.00  0.00    +0.000 A 
ATOM      5  C   UNL     1       0.880   9.435  19.346  0.00  0.00    +0.000 A 
ATOM      6  C   UNL     1       1.778   8.586  18.685  0.00  0.00    +0.000 A 
ENDROOT
BRANCH   1  15
ATOM      7  C   UNL     1       7.436   6.968  17.182  0.00  0.00    +0.000 C 
ATOM      8  N   UNL     1       6.488   5.908  16.998  0.00  0.00    +0.000 N 
ATOM      9  C   UNL     1       6.703   4.719  16.275  0.00  0.00    +0.000 A 
ATOM     10  O   UNL     1       7.717   4.379  15.690  0.00  0.00    +0.000 OA
ATOM     11  N   UNL     1       5.515   3.986  16.348  0.00  0.00    +0.000 N 
ATOM     12  C   UNL     1       4.588   4.697  17.090  0.00  0.00    +0.000 A 
ATOM     13  N   UNL     1       3.338   4.324  17.362  0.00  0.00    +0.000 NA
ATOM     14  C   UNL     1       2.645   5.241  18.094  0.00  0.00    +0.000 A 
ATOM     15  C   UNL     1       3.140   6.482  18.563  0.00  0.00    +0.000 A 
ATOM     16  C   UNL     1       4.476   6.796  18.247  0.00  0.00    +0.000 A 
ATOM     17  C   UNL     1       5.182   5.886  17.498  0.00  0.00    +0.000 A 
ATOM     18  H   UNL     1       5.353   3.089  15.923  0.00  0.00    +0.000 HD
ENDBRANCH   1  15
BRANCH   5  19
ATOM     19  C   UNL     1       0.250  10.603  18.666  0.00  0.00    +0.000 C 
ATOM     20  O   UNL     1       0.668  11.735  18.875  0.00  0.00    +0.000 OA
ATOM     21  N   UNL     1      -0.842  10.334  17.858  0.00  0.00    +0.000 N 
ATOM     22  H   UNL     1      -1.177   9.381  17.782  0.00  0.00    +0.000 HD
BRANCH  21  23
ATOM     23  C   UNL     1      -1.640  11.417  17.242  0.00  0.00    +0.000 C 
ATOM     24  C   UNL     1      -2.680  10.922  16.218  0.00  0.00    +0.000 C 
ATOM     25  C   UNL     1      -3.769  11.022  17.317  0.00  0.00    +0.000 C 
ATOM     26  C   UNL     1      -5.053  11.700  16.856  0.00  0.00    +0.000 C 
ATOM     27  C   UNL     1      -2.802  11.929  18.119  0.00  0.00    +0.000 C 
BRANCH  25  28
ATOM     28  O   UNL     1      -4.095   9.776  17.977  0.00  0.00    +0.000 OA
ATOM     29  H   UNL     1      -4.905   9.964  18.483  0.00  0.00    +0.000 HD
ENDBRANCH  25  28
ENDBRANCH  21  23
ENDBRANCH   5  19
TORSDOF 4
ENDMDL
MODEL 4
REMARK VINA RESULT:      -7.9      3.641      5.227
REMARK  Name = 
REMARK  6 active torsions:
REMARK  status: ('A' for Active; 'I' for Inactive)
REMARK    1  A    between atoms: C_1  and  N_2
REMARK    2  A    between atoms: C_9  and  C_10
REMARK    3  A    between atoms: C_14  and  C_15
REMARK    4  A    between atoms: N_17  and  C_18
REMARK    5  A    between atoms: C_20  and  C_21
REMARK    6  A    between atoms: C_20  and  O_22
REMARK                            x       y       z     vdW  Elec       q    Type
REMARK                         _______ _______ _______ _____ _____    ______ ____
ROOT
ATOM      1  C   UNL     1       3.828   5.331  18.082  0.00  0.00    +0.000 A 
ATOM      2  C   UNL     1       3.209   4.121  18.443  0.00  0.00    +0.000 A 
ATOM      3  C   UNL     1       2.201   4.081  19.410  0.00  0.00    +0.000 A 
ATOM      4  C   UNL     1       1.773   5.259  20.019  0.00  0.00    +0.000 A 
ATOM      5  C   UNL     1       2.351   6.480  19.661  0.00  0.00    +0.000 A 
ATOM      6  C   UNL     1       3.397   6.506  18.728  0.00  0.00    +0.000 A 
ENDROOT
BRANCH   1  15
ATOM      7  C   UNL     1       4.912   3.473  12.912  0.00  0.00    +0.000 C 
ATOM      8  N   UNL     1       5.887   4.256  13.611  0.00  0.00    +0.000 N 
ATOM      9  C   UNL     1       7.169   4.600  13.141  0.00  0.00    +0.000 A 
ATOM     10  O   UNL     1       7.670   4.304  12.070  0.00  0.00    +0.000 OA
ATOM     11  N   UNL     1       7.776   5.356  14.148  0.00  0.00    +0.000 N 
ATOM     12  C   UNL     1       6.903   5.476  15.215  0.00  0.00    +0.000 A 
ATOM     13  N   UNL     1       7.135   6.114  16.361  0.00  0.00    +0.000 NA
ATOM     14  C   UNL     1       6.098   6.043  17.242  0.00  0.00    +0.000 A 
ATOM     15  C   UNL     1       4.862   5.386  17.026  0.00  0.00    +0.000 A 
ATOM     16  C   UNL     1       4.687   4.750  15.783  0.00  0.00    +0.000 A 
ATOM     17  C   UNL     1       5.730   4.801  14.890  0.00  0.00    +0.000 A 
ATOM     18  H   UNL     1       8.703   5.744  14.111  0.00  0.00    +0.000 HD
ENDBRANCH   1  15
BRANCH   5  19
ATOM     19  C   UNL     1       1.799   7.727  20.264  0.00  0.00    +0.000 C 
ATOM     20  O   UNL     1       1.504   7.756  21.453  0.00  0.00    +0.000 OA
ATOM     21  N   UNL     1       1.592   8.791  19.404  0.00  0.00    +0.000 N 
ATOM     22  H   UNL     1       1.797   8.677  18.419  0.00  0.00    +0.000 HD
BRANCH  21  23
ATOM     23  C   UNL     1       0.920  10.032  19.849  0.00  0.00    +0.000 C 
ATOM     24  C   UNL     1       0.876  11.139  18.777  0.00  0.00    +0.000 C 
ATOM     25  C   UNL     1      -0.576  10.715  18.437  0.00  0.00    +0.000 C 
ATOM     26  C   UNL     1      -1.546  11.882  18.308  0.00  0.00    +0.000 C 
ATOM     27  C   UNL     1      -0.622   9.974  19.798  0.00  0.00    +0.000 C 
BRANCH  25  28
ATOM     28  O   UNL     1      -0.712   9.847  17.287  0.00  0.00    +0.000 OA
ATOM     29  H   UNL     1      -0.799  10.449  16.527  0.00  0.00    +0.000 HD
ENDBRANCH  25  28
ENDBRANCH  21  23
ENDBRANCH   5  19
TORSDOF 4
ENDMDL
MODEL 5
REMARK VINA RESULT:      -7.8      2.990      4.215
REMARK  Name = 
REMARK  6 active torsions:
REMARK  status: ('A' for Active; 'I' for Inactive)
REMARK    1  A    between atoms: C_1  and  N_2
REMARK    2  A    between atoms: C_9  and  C_10
REMARK    3  A    between atoms: C_14  and  C_15
REMARK    4  A    between atoms: N_17  and  C_18
REMARK    5  A    between atoms: C_20  and  C_21
REMARK    6  A    between atoms: C_20  and  O_22
REMARK                            x       y       z     vdW  Elec       q    Type
REMARK                         _______ _______ _______ _____ _____    ______ ____
ROOT
ATOM      1  C   UNL     1       2.154   7.409  19.698  0.00  0.00    +0.000 A 
ATOM      2  C   UNL     1       1.763   7.348  21.048  0.00  0.00    +0.000 A 
ATOM      3  C   UNL     1       0.970   8.345  21.620  0.00  0.00    +0.000 A 
ATOM      4  C   UNL     1       0.526   9.414  20.845  0.00  0.00    +0.000 A 
ATOM      5  C   UNL     1       0.877   9.488  19.493  0.00  0.00    +0.000 A 
ATOM      6  C   UNL     1       1.716   8.511  18.939  0.00  0.00    +0.000 A 
ENDROOT
BRANCH   1  15
ATOM      7  C   UNL     1       5.351   6.362  15.221  0.00  0.00    +0.000 C 
ATOM      8  N   UNL     1       5.086   5.323  16.172  0.00  0.00    +0.000 N 
ATOM      9  C   UNL     1       5.529   3.989  16.089  0.00  0.00    +0.000 A 
ATOM     10  O   UNL     1       6.209   3.486  15.212  0.00  0.00    +0.000 OA
ATOM     11  N   UNL     1       5.031   3.331  17.218  0.00  0.00    +0.000 N 
ATOM     12  C   UNL     1       4.299   4.225  17.979  0.00  0.00    +0.000 A 
ATOM     13  N   UNL     1       3.661   3.959  19.118  0.00  0.00    +0.000 NA
ATOM     14  C   UNL     1       2.998   5.033  19.633  0.00  0.00    +0.000 A 
ATOM     15  C   UNL     1       2.955   6.334  19.075  0.00  0.00    +0.000 A 
ATOM     16  C   UNL     1       3.668   6.539  17.878  0.00  0.00    +0.000 A 
ATOM     17  C   UNL     1       4.330   5.461  17.341  0.00  0.00    +0.000 A 
ATOM     18  H   UNL     1       5.173   2.361  17.440  0.00  0.00    +0.000 HD
ENDBRANCH   1  15
BRANCH   5  19
ATOM     19  C   UNL     1       0.304  10.595  18.675  0.00  0.00    +0.000 C 
ATOM     20  O   UNL     1       0.845  11.695  18.664  0.00  0.00    +0.000 OA
ATOM     21  N   UNL     1      -0.875  10.322  18.002  0.00  0.00    +0.000 N 
ATOM     22  H   UNL     1      -1.304   9.411  18.108  0.00  0.00    +0.000 HD
BRANCH  21  23
ATOM     23  C   UNL     1      -1.616  11.374  17.272  0.00  0.00    +0.000 C 
ATOM     24  C   UNL     1      -2.651  10.828  16.270  0.00  0.00    +0.000 C 
ATOM     25  C   UNL     1      -3.761  11.064  17.326  0.00  0.00    +0.000 C 
ATOM     26  C   UNL     1      -5.006  11.744  16.774  0.00  0.00    +0.000 C 
ATOM     27  C   UNL     1      -2.778  12.004  18.071  0.00  0.00    +0.000 C 
BRANCH  25  28
ATOM     28  O   UNL     1      -4.148   9.894  18.085  0.00  0.00    +0.000 OA
ATOM     29  H   UNL     1      -3.310   9.472  18.342  0.00  0.00    +0.000 HD
ENDBRANCH  25  28
ENDBRANCH  21  23
ENDBRANCH   5  19
TORSDOF 4
ENDMDL
MODEL 6
REMARK VINA RESULT:      -7.8      0.997      1.115
REMARK  Name = 
REMARK  6 active torsions:
REMARK  status: ('A' for Active; 'I' for Inactive)
REMARK    1  A    between atoms: C_1  and  N_2
REMARK    2  A    between atoms: C_9  and  C_10
REMARK    3  A    between atoms: C_14  and  C_15
REMARK    4  A    between atoms: N_17  and  C_18
REMARK    5  A    between atoms: C_20  and  C_21
REMARK    6  A    between atoms: C_20  and  O_22
REMARK                            x       y       z     vdW  Elec       q    Type
REMARK                         _______ _______ _______ _____ _____    ______ ____
ROOT
ATOM      1  C   UNL     1       2.292   7.895  18.706  0.00  0.00    +0.000 A 
ATOM      2  C   UNL     1       2.478   8.826  17.668  0.00  0.00    +0.000 A 
ATOM      3  C   UNL     1       1.782  10.037  17.647  0.00  0.00    +0.000 A 
ATOM      4  C   UNL     1       0.902  10.355  18.679  0.00  0.00    +0.000 A 
ATOM      5  C   UNL     1       0.716   9.460  19.737  0.00  0.00    +0.000 A 
ATOM      6  C   UNL     1       1.379   8.225  19.726  0.00  0.00    +0.000 A 
ENDROOT
BRANCH   1  15
ATOM      7  C   UNL     1       2.463   2.982  21.387  0.00  0.00    +0.000 C 
ATOM      8  N   UNL     1       3.460   3.299  20.408  0.00  0.00    +0.000 N 
ATOM      9  C   UNL     1       4.557   2.493  20.049  0.00  0.00    +0.000 A 
ATOM     10  O   UNL     1       4.850   1.397  20.494  0.00  0.00    +0.000 OA
ATOM     11  N   UNL     1       5.267   3.197  19.071  0.00  0.00    +0.000 N 
ATOM     12  C   UNL     1       4.635   4.404  18.831  0.00  0.00    +0.000 A 
ATOM     13  N   UNL     1       5.027   5.347  17.975  0.00  0.00    +0.000 NA
ATOM     14  C   UNL     1       4.221   6.445  17.970  0.00  0.00    +0.000 A 
ATOM     15  C   UNL     1       3.060   6.632  18.759  0.00  0.00    +0.000 A 
ATOM     16  C   UNL     1       2.702   5.583  19.626  0.00  0.00    +0.000 A 
ATOM     17  C   UNL     1       3.514   4.475  19.651  0.00  0.00    +0.000 A 
ATOM     18  H   UNL     1       6.109   2.882  18.619  0.00  0.00    +0.000 HD
ENDBRANCH   1  15
BRANCH   5  19
ATOM     19  C   UNL     1      -0.159   9.877  20.869  0.00  0.00    +0.000 C 
ATOM     20  O   UNL     1      -0.418   9.086  21.769  0.00  0.00    +0.000 OA
ATOM     21  N   UNL     1      -0.690  11.154  20.803  0.00  0.00    +0.000 N 
ATOM     22  H   UNL     1      -0.488  11.732  19.998  0.00  0.00    +0.000 HD
BRANCH  21  23
ATOM     23  C   UNL     1      -1.683  11.635  21.790  0.00  0.00    +0.000 C 
ATOM     24  C   UNL     1      -1.099  11.885  23.194  0.00  0.00    +0.000 C 
ATOM     25  C   UNL     1      -1.002  13.395  22.857  0.00  0.00    +0.000 C 
ATOM     26  C   UNL     1      -1.521  14.309  23.959  0.00  0.00    +0.000 C 
ATOM     27  C   UNL     1      -1.995  13.144  21.693  0.00  0.00    +0.000 C 
BRANCH  25  28
ATOM     28  O   UNL     1       0.304  13.849  22.431  0.00  0.00    +0.000 OA
ATOM     29  H   UNL     1       0.572  13.227  21.732  0.00  0.00    +0.000 HD
ENDBRANCH  25  28
ENDBRANCH  21  23
ENDBRANCH   5  19
TORSDOF 4
ENDMDL
MODEL 7
REMARK VINA RESULT:      -7.7      1.621      2.459
REMARK  Name = 
REMARK  6 active torsions:
REMARK  status: ('A' for Active; 'I' for Inactive)
REMARK    1  A    between atoms: C_1  and  N_2
REMARK    2  A    between atoms: C_9  and  C_10
REMARK    3  A    between atoms: C_14  and  C_15
REMARK    4  A    between atoms: N_17  and  C_18
REMARK    5  A    between atoms: C_20  and  C_21
REMARK    6  A    between atoms: C_20  and  O_22
REMARK                            x       y       z     vdW  Elec       q    Type
REMARK                         _______ _______ _______ _____ _____    ______ ____
ROOT
ATOM      1  C   UNL     1       2.069   8.011  18.710  0.00  0.00    +0.000 A 
ATOM      2  C   UNL     1       1.479   8.668  17.615  0.00  0.00    +0.000 A 
ATOM      3  C   UNL     1       0.580   9.721  17.798  0.00  0.00    +0.000 A 
ATOM      4  C   UNL     1       0.270  10.158  19.084  0.00  0.00    +0.000 A 
ATOM      5  C   UNL     1       0.861   9.542  20.191  0.00  0.00    +0.000 A 
ATOM      6  C   UNL     1       1.722   8.452  20.002  0.00  0.00    +0.000 A 
ENDROOT
BRANCH   1  15
ATOM      7  C   UNL     1       7.412   7.157  17.267  0.00  0.00    +0.000 C 
ATOM      8  N   UNL     1       6.557   6.041  17.547  0.00  0.00    +0.000 N 
ATOM      9  C   UNL     1       6.912   4.681  17.461  0.00  0.00    +0.000 A 
ATOM     10  O   UNL     1       7.993   4.215  17.144  0.00  0.00    +0.000 OA
ATOM     11  N   UNL     1       5.775   3.948  17.809  0.00  0.00    +0.000 N 
ATOM     12  C   UNL     1       4.741   4.821  18.100  0.00  0.00    +0.000 A 
ATOM     13  N   UNL     1       3.501   4.491  18.456  0.00  0.00    +0.000 NA
ATOM     14  C   UNL     1       2.688   5.567  18.653  0.00  0.00    +0.000 A 
ATOM     15  C   UNL     1       3.057   6.927  18.522  0.00  0.00    +0.000 A 
ATOM     16  C   UNL     1       4.390   7.195  18.158  0.00  0.00    +0.000 A 
ATOM     17  C   UNL     1       5.218   6.119  17.943  0.00  0.00    +0.000 A 
ATOM     18  H   UNL     1       5.710   2.944  17.836  0.00  0.00    +0.000 HD
ENDBRANCH   1  15
BRANCH   5  19
ATOM     19  C   UNL     1       0.578  10.100  21.544  0.00  0.00    +0.000 C 
ATOM     20  O   UNL     1       1.165   9.659  22.526  0.00  0.00    +0.000 OA
ATOM     21  N   UNL     1      -0.403  11.073  21.620  0.00  0.00    +0.000 N 
ATOM     22  H   UNL     1      -0.895  11.345  20.778  0.00  0.00    +0.000 HD
BRANCH  21  23
ATOM     23  C   UNL     1      -0.874  11.604  22.919  0.00  0.00    +0.000 C 
ATOM     24  C   UNL     1      -0.915  13.143  22.987  0.00  0.00    +0.000 C 
ATOM     25  C   UNL     1      -2.435  13.090  22.688  0.00  0.00    +0.000 C 
ATOM     26  C   UNL     1      -3.275  13.984  23.591  0.00  0.00    +0.000 C 
ATOM     27  C   UNL     1      -2.408  11.594  23.092  0.00  0.00    +0.000 C 
BRANCH  25  28
ATOM     28  O   UNL     1      -2.801  13.322  21.307  0.00  0.00    +0.000 OA
ATOM     29  H   UNL     1      -3.769  13.421  21.317  0.00  0.00    +0.000 HD
ENDBRANCH  25  28
ENDBRANCH  21  23
ENDBRANCH   5  19
TORSDOF 4
ENDMDL
MODEL 8
REMARK VINA RESULT:      -7.6      1.602      2.411
REMARK  Name = 
REMARK  6 active torsions:
REMARK  status: ('A' for Active; 'I' for Inactive)
REMARK    1  A    between atoms: C_1  and  N_2
REMARK    2  A    between atoms: C_9  and  C_10
REMARK    3  A    between atoms: C_14  and  C_15
REMARK    4  A    between atoms: N_17  and  C_18
REMARK    5  A    between atoms: C_20  and  C_21
REMARK    6  A    between atoms: C_20  and  O_22
REMARK                            x       y       z     vdW  Elec       q    Type
REMARK                         _______ _______ _______ _____ _____    ______ ____
ROOT
ATOM      1  C   UNL     1       1.479   8.591  19.126  0.00  0.00    +0.000 A 
ATOM      2  C   UNL     1       0.990   9.323  18.029  0.00  0.00    +0.000 A 
ATOM      3  C   UNL     1       0.135  10.413  18.207  0.00  0.00    +0.000 A 
ATOM      4  C   UNL     1      -0.231  10.810  19.492  0.00  0.00    +0.000 A 
ATOM      5  C   UNL     1       0.260  10.118  20.602  0.00  0.00    +0.000 A 
ATOM      6  C   UNL     1       1.077   8.994  20.414  0.00  0.00    +0.000 A 
ENDROOT
BRANCH   1  15
ATOM      7  C   UNL     1       5.225   6.550  15.498  0.00  0.00    +0.000 C 
ATOM      8  N   UNL     1       4.933   5.836  16.706  0.00  0.00    +0.000 N 
ATOM      9  C   UNL     1       5.479   4.596  17.089  0.00  0.00    +0.000 A 
ATOM     10  O   UNL     1       6.289   3.921  16.477  0.00  0.00    +0.000 OA
ATOM     11  N   UNL     1       4.908   4.272  18.324  0.00  0.00    +0.000 N 
ATOM     12  C   UNL     1       4.031   5.275  18.696  0.00  0.00    +0.000 A 
ATOM     13  N   UNL     1       3.292   5.310  19.804  0.00  0.00    +0.000 NA
ATOM     14  C   UNL     1       2.498   6.414  19.892  0.00  0.00    +0.000 A 
ATOM     15  C   UNL     1       2.421   7.466  18.947  0.00  0.00    +0.000 A 
ATOM     16  C   UNL     1       3.247   7.364  17.811  0.00  0.00    +0.000 A 
ATOM     17  C   UNL     1       4.042   6.249  17.702  0.00  0.00    +0.000 A 
ATOM     18  H   UNL     1       5.096   3.439  18.855  0.00  0.00    +0.000 HD
ENDBRANCH   1  15
BRANCH   5  19
ATOM     19  C   UNL     1      -0.076  10.632  21.961  0.00  0.00    +0.000 C 
ATOM     20  O   UNL     1       0.402  10.099  22.955  0.00  0.00    +0.000 OA
ATOM     21  N   UNL     1      -0.983  11.677  22.020  0.00  0.00    +0.000 N 
ATOM     22  H   UNL     1      -1.390  12.027  21.162  0.00  0.00    +0.000 HD
BRANCH  21  23
ATOM     23  C   UNL     1      -1.504  12.182  23.310  0.00  0.00    +0.000 C 
ATOM     24  C   UNL     1      -1.501  13.718  23.427  0.00  0.00    +0.000 C 
ATOM     25  C   UNL     1      -3.004  13.724  23.049  0.00  0.00    +0.000 C 
ATOM     26  C   UNL     1      -3.862  14.616  23.937  0.00  0.00    +0.000 C 
ATOM     27  C   UNL     1      -3.045  12.216  23.403  0.00  0.00    +0.000 C 
BRANCH  25  28
ATOM     28  O   UNL     1      -3.289  14.012  21.659  0.00  0.00    +0.000 OA
ATOM     29  H   UNL     1      -2.707  13.417  21.155  0.00  0.00    +0.000 HD
ENDBRANCH  25  28
ENDBRANCH  21  23
ENDBRANCH   5  19
TORSDOF 4
ENDMDL
MODEL 9
REMARK VINA RESULT:      -7.6      1.189      1.914
REMARK  Name = 
REMARK  6 active torsions:
REMARK  status: ('A' for Active; 'I' for Inactive)
REMARK    1  A    between atoms: C_1  and  N_2
REMARK    2  A    between atoms: C_9  and  C_10
REMARK    3  A    between atoms: C_14  and  C_15
REMARK    4  A    between atoms: N_17  and  C_18
REMARK    5  A    between atoms: C_20  and  C_21
REMARK    6  A    between atoms: C_20  and  O_22
REMARK                            x       y       z     vdW  Elec       q    Type
REMARK                         _______ _______ _______ _____ _____    ______ ____
ROOT
ATOM      1  C   UNL     1       1.669   7.823  19.673  0.00  0.00    +0.000 A 
ATOM      2  C   UNL     1       1.912   8.574  18.508  0.00  0.00    +0.000 A 
ATOM      3  C   UNL     1       1.584   9.930  18.437  0.00  0.00    +0.000 A 
ATOM      4  C   UNL     1       1.029  10.571  19.542  0.00  0.00    +0.000 A 
ATOM      5  C   UNL     1       0.800   9.857  20.722  0.00  0.00    +0.000 A 
ATOM      6  C   UNL     1       1.084   8.485  20.769  0.00  0.00    +0.000 A 
ENDROOT
BRANCH   1  15
ATOM      7  C   UNL     1       4.162   3.752  16.744  0.00  0.00    +0.000 C 
ATOM      8  N   UNL     1       3.623   3.474  18.043  0.00  0.00    +0.000 N 
ATOM      9  C   UNL     1       3.612   2.222  18.688  0.00  0.00    +0.000 A 
ATOM     10  O   UNL     1       4.057   1.168  18.268  0.00  0.00    +0.000 OA
ATOM     11  N   UNL     1       2.982   2.412  19.921  0.00  0.00    +0.000 N 
ATOM     12  C   UNL     1       2.608   3.739  20.041  0.00  0.00    +0.000 A 
ATOM     13  N   UNL     1       1.971   4.292  21.071  0.00  0.00    +0.000 NA
ATOM     14  C   UNL     1       1.708   5.619  20.898  0.00  0.00    +0.000 A 
ATOM     15  C   UNL     1       2.057   6.399  19.770  0.00  0.00    +0.000 A 
ATOM     16  C   UNL     1       2.744   5.745  18.730  0.00  0.00    +0.000 A 
ATOM     17  C   UNL     1       3.003   4.404  18.884  0.00  0.00    +0.000 A 
ATOM     18  H   UNL     1       2.817   1.699  20.610  0.00  0.00    +0.000 HD
ENDBRANCH   1  15
BRANCH   5  19
ATOM     19  C   UNL     1       0.295  10.601  21.911  0.00  0.00    +0.000 C 
ATOM     20  O   UNL     1       0.462  10.146  23.037  0.00  0.00    +0.000 OA
ATOM     21  N   UNL     1      -0.406  11.768  21.660  0.00  0.00    +0.000 N 
ATOM     22  H   UNL     1      -0.565  12.052  20.701  0.00  0.00    +0.000 HD
BRANCH  21  23
ATOM     23  C   UNL     1      -1.078  12.521  22.742  0.00  0.00    +0.000 C 
ATOM     24  C   UNL     1      -1.755  13.823  22.272  0.00  0.00    +0.000 C 
ATOM     25  C   UNL     1      -3.110  13.072  22.229  0.00  0.00    +0.000 C 
ATOM     26  C   UNL     1      -4.261  13.836  22.870  0.00  0.00    +0.000 C 
ATOM     27  C   UNL     1      -2.472  11.978  23.123  0.00  0.00    +0.000 C 
BRANCH  25  28
ATOM     28  O   UNL     1      -3.514  12.603  20.920  0.00  0.00    +0.000 OA
ATOM     29  H   UNL     1      -3.945  13.369  20.501  0.00  0.00    +0.000 HD
ENDBRANCH  25  28
ENDBRANCH  21  23
ENDBRANCH   5  19
TORSDOF 4
ENDMDL
