MODEL 1
REMARK VINA RESULT:      -8.5      0.000      0.000
REMARK  Name = 
REMARK  6 active torsions:
REMARK  status: ('A' for Active; 'I' for Inactive)
REMARK    1  A    between atoms: C_2  and  C_3
REMARK    2  A    between atoms: C_3  and  O_4
REMARK    3  A    between atoms: O_4  and  C_5
REMARK    4  A    between atoms: C_8  and  N_9
REMARK    5  A    between atoms: N_17  and  C_18
REMARK    6  A    between atoms: C_22  and  C_23
REMARK                            x       y       z     vdW  Elec       q    Type
REMARK                         _______ _______ _______ _____ _____    ______ ____
ROOT
ATOM      1  O   UNL     1       7.582  10.006  17.552  0.00  0.00    +0.000 OA
ATOM      2  C   UNL     1       8.230   9.118  18.101  0.00  0.00    +0.000 C 
ATOM      3  N   UNL     1       9.217   9.295  19.065  0.00  0.00    +0.000 N 
ATOM      4  H   UNL     1       9.724   8.468  19.358  0.00  0.00    +0.000 HD
ENDROOT
BRANCH   3   5
ATOM      5  C   UNL     1       9.588  10.509  19.685  0.00  0.00    +0.000 A 
ATOM      6  C   UNL     1      10.448  11.441  19.102  0.00  0.00    +0.000 A 
ATOM      7  C   UNL     1      10.770  12.626  19.763  0.00  0.00    +0.000 A 
ATOM      8  C   UNL     1      10.212  12.905  21.008  0.00  0.00    +0.000 A 
ATOM      9  C   UNL     1       9.316  12.007  21.605  0.00  0.00    +0.000 A 
ATOM     10  C   UNL     1       9.031  10.800  20.940  0.00  0.00    +0.000 A 
BRANCH   9  11
ATOM     11  C   UNL     1       8.656  12.328  22.865  0.00  0.00    +0.000 A 
ATOM     12  N   UNL     1       8.555  13.471  23.513  0.00  0.00    +0.000 NA
ATOM     13  N   UNL     1       7.887  13.196  24.692  0.00  0.00    +0.000 NA
ATOM     14  C   UNL     1       7.638  11.909  24.676  0.00  0.00    +0.000 A 
ATOM     15  O   UNL     1       8.083  11.284  23.553  0.00  0.00    +0.000 OA
ENDBRANCH   9  11
ENDBRANCH   3   5
BRANCH   2  16
ATOM     16  C   UNL     1       7.946   7.649  17.789  0.00  0.00    +0.000 C 
BRANCH  16  17
ATOM     17  O   UNL     1       6.741   7.494  17.052  0.00  0.00    +0.000 OA
BRANCH  17  18
ATOM     18  C   UNL     1       5.804   6.673  17.624  0.00  0.00    +0.000 A 
ATOM     19  C   UNL     1       6.074   5.630  18.505  0.00  0.00    +0.000 A 
ATOM     20  C   UNL     1       5.035   4.852  19.032  0.00  0.00    +0.000 A 
ATOM     21  C   UNL     1       3.701   5.076  18.682  0.00  0.00    +0.000 A 
ATOM     22  C   UNL     1       3.441   6.125  17.787  0.00  0.00    +0.000 A 
ATOM     23  C   UNL     1       4.480   6.918  17.270  0.00  0.00    +0.000 A 
BRANCH  21  24
ATOM     24  N   UNL     1       2.653   4.264  19.198  0.00  0.00    +0.000 N 
ATOM     25  C   UNL     1       2.088   4.468  20.511  0.00  0.00    +0.000 C 
ATOM     26  C   UNL     1       1.227   3.246  20.753  0.00  0.00    +0.000 C 
ATOM     27  C   UNL     1       0.785   2.834  19.364  0.00  0.00    +0.000 C 
ATOM     28  C   UNL     1       1.912   3.308  18.480  0.00  0.00    +0.000 C 
ATOM     29  O   UNL     1       2.063   2.904  17.336  0.00  0.00    +0.000 OA
ENDBRANCH  21  24
ENDBRANCH  17  18
ENDBRANCH  16  17
ENDBRANCH   2  16
TORSDOF 6
ENDMDL
MODEL 2
REMARK VINA RESULT:      -8.3      2.247      3.437
REMARK  Name = 
REMARK  6 active torsions:
REMARK  status: ('A' for Active; 'I' for Inactive)
REMARK    1  A    between atoms: C_2  and  C_3
REMARK    2  A    between atoms: C_3  and  O_4
REMARK    3  A    between atoms: O_4  and  C_5
REMARK    4  A    between atoms: C_8  and  N_9
REMARK    5  A    between atoms: N_17  and  C_18
REMARK    6  A    between atoms: C_22  and  C_23
REMARK                            x       y       z     vdW  Elec       q    Type
REMARK                         _______ _______ _______ _____ _____    ______ ____
ROOT
ATOM      1  O   UNL     1       7.658  10.063  17.587  0.00  0.00    +0.000 OA
ATOM      2  C   UNL     1       8.325   9.250  18.221  0.00  0.00    +0.000 C 
ATOM      3  N   UNL     1       9.258   9.543  19.210  0.00  0.00    +0.000 N 
ATOM      4  H   UNL     1       9.794   8.766  19.579  0.00  0.00    +0.000 HD
ENDROOT
BRANCH   3   5
ATOM      5  C   UNL     1       9.538  10.814  19.761  0.00  0.00    +0.000 A 
ATOM      6  C   UNL     1       9.342  11.131  21.105  0.00  0.00    +0.000 A 
ATOM      7  C   UNL     1       9.646  12.403  21.590  0.00  0.00    +0.000 A 
ATOM      8  C   UNL     1      10.176  13.367  20.737  0.00  0.00    +0.000 A 
ATOM      9  C   UNL     1      10.419  13.070  19.389  0.00  0.00    +0.000 A 
ATOM     10  C   UNL     1      10.073  11.793  18.909  0.00  0.00    +0.000 A 
BRANCH   9  11
ATOM     11  C   UNL     1      11.056  14.041  18.507  0.00  0.00    +0.000 A 
ATOM     12  N   UNL     1      12.282  14.525  18.508  0.00  0.00    +0.000 NA
ATOM     13  N   UNL     1      12.332  15.469  17.499  0.00  0.00    +0.000 NA
ATOM     14  C   UNL     1      11.136  15.492  16.965  0.00  0.00    +0.000 A 
ATOM     15  O   UNL     1      10.268  14.614  17.536  0.00  0.00    +0.000 OA
ENDBRANCH   9  11
ENDBRANCH   3   5
BRANCH   2  16
ATOM     16  C   UNL     1       8.132   7.750  17.998  0.00  0.00    +0.000 C 
BRANCH  16  17
ATOM     17  O   UNL     1       7.139   7.491  17.016  0.00  0.00    +0.000 OA
BRANCH  17  18
ATOM     18  C   UNL     1       6.110   6.680  17.421  0.00  0.00    +0.000 A 
ATOM     19  C   UNL     1       4.849   6.621  16.836  0.00  0.00    +0.000 A 
ATOM     20  C   UNL     1       3.869   5.753  17.333  0.00  0.00    +0.000 A 
ATOM     21  C   UNL     1       4.109   4.934  18.440  0.00  0.00    +0.000 A 
ATOM     22  C   UNL     1       5.381   5.007  19.028  0.00  0.00    +0.000 A 
ATOM     23  C   UNL     1       6.371   5.865  18.520  0.00  0.00    +0.000 A 
BRANCH  21  24
ATOM     24  N   UNL     1       3.100   4.075  18.958  0.00  0.00    +0.000 N 
ATOM     25  C   UNL     1       2.761   4.034  20.361  0.00  0.00    +0.000 C 
ATOM     26  C   UNL     1       1.864   2.822  20.503  0.00  0.00    +0.000 C 
ATOM     27  C   UNL     1       1.183   2.715  19.155  0.00  0.00    +0.000 C 
ATOM     28  C   UNL     1       2.190   3.312  18.204  0.00  0.00    +0.000 C 
ATOM     29  O   UNL     1       2.132   3.141  16.994  0.00  0.00    +0.000 OA
ENDBRANCH  21  24
ENDBRANCH  17  18
ENDBRANCH  16  17
ENDBRANCH   2  16
TORSDOF 6
ENDMDL
MODEL 3
REMARK VINA RESULT:      -8.3      2.278      3.343
REMARK  Name = 
REMARK  6 active torsions:
REMARK  status: ('A' for Active; 'I' for Inactive)
REMARK    1  A    between atoms: C_2  and  C_3
REMARK    2  A    between atoms: C_3  and  O_4
REMARK    3  A    between atoms: O_4  and  C_5
REMARK    4  A    between atoms: C_8  and  N_9
REMARK    5  A    between atoms: N_17  and  C_18
REMARK    6  A    between atoms: C_22  and  C_23
REMARK                            x       y       z     vdW  Elec       q    Type
REMARK                         _______ _______ _______ _____ _____    ______ ____
ROOT
ATOM      1  O   UNL     1       7.519   9.929  17.678  0.00  0.00    +0.000 OA
ATOM      2  C   UNL     1       8.283   9.157  18.252  0.00  0.00    +0.000 C 
ATOM      3  N   UNL     1       9.272   9.505  19.165  0.00  0.00    +0.000 N 
ATOM      4  H   UNL     1       9.881   8.762  19.486  0.00  0.00    +0.000 HD
ENDROOT
BRANCH   3   5
ATOM      5  C   UNL     1       9.518  10.790  19.700  0.00  0.00    +0.000 A 
ATOM      6  C   UNL     1       9.350  11.110  21.047  0.00  0.00    +0.000 A 
ATOM      7  C   UNL     1       9.618  12.396  21.514  0.00  0.00    +0.000 A 
ATOM      8  C   UNL     1      10.084  13.374  20.640  0.00  0.00    +0.000 A 
ATOM      9  C   UNL     1      10.298  13.076  19.287  0.00  0.00    +0.000 A 
ATOM     10  C   UNL     1       9.989  11.783  18.826  0.00  0.00    +0.000 A 
BRANCH   9  11
ATOM     11  C   UNL     1      10.871  14.064  18.380  0.00  0.00    +0.000 A 
ATOM     12  N   UNL     1      10.469  14.472  17.193  0.00  0.00    +0.000 NA
ATOM     13  N   UNL     1      11.421  15.370  16.744  0.00  0.00    +0.000 NA
ATOM     14  C   UNL     1      12.329  15.437  17.687  0.00  0.00    +0.000 A 
ATOM     15  O   UNL     1      12.056  14.649  18.761  0.00  0.00    +0.000 OA
ENDBRANCH   9  11
ENDBRANCH   3   5
BRANCH   2  16
ATOM     16  C   UNL     1       8.163   7.648  18.037  0.00  0.00    +0.000 C 
BRANCH  16  17
ATOM     17  O   UNL     1       7.125   7.332  17.120  0.00  0.00    +0.000 OA
BRANCH  17  18
ATOM     18  C   UNL     1       6.113   6.556  17.623  0.00  0.00    +0.000 A 
ATOM     19  C   UNL     1       6.273   5.496  18.510  0.00  0.00    +0.000 A 
ATOM     20  C   UNL     1       5.165   4.769  18.962  0.00  0.00    +0.000 A 
ATOM     21  C   UNL     1       3.869   5.061  18.529  0.00  0.00    +0.000 A 
ATOM     22  C   UNL     1       3.720   6.127  17.628  0.00  0.00    +0.000 A 
ATOM     23  C   UNL     1       4.828   6.869  17.186  0.00  0.00    +0.000 A 
BRANCH  21  24
ATOM     24  N   UNL     1       2.751   4.300  18.970  0.00  0.00    +0.000 N 
ATOM     25  C   UNL     1       1.846   4.770  19.992  0.00  0.00    +0.000 C 
ATOM     26  C   UNL     1       0.997   3.564  20.336  0.00  0.00    +0.000 C 
ATOM     27  C   UNL     1       0.960   2.768  19.049  0.00  0.00    +0.000 C 
ATOM     28  C   UNL     1       2.265   3.119  18.380  0.00  0.00    +0.000 C 
ATOM     29  O   UNL     1       2.733   2.456  17.464  0.00  0.00    +0.000 OA
ENDBRANCH  21  24
ENDBRANCH  17  18
ENDBRANCH  16  17
ENDBRANCH   2  16
TORSDOF 6
ENDMDL
MODEL 4
REMARK VINA RESULT:      -8.2      2.775     10.553
REMARK  Name = 
REMARK  6 active torsions:
REMARK  status: ('A' for Active; 'I' for Inactive)
REMARK    1  A    between atoms: C_2  and  C_3
REMARK    2  A    between atoms: C_3  and  O_4
REMARK    3  A    between atoms: O_4  and  C_5
REMARK    4  A    between atoms: C_8  and  N_9
REMARK    5  A    between atoms: N_17  and  C_18
REMARK    6  A    between atoms: C_22  and  C_23
REMARK                            x       y       z     vdW  Elec       q    Type
REMARK                         _______ _______ _______ _____ _____    ______ ____
ROOT
ATOM      1  O   UNL     1       7.922   6.647  18.702  0.00  0.00    +0.000 OA
ATOM      2  C   UNL     1       7.642   7.429  17.797  0.00  0.00    +0.000 C 
ATOM      3  N   UNL     1       6.975   7.117  16.617  0.00  0.00    +0.000 N 
ATOM      4  H   UNL     1       6.896   7.854  15.926  0.00  0.00    +0.000 HD
ENDROOT
BRANCH   3   5
ATOM      5  C   UNL     1       6.388   5.876  16.277  0.00  0.00    +0.000 A 
ATOM      6  C   UNL     1       6.921   5.007  15.324  0.00  0.00    +0.000 A 
ATOM      7  C   UNL     1       6.298   3.793  15.039  0.00  0.00    +0.000 A 
ATOM      8  C   UNL     1       5.147   3.420  15.727  0.00  0.00    +0.000 A 
ATOM      9  C   UNL     1       4.606   4.253  16.716  0.00  0.00    +0.000 A 
ATOM     10  C   UNL     1       5.227   5.492  16.965  0.00  0.00    +0.000 A 
BRANCH   9  11
ATOM     11  C   UNL     1       3.454   3.835  17.505  0.00  0.00    +0.000 A 
ATOM     12  N   UNL     1       3.205   2.698  18.124  0.00  0.00    +0.000 NA
ATOM     13  N   UNL     1       1.934   2.811  18.657  0.00  0.00    +0.000 NA
ATOM     14  C   UNL     1       1.504   4.002  18.319  0.00  0.00    +0.000 A 
ATOM     15  O   UNL     1       2.404   4.720  17.596  0.00  0.00    +0.000 OA
ENDBRANCH   9  11
ENDBRANCH   3   5
BRANCH   2  16
ATOM     16  C   UNL     1       7.975   8.915  17.927  0.00  0.00    +0.000 C 
BRANCH  16  17
ATOM     17  O   UNL     1       8.893   9.154  18.985  0.00  0.00    +0.000 OA
BRANCH  17  18
ATOM     18  C   UNL     1       9.355  10.441  19.082  0.00  0.00    +0.000 A 
ATOM     19  C   UNL     1      10.097  10.956  20.140  0.00  0.00    +0.000 A 
ATOM     20  C   UNL     1      10.519  12.291  20.136  0.00  0.00    +0.000 A 
ATOM     21  C   UNL     1      10.196  13.159  19.088  0.00  0.00    +0.000 A 
ATOM     22  C   UNL     1       9.440  12.632  18.031  0.00  0.00    +0.000 A 
ATOM     23  C   UNL     1       9.030  11.287  18.024  0.00  0.00    +0.000 A 
BRANCH  21  24
ATOM     24  N   UNL     1      10.603  14.522  19.104  0.00  0.00    +0.000 N 
ATOM     25  C   UNL     1      10.101  15.470  20.070  0.00  0.00    +0.000 C 
ATOM     26  C   UNL     1      10.567  16.818  19.562  0.00  0.00    +0.000 C 
ATOM     27  C   UNL     1      11.851  16.503  18.824  0.00  0.00    +0.000 C 
ATOM     28  C   UNL     1      11.644  15.087  18.346  0.00  0.00    +0.000 C 
ATOM     29  O   UNL     1      12.330  14.583  17.468  0.00  0.00    +0.000 OA
ENDBRANCH  21  24
ENDBRANCH  17  18
ENDBRANCH  16  17
ENDBRANCH   2  16
TORSDOF 6
ENDMDL
MODEL 5
REMARK VINA RESULT:      -8.1      5.835      7.613
REMARK  Name = 
REMARK  6 active torsions:
REMARK  status: ('A' for Active; 'I' for Inactive)
REMARK    1  A    between atoms: C_2  and  C_3
REMARK    2  A    between atoms: C_3  and  O_4
REMARK    3  A    between atoms: O_4  and  C_5
REMARK    4  A    between atoms: C_8  and  N_9
REMARK    5  A    between atoms: N_17  and  C_18
REMARK    6  A    between atoms: C_22  and  C_23
REMARK                            x       y       z     vdW  Elec       q    Type
REMARK                         _______ _______ _______ _____ _____    ______ ____
ROOT
ATOM      1  O   UNL     1       1.814   4.818  18.710  0.00  0.00    +0.000 OA
ATOM      2  C   UNL     1       2.858   5.243  19.199  0.00  0.00    +0.000 C 
ATOM      3  N   UNL     1       3.181   6.578  19.416  0.00  0.00    +0.000 N 
ATOM      4  H   UNL     1       4.119   6.775  19.745  0.00  0.00    +0.000 HD
ENDROOT
BRANCH   3   5
ATOM      5  C   UNL     1       2.338   7.696  19.228  0.00  0.00    +0.000 A 
ATOM      6  C   UNL     1       2.028   8.227  17.975  0.00  0.00    +0.000 A 
ATOM      7  C   UNL     1       1.182   9.328  17.856  0.00  0.00    +0.000 A 
ATOM      8  C   UNL     1       0.611   9.897  18.991  0.00  0.00    +0.000 A 
ATOM      9  C   UNL     1       0.872   9.366  20.261  0.00  0.00    +0.000 A 
ATOM     10  C   UNL     1       1.758   8.277  20.367  0.00  0.00    +0.000 A 
BRANCH   9  11
ATOM     11  C   UNL     1       0.212   9.895  21.449  0.00  0.00    +0.000 A 
ATOM     12  N   UNL     1       0.214  11.109  21.962  0.00  0.00    +0.000 NA
ATOM     13  N   UNL     1      -0.516  11.042  23.134  0.00  0.00    +0.000 NA
ATOM     14  C   UNL     1      -0.903   9.794  23.249  0.00  0.00    +0.000 A 
ATOM     15  O   UNL     1      -0.493   9.002  22.223  0.00  0.00    +0.000 OA
ENDBRANCH   9  11
ENDBRANCH   3   5
BRANCH   2  16
ATOM     16  C   UNL     1       3.932   4.274  19.691  0.00  0.00    +0.000 C 
BRANCH  16  17
ATOM     17  O   UNL     1       5.232   4.688  19.296  0.00  0.00    +0.000 OA
BRANCH  17  18
ATOM     18  C   UNL     1       5.496   4.593  17.954  0.00  0.00    +0.000 A 
ATOM     19  C   UNL     1       4.540   4.534  16.945  0.00  0.00    +0.000 A 
ATOM     20  C   UNL     1       4.923   4.438  15.601  0.00  0.00    +0.000 A 
ATOM     21  C   UNL     1       6.267   4.376  15.225  0.00  0.00    +0.000 A 
ATOM     22  C   UNL     1       7.223   4.427  16.251  0.00  0.00    +0.000 A 
ATOM     23  C   UNL     1       6.842   4.542  17.599  0.00  0.00    +0.000 A 
BRANCH  21  24
ATOM     24  N   UNL     1       6.649   4.248  13.860  0.00  0.00    +0.000 N 
ATOM     25  C   UNL     1       5.909   3.440  12.920  0.00  0.00    +0.000 C 
ATOM     26  C   UNL     1       6.796   3.368  11.694  0.00  0.00    +0.000 C 
ATOM     27  C   UNL     1       7.569   4.670  11.730  0.00  0.00    +0.000 C 
ATOM     28  C   UNL     1       7.640   4.997  13.201  0.00  0.00    +0.000 C 
ATOM     29  O   UNL     1       8.430   5.813  13.654  0.00  0.00    +0.000 OA
ENDBRANCH  21  24
ENDBRANCH  17  18
ENDBRANCH  16  17
ENDBRANCH   2  16
TORSDOF 6
ENDMDL
MODEL 6
REMARK VINA RESULT:      -8.0      1.012      1.530
REMARK  Name = 
REMARK  6 active torsions:
REMARK  status: ('A' for Active; 'I' for Inactive)
REMARK    1  A    between atoms: C_2  and  C_3
REMARK    2  A    between atoms: C_3  and  O_4
REMARK    3  A    between atoms: O_4  and  C_5
REMARK    4  A    between atoms: C_8  and  N_9
REMARK    5  A    between atoms: N_17  and  C_18
REMARK    6  A    between atoms: C_22  and  C_23
REMARK                            x       y       z     vdW  Elec       q    Type
REMARK                         _______ _______ _______ _____ _____    ______ ____
ROOT
ATOM      1  O   UNL     1       7.767   9.953  17.524  0.00  0.00    +0.000 OA
ATOM      2  C   UNL     1       8.327   9.095  18.201  0.00  0.00    +0.000 C 
ATOM      3  N   UNL     1       9.259   9.319  19.208  0.00  0.00    +0.000 N 
ATOM      4  H   UNL     1       9.698   8.502  19.616  0.00  0.00    +0.000 HD
ENDROOT
BRANCH   3   5
ATOM      5  C   UNL     1       9.660  10.571  19.729  0.00  0.00    +0.000 A 
ATOM      6  C   UNL     1      10.663  11.357  19.161  0.00  0.00    +0.000 A 
ATOM      7  C   UNL     1      11.007  12.587  19.719  0.00  0.00    +0.000 A 
ATOM      8  C   UNL     1      10.330  13.060  20.839  0.00  0.00    +0.000 A 
ATOM      9  C   UNL     1       9.293  12.312  21.413  0.00  0.00    +0.000 A 
ATOM     10  C   UNL     1       8.984  11.056  20.859  0.00  0.00    +0.000 A 
BRANCH   9  11
ATOM     11  C   UNL     1       8.517  12.835  22.532  0.00  0.00    +0.000 A 
ATOM     12  N   UNL     1       7.551  13.731  22.561  0.00  0.00    +0.000 NA
ATOM     13  N   UNL     1       7.219  13.907  23.891  0.00  0.00    +0.000 NA
ATOM     14  C   UNL     1       8.009  13.112  24.570  0.00  0.00    +0.000 A 
ATOM     15  O   UNL     1       8.856  12.391  23.789  0.00  0.00    +0.000 OA
ENDBRANCH   9  11
ENDBRANCH   3   5
BRANCH   2  16
ATOM     16  C   UNL     1       7.979   7.618  18.018  0.00  0.00    +0.000 C 
BRANCH  16  17
ATOM     17  O   UNL     1       6.950   7.438  17.055  0.00  0.00    +0.000 OA
BRANCH  17  18
ATOM     18  C   UNL     1       5.870   6.709  17.479  0.00  0.00    +0.000 A 
ATOM     19  C   UNL     1       4.551   6.916  17.086  0.00  0.00    +0.000 A 
ATOM     20  C   UNL     1       3.521   6.108  17.583  0.00  0.00    +0.000 A 
ATOM     21  C   UNL     1       3.770   5.085  18.503  0.00  0.00    +0.000 A 
ATOM     22  C   UNL     1       5.102   4.891  18.899  0.00  0.00    +0.000 A 
ATOM     23  C   UNL     1       6.140   5.688  18.388  0.00  0.00    +0.000 A 
BRANCH  21  24
ATOM     24  N   UNL     1       2.715   4.287  19.027  0.00  0.00    +0.000 N 
ATOM     25  C   UNL     1       2.484   2.928  18.599  0.00  0.00    +0.000 C 
ATOM     26  C   UNL     1       1.136   2.564  19.186  0.00  0.00    +0.000 C 
ATOM     27  C   UNL     1       1.053   3.401  20.446  0.00  0.00    +0.000 C 
ATOM     28  C   UNL     1       1.893   4.611  20.122  0.00  0.00    +0.000 C 
ATOM     29  O   UNL     1       1.834   5.645  20.772  0.00  0.00    +0.000 OA
ENDBRANCH  21  24
ENDBRANCH  17  18
ENDBRANCH  16  17
ENDBRANCH   2  16
TORSDOF 6
ENDMDL
MODEL 7
REMARK VINA RESULT:      -7.9      6.558     10.130
REMARK  Name = 
REMARK  6 active torsions:
REMARK  status: ('A' for Active; 'I' for Inactive)
REMARK    1  A    between atoms: C_2  and  C_3
REMARK    2  A    between atoms: C_3  and  O_4
REMARK    3  A    between atoms: O_4  and  C_5
REMARK    4  A    between atoms: C_8  and  N_9
REMARK    5  A    between atoms: N_17  and  C_18
REMARK    6  A    between atoms: C_22  and  C_23
REMARK                            x       y       z     vdW  Elec       q    Type
REMARK                         _______ _______ _______ _____ _____    ______ ____
ROOT
ATOM      1  O   UNL     1       1.903   6.072  20.780  0.00  0.00    +0.000 OA
ATOM      2  C   UNL     1       2.148   7.038  20.061  0.00  0.00    +0.000 C 
ATOM      3  N   UNL     1       2.779   7.004  18.823  0.00  0.00    +0.000 N 
ATOM      4  H   UNL     1       2.989   7.897  18.391  0.00  0.00    +0.000 HD
ENDROOT
BRANCH   3   5
ATOM      5  C   UNL     1       3.159   5.853  18.096  0.00  0.00    +0.000 A 
ATOM      6  C   UNL     1       2.419   4.670  18.084  0.00  0.00    +0.000 A 
ATOM      7  C   UNL     1       2.844   3.571  17.340  0.00  0.00    +0.000 A 
ATOM      8  C   UNL     1       4.004   3.651  16.575  0.00  0.00    +0.000 A 
ATOM      9  C   UNL     1       4.751   4.837  16.536  0.00  0.00    +0.000 A 
ATOM     10  C   UNL     1       4.328   5.925  17.322  0.00  0.00    +0.000 A 
BRANCH   9  11
ATOM     11  C   UNL     1       5.917   4.963  15.670  0.00  0.00    +0.000 A 
ATOM     12  N   UNL     1       7.023   5.666  15.817  0.00  0.00    +0.000 NA
ATOM     13  N   UNL     1       7.763   5.481  14.664  0.00  0.00    +0.000 NA
ATOM     14  C   UNL     1       7.052   4.686  13.902  0.00  0.00    +0.000 A 
ATOM     15  O   UNL     1       5.874   4.304  14.463  0.00  0.00    +0.000 OA
ENDBRANCH   9  11
ENDBRANCH   3   5
BRANCH   2  16
ATOM     16  C   UNL     1       1.697   8.440  20.471  0.00  0.00    +0.000 C 
BRANCH  16  17
ATOM     17  O   UNL     1       0.284   8.573  20.415  0.00  0.00    +0.000 OA
BRANCH  17  18
ATOM     18  C   UNL     1      -0.244   9.569  21.195  0.00  0.00    +0.000 A 
ATOM     19  C   UNL     1      -0.488   9.481  22.563  0.00  0.00    +0.000 A 
ATOM     20  C   UNL     1      -1.032  10.565  23.263  0.00  0.00    +0.000 A 
ATOM     21  C   UNL     1      -1.368  11.760  22.621  0.00  0.00    +0.000 A 
ATOM     22  C   UNL     1      -1.125  11.835  21.241  0.00  0.00    +0.000 A 
ATOM     23  C   UNL     1      -0.563  10.755  20.538  0.00  0.00    +0.000 A 
BRANCH  21  24
ATOM     24  N   UNL     1      -1.947  12.846  23.334  0.00  0.00    +0.000 N 
ATOM     25  C   UNL     1      -1.243  14.085  23.566  0.00  0.00    +0.000 C 
ATOM     26  C   UNL     1      -2.097  14.829  24.571  0.00  0.00    +0.000 C 
ATOM     27  C   UNL     1      -3.502  14.344  24.282  0.00  0.00    +0.000 C 
ATOM     28  C   UNL     1      -3.290  12.953  23.738  0.00  0.00    +0.000 C 
ATOM     29  O   UNL     1      -4.194  12.132  23.664  0.00  0.00    +0.000 OA
ENDBRANCH  21  24
ENDBRANCH  17  18
ENDBRANCH  16  17
ENDBRANCH   2  16
TORSDOF 6
ENDMDL
MODEL 8
REMARK VINA RESULT:      -7.9      6.498     10.196
REMARK  Name = 
REMARK  6 active torsions:
REMARK  status: ('A' for Active; 'I' for Inactive)
REMARK    1  A    between atoms: C_2  and  C_3
REMARK    2  A    between atoms: C_3  and  O_4
REMARK    3  A    between atoms: O_4  and  C_5
REMARK    4  A    between atoms: C_8  and  N_9
REMARK    5  A    between atoms: N_17  and  C_18
REMARK    6  A    between atoms: C_22  and  C_23
REMARK                            x       y       z     vdW  Elec       q    Type
REMARK                         _______ _______ _______ _____ _____    ______ ____
ROOT
ATOM      1  O   UNL     1      -0.651  11.951  19.929  0.00  0.00    +0.000 OA
ATOM      2  C   UNL     1      -0.440  10.779  19.626  0.00  0.00    +0.000 C 
ATOM      3  N   UNL     1      -1.193  10.007  18.748  0.00  0.00    +0.000 N 
ATOM      4  H   UNL     1      -0.944   9.028  18.670  0.00  0.00    +0.000 HD
ENDROOT
BRANCH   3   5
ATOM      5  C   UNL     1      -2.272  10.444  17.946  0.00  0.00    +0.000 A 
ATOM      6  C   UNL     1      -3.264  11.315  18.397  0.00  0.00    +0.000 A 
ATOM      7  C   UNL     1      -4.300  11.714  17.554  0.00  0.00    +0.000 A 
ATOM      8  C   UNL     1      -4.339  11.268  16.236  0.00  0.00    +0.000 A 
ATOM      9  C   UNL     1      -3.337  10.422  15.740  0.00  0.00    +0.000 A 
ATOM     10  C   UNL     1      -2.320   9.999  16.616  0.00  0.00    +0.000 A 
BRANCH   9  11
ATOM     11  C   UNL     1      -3.317  10.020  14.339  0.00  0.00    +0.000 A 
ATOM     12  N   UNL     1      -2.312   9.675  13.560  0.00  0.00    +0.000 NA
ATOM     13  N   UNL     1      -2.845   9.460  12.302  0.00  0.00    +0.000 NA
ATOM     14  C   UNL     1      -4.130   9.694  12.409  0.00  0.00    +0.000 A 
ATOM     15  O   UNL     1      -4.516  10.047  13.664  0.00  0.00    +0.000 OA
ENDBRANCH   9  11
ENDBRANCH   3   5
BRANCH   2  16
ATOM     16  C   UNL     1       0.779  10.045  20.184  0.00  0.00    +0.000 C 
BRANCH  16  17
ATOM     17  O   UNL     1       1.686   9.679  19.154  0.00  0.00    +0.000 OA
BRANCH  17  18
ATOM     18  C   UNL     1       1.951   8.338  19.053  0.00  0.00    +0.000 A 
ATOM     19  C   UNL     1       2.349   7.678  17.894  0.00  0.00    +0.000 A 
ATOM     20  C   UNL     1       2.593   6.299  17.904  0.00  0.00    +0.000 A 
ATOM     21  C   UNL     1       2.429   5.534  19.062  0.00  0.00    +0.000 A 
ATOM     22  C   UNL     1       2.019   6.208  20.223  0.00  0.00    +0.000 A 
ATOM     23  C   UNL     1       1.790   7.595  20.219  0.00  0.00    +0.000 A 
BRANCH  21  24
ATOM     24  N   UNL     1       2.651   4.129  19.059  0.00  0.00    +0.000 N 
ATOM     25  C   UNL     1       1.605   3.178  18.761  0.00  0.00    +0.000 C 
ATOM     26  C   UNL     1       2.191   1.833  19.134  0.00  0.00    +0.000 C 
ATOM     27  C   UNL     1       3.678   2.011  18.909  0.00  0.00    +0.000 C 
ATOM     28  C   UNL     1       3.897   3.484  19.151  0.00  0.00    +0.000 C 
ATOM     29  O   UNL     1       5.007   3.959  19.351  0.00  0.00    +0.000 OA
ENDBRANCH  21  24
ENDBRANCH  17  18
ENDBRANCH  16  17
ENDBRANCH   2  16
TORSDOF 6
ENDMDL
MODEL 9
REMARK VINA RESULT:      -7.9      6.757      9.763
REMARK  Name = 
REMARK  6 active torsions:
REMARK  status: ('A' for Active; 'I' for Inactive)
REMARK    1  A    between atoms: C_2  and  C_3
REMARK    2  A    between atoms: C_3  and  O_4
REMARK    3  A    between atoms: O_4  and  C_5
REMARK    4  A    between atoms: C_8  and  N_9
REMARK    5  A    between atoms: N_17  and  C_18
REMARK    6  A    between atoms: C_22  and  C_23
REMARK                            x       y       z     vdW  Elec       q    Type
REMARK                         _______ _______ _______ _____ _____    ______ ____
ROOT
ATOM      1  O   UNL     1       2.196   8.834  17.308  0.00  0.00    +0.000 OA
ATOM      2  C   UNL     1       1.782   8.580  18.436  0.00  0.00    +0.000 C 
ATOM      3  N   UNL     1       1.799   7.336  19.058  0.00  0.00    +0.000 N 
ATOM      4  H   UNL     1       1.339   7.269  19.959  0.00  0.00    +0.000 HD
ENDROOT
BRANCH   3   5
ATOM      5  C   UNL     1       2.394   6.152  18.569  0.00  0.00    +0.000 A 
ATOM      6  C   UNL     1       1.684   5.148  17.910  0.00  0.00    +0.000 A 
ATOM      7  C   UNL     1       2.331   4.004  17.444  0.00  0.00    +0.000 A 
ATOM      8  C   UNL     1       3.707   3.864  17.608  0.00  0.00    +0.000 A 
ATOM      9  C   UNL     1       4.455   4.871  18.232  0.00  0.00    +0.000 A 
ATOM     10  C   UNL     1       3.780   6.001  18.730  0.00  0.00    +0.000 A 
BRANCH   9  11
ATOM     11  C   UNL     1       5.907   4.778  18.331  0.00  0.00    +0.000 A 
ATOM     12  N   UNL     1       6.716   5.030  19.340  0.00  0.00    +0.000 NA
ATOM     13  N   UNL     1       8.003   4.848  18.867  0.00  0.00    +0.000 NA
ATOM     14  C   UNL     1       7.881   4.506  17.608  0.00  0.00    +0.000 A 
ATOM     15  O   UNL     1       6.590   4.430  17.188  0.00  0.00    +0.000 OA
ENDBRANCH   9  11
ENDBRANCH   3   5
BRANCH   2  16
ATOM     16  C   UNL     1       1.232   9.694  19.327  0.00  0.00    +0.000 C 
BRANCH  16  17
ATOM     17  O   UNL     1       0.661   9.176  20.520  0.00  0.00    +0.000 OA
BRANCH  17  18
ATOM     18  C   UNL     1      -0.117  10.054  21.228  0.00  0.00    +0.000 A 
ATOM     19  C   UNL     1      -0.407   9.963  22.587  0.00  0.00    +0.000 A 
ATOM     20  C   UNL     1      -1.216  10.921  23.211  0.00  0.00    +0.000 A 
ATOM     21  C   UNL     1      -1.777  11.984  22.498  0.00  0.00    +0.000 A 
ATOM     22  C   UNL     1      -1.484  12.062  21.128  0.00  0.00    +0.000 A 
ATOM     23  C   UNL     1      -0.658  11.113  20.503  0.00  0.00    +0.000 A 
BRANCH  21  24
ATOM     24  N   UNL     1      -2.621  12.937  23.133  0.00  0.00    +0.000 N 
ATOM     25  C   UNL     1      -2.103  14.079  23.848  0.00  0.00    +0.000 C 
ATOM     26  C   UNL     1      -3.300  14.651  24.578  0.00  0.00    +0.000 C 
ATOM     27  C   UNL     1      -4.472  14.289  23.690  0.00  0.00    +0.000 C 
ATOM     28  C   UNL     1      -4.020  13.020  23.011  0.00  0.00    +0.000 C 
ATOM     29  O   UNL     1      -4.798  12.265  22.444  0.00  0.00    +0.000 OA
ENDBRANCH  21  24
ENDBRANCH  17  18
ENDBRANCH  16  17
ENDBRANCH   2  16
TORSDOF 6
ENDMDL
