MODEL 1
REMARK VINA RESULT:      -8.4      0.000      0.000
REMARK  Name = 
REMARK  7 active torsions:
REMARK  status: ('A' for Active; 'I' for Inactive)
REMARK    1  A    between atoms: C_1  and  N_2
REMARK    2  A    between atoms: C_6  and  C_7
REMARK    3  A    between atoms: C_7  and  N_8
REMARK    4  A    between atoms: N_8  and  C_9
REMARK    5  A    between atoms: C_9  and  C_10
REMARK    6  A    between atoms: C_14  and  N_15
REMARK    7  A    between atoms: C_22  and  C_23
REMARK                            x       y       z     vdW  Elec       q    Type
REMARK                         _______ _______ _______ _____ _____    ______ ____
ROOT
ATOM      1  C   UNL     1       3.832   4.772  17.657  0.00  0.00    +0.000 A 
ATOM      2  C   UNL     1       4.017   3.890  18.729  0.00  0.00    +0.000 A 
ATOM      3  C   UNL     1       3.496   4.195  19.980  0.00  0.00    +0.000 A 
ATOM      4  C   UNL     1       2.810   5.394  20.171  0.00  0.00    +0.000 A 
ATOM      5  C   UNL     1       2.583   6.280  19.111  0.00  0.00    +0.000 A 
ATOM      6  C   UNL     1       3.059   5.937  17.842  0.00  0.00    +0.000 A 
ENDROOT
BRANCH   5   7
ATOM      7  N   UNL     1       1.901   7.499  19.336  0.00  0.00    +0.000 N 
ATOM      8  C   UNL     1       1.146   7.781  20.534  0.00  0.00    +0.000 C 
ATOM      9  C   UNL     1       0.915   9.240  20.376  0.00  0.00    +0.000 C 
ATOM     10  C   UNL     1       1.329   9.716  19.205  0.00  0.00    +0.000 C 
ATOM     11  C   UNL     1       1.284  11.106  18.736  0.00  0.00    +0.000 C 
ATOM     12  C   UNL     1       0.794  12.074  19.812  0.00  0.00    +0.000 C 
ATOM     13  N   UNL     1       0.327  11.494  21.079  0.00  0.00    +0.000 NA
ATOM     14  C   UNL     1       0.395  10.228  21.341  0.00  0.00    +0.000 C 
ATOM     15  C   UNL     1       1.965   8.607  18.493  0.00  0.00    +0.000 C 
ATOM     16  O   UNL     1       2.433   8.722  17.375  0.00  0.00    +0.000 OA
BRANCH  14  17
ATOM     17  C   UNL     1      -0.049   9.731  22.726  0.00  0.00    +0.000 C 
ATOM     18  F   UNL     1       0.993   9.335  23.511  0.00  0.00    +0.000 F 
ATOM     19  F   UNL     1      -0.701  10.697  23.428  0.00  0.00    +0.000 F 
ATOM     20  F   UNL     1      -0.887   8.663  22.649  0.00  0.00    +0.000 F 
ENDBRANCH  14  17
ENDBRANCH   5   7
BRANCH   1  21
ATOM     21  C   UNL     1       4.559   4.532  16.355  0.00  0.00    +0.000 C 
BRANCH  21  22
ATOM     22  N   UNL     1       5.361   5.694  15.942  0.00  0.00    +0.000 NA
ATOM     23  H   UNL     1       5.115   5.921  14.976  0.00  0.00    +0.000 HD
BRANCH  22  24
ATOM     24  C   UNL     1       6.800   5.397  15.958  0.00  0.00    +0.000 C 
BRANCH  24  30
ATOM     25  C   UNL     1       7.576   8.026  17.441  0.00  0.00    +0.000 C 
ATOM     26  N   UNL     1       7.662   6.691  17.969  0.00  0.00    +0.000 N 
ATOM     27  C   UNL     1       8.090   6.350  19.215  0.00  0.00    +0.000 A 
ATOM     28  N   UNL     1       8.046   5.046  19.353  0.00  0.00    +0.000 NA
ATOM     29  N   UNL     1       7.578   4.518  18.173  0.00  0.00    +0.000 NA
ATOM     30  C   UNL     1       7.337   5.514  17.344  0.00  0.00    +0.000 A 
ENDBRANCH  24  30
ENDBRANCH  22  24
ENDBRANCH  21  22
ENDBRANCH   1  21
TORSDOF 6
ENDMDL
MODEL 2
REMARK VINA RESULT:      -8.3      1.713      2.672
REMARK  Name = 
REMARK  7 active torsions:
REMARK  status: ('A' for Active; 'I' for Inactive)
REMARK    1  A    between atoms: C_1  and  N_2
REMARK    2  A    between atoms: C_6  and  C_7
REMARK    3  A    between atoms: C_7  and  N_8
REMARK    4  A    between atoms: N_8  and  C_9
REMARK    5  A    between atoms: C_9  and  C_10
REMARK    6  A    between atoms: C_14  and  N_15
REMARK    7  A    between atoms: C_22  and  C_23
REMARK                            x       y       z     vdW  Elec       q    Type
REMARK                         _______ _______ _______ _____ _____    ______ ____
ROOT
ATOM      1  C   UNL     1       3.944   5.476  17.626  0.00  0.00    +0.000 A 
ATOM      2  C   UNL     1       4.101   4.503  18.621  0.00  0.00    +0.000 A 
ATOM      3  C   UNL     1       3.472   4.656  19.849  0.00  0.00    +0.000 A 
ATOM      4  C   UNL     1       2.704   5.794  20.098  0.00  0.00    +0.000 A 
ATOM      5  C   UNL     1       2.506   6.768  19.112  0.00  0.00    +0.000 A 
ATOM      6  C   UNL     1       3.093   6.576  17.858  0.00  0.00    +0.000 A 
ENDROOT
BRANCH   5   7
ATOM      7  N   UNL     1       1.739   7.922  19.397  0.00  0.00    +0.000 N 
ATOM      8  C   UNL     1       0.980   8.096  20.612  0.00  0.00    +0.000 C 
ATOM      9  C   UNL     1       0.641   9.539  20.520  0.00  0.00    +0.000 C 
ATOM     10  C   UNL     1       1.004  10.095  19.368  0.00  0.00    +0.000 C 
ATOM     11  C   UNL     1       0.851  11.496  18.960  0.00  0.00    +0.000 C 
ATOM     12  C   UNL     1       0.305  12.378  20.082  0.00  0.00    +0.000 C 
ATOM     13  N   UNL     1      -0.103  11.711  21.327  0.00  0.00    +0.000 NA
ATOM     14  C   UNL     1       0.061  10.444  21.532  0.00  0.00    +0.000 C 
ATOM     15  C   UNL     1       1.711   9.067  18.602  0.00  0.00    +0.000 C 
ATOM     16  O   UNL     1       2.155   9.264  17.486  0.00  0.00    +0.000 OA
BRANCH  14  17
ATOM     17  C   UNL     1      -0.328   9.856  22.898  0.00  0.00    +0.000 C 
ATOM     18  F   UNL     1       0.750   9.512  23.659  0.00  0.00    +0.000 F 
ATOM     19  F   UNL     1      -1.047  10.737  23.644  0.00  0.00    +0.000 F 
ATOM     20  F   UNL     1      -1.079   8.729  22.782  0.00  0.00    +0.000 F 
ENDBRANCH  14  17
ENDBRANCH   5   7
BRANCH   1  21
ATOM     21  C   UNL     1       4.780   5.403  16.369  0.00  0.00    +0.000 C 
BRANCH  21  22
ATOM     22  N   UNL     1       5.962   4.545  16.534  0.00  0.00    +0.000 NA
ATOM     23  H   UNL     1       6.785   5.149  16.601  0.00  0.00    +0.000 HD
BRANCH  22  24
ATOM     24  C   UNL     1       6.168   3.670  15.372  0.00  0.00    +0.000 C 
BRANCH  24  30
ATOM     25  C   UNL     1       5.825   3.329  12.293  0.00  0.00    +0.000 C 
ATOM     26  N   UNL     1       6.733   4.225  12.956  0.00  0.00    +0.000 N 
ATOM     27  C   UNL     1       7.594   5.085  12.348  0.00  0.00    +0.000 A 
ATOM     28  N   UNL     1       8.276   5.741  13.257  0.00  0.00    +0.000 NA
ATOM     29  N   UNL     1       7.855   5.302  14.490  0.00  0.00    +0.000 NA
ATOM     30  C   UNL     1       6.916   4.395  14.305  0.00  0.00    +0.000 A 
ENDBRANCH  24  30
ENDBRANCH  22  24
ENDBRANCH  21  22
ENDBRANCH   1  21
TORSDOF 6
ENDMDL
MODEL 3
REMARK VINA RESULT:      -8.3      3.806      5.244
REMARK  Name = 
REMARK  7 active torsions:
REMARK  status: ('A' for Active; 'I' for Inactive)
REMARK    1  A    between atoms: C_1  and  N_2
REMARK    2  A    between atoms: C_6  and  C_7
REMARK    3  A    between atoms: C_7  and  N_8
REMARK    4  A    between atoms: N_8  and  C_9
REMARK    5  A    between atoms: C_9  and  C_10
REMARK    6  A    between atoms: C_14  and  N_15
REMARK    7  A    between atoms: C_22  and  C_23
REMARK                            x       y       z     vdW  Elec       q    Type
REMARK                         _______ _______ _______ _____ _____    ______ ____
ROOT
ATOM      1  C   UNL     1       2.276   6.779  19.864  0.00  0.00    +0.000 A 
ATOM      2  C   UNL     1       3.041   6.763  18.692  0.00  0.00    +0.000 A 
ATOM      3  C   UNL     1       2.950   7.812  17.786  0.00  0.00    +0.000 A 
ATOM      4  C   UNL     1       2.075   8.868  18.036  0.00  0.00    +0.000 A 
ATOM      5  C   UNL     1       1.320   8.926  19.214  0.00  0.00    +0.000 A 
ATOM      6  C   UNL     1       1.464   7.896  20.148  0.00  0.00    +0.000 A 
ENDROOT
BRANCH   5   7
ATOM      7  N   UNL     1       0.426   9.999  19.433  0.00  0.00    +0.000 N 
ATOM      8  C   UNL     1      -0.682  10.307  18.560  0.00  0.00    +0.000 C 
ATOM      9  C   UNL     1      -1.426  11.286  19.393  0.00  0.00    +0.000 C 
ATOM     10  C   UNL     1      -0.786  11.623  20.509  0.00  0.00    +0.000 C 
ATOM     11  C   UNL     1      -1.243  12.534  21.565  0.00  0.00    +0.000 C 
ATOM     12  C   UNL     1      -2.672  13.025  21.339  0.00  0.00    +0.000 C 
ATOM     13  N   UNL     1      -3.326  12.642  20.079  0.00  0.00    +0.000 NA
ATOM     14  C   UNL     1      -2.777  11.852  19.214  0.00  0.00    +0.000 C 
ATOM     15  C   UNL     1       0.434  10.815  20.564  0.00  0.00    +0.000 C 
ATOM     16  O   UNL     1       1.246  10.907  21.465  0.00  0.00    +0.000 OA
BRANCH  14  17
ATOM     17  C   UNL     1      -3.575  11.450  17.963  0.00  0.00    +0.000 C 
ATOM     18  F   UNL     1      -4.736  12.149  17.822  0.00  0.00    +0.000 F 
ATOM     19  F   UNL     1      -2.868  11.663  16.820  0.00  0.00    +0.000 F 
ATOM     20  F   UNL     1      -3.926  10.137  17.972  0.00  0.00    +0.000 F 
ENDBRANCH  14  17
ENDBRANCH   5   7
BRANCH   1  21
ATOM     21  C   UNL     1       2.233   5.554  20.748  0.00  0.00    +0.000 C 
BRANCH  21  22
ATOM     22  N   UNL     1       1.008   4.766  20.549  0.00  0.00    +0.000 NA
ATOM     23  H   UNL     1       0.361   4.988  21.309  0.00  0.00    +0.000 HD
BRANCH  22  24
ATOM     24  C   UNL     1       1.270   3.322  20.621  0.00  0.00    +0.000 C 
BRANCH  24  30
ATOM     25  C   UNL     1       4.188   2.277  20.293  0.00  0.00    +0.000 C 
ATOM     26  N   UNL     1       3.200   2.388  19.254  0.00  0.00    +0.000 N 
ATOM     27  C   UNL     1       3.371   2.047  17.948  0.00  0.00    +0.000 A 
ATOM     28  N   UNL     1       2.267   2.289  17.282  0.00  0.00    +0.000 NA
ATOM     29  N   UNL     1       1.350   2.801  18.169  0.00  0.00    +0.000 NA
ATOM     30  C   UNL     1       1.913   2.850  19.361  0.00  0.00    +0.000 A 
ENDBRANCH  24  30
ENDBRANCH  22  24
ENDBRANCH  21  22
ENDBRANCH   1  21
TORSDOF 6
ENDMDL
MODEL 4
REMARK VINA RESULT:      -8.3      2.538      3.870
REMARK  Name = 
REMARK  7 active torsions:
REMARK  status: ('A' for Active; 'I' for Inactive)
REMARK    1  A    between atoms: C_1  and  N_2
REMARK    2  A    between atoms: C_6  and  C_7
REMARK    3  A    between atoms: C_7  and  N_8
REMARK    4  A    between atoms: N_8  and  C_9
REMARK    5  A    between atoms: C_9  and  C_10
REMARK    6  A    between atoms: C_14  and  N_15
REMARK    7  A    between atoms: C_22  and  C_23
REMARK                            x       y       z     vdW  Elec       q    Type
REMARK                         _______ _______ _______ _____ _____    ______ ____
ROOT
ATOM      1  C   UNL     1       3.086   4.950  17.556  0.00  0.00    +0.000 A 
ATOM      2  C   UNL     1       4.399   5.241  17.165  0.00  0.00    +0.000 A 
ATOM      3  C   UNL     1       4.910   6.521  17.339  0.00  0.00    +0.000 A 
ATOM      4  C   UNL     1       4.103   7.521  17.881  0.00  0.00    +0.000 A 
ATOM      5  C   UNL     1       2.797   7.252  18.308  0.00  0.00    +0.000 A 
ATOM      6  C   UNL     1       2.312   5.946  18.185  0.00  0.00    +0.000 A 
ENDROOT
BRANCH   5   7
ATOM      7  N   UNL     1       1.994   8.289  18.836  0.00  0.00    +0.000 N 
ATOM      8  C   UNL     1       1.316   8.206  20.108  0.00  0.00    +0.000 C 
ATOM      9  C   UNL     1       0.896   9.619  20.289  0.00  0.00    +0.000 C 
ATOM     10  C   UNL     1       1.146  10.384  19.230  0.00  0.00    +0.000 C 
ATOM     11  C   UNL     1       0.891  11.821  19.081  0.00  0.00    +0.000 C 
ATOM     12  C   UNL     1       0.382  12.464  20.371  0.00  0.00    +0.000 C 
ATOM     13  N   UNL     1       0.100  11.571  21.504  0.00  0.00    +0.000 NA
ATOM     14  C   UNL     1       0.344  10.300  21.476  0.00  0.00    +0.000 C 
ATOM     15  C   UNL     1       1.849   9.548  18.255  0.00  0.00    +0.000 C 
ATOM     16  O   UNL     1       2.200   9.960  17.165  0.00  0.00    +0.000 OA
BRANCH  14  17
ATOM     17  C   UNL     1       0.087   9.466  22.741  0.00  0.00    +0.000 C 
ATOM     18  F   UNL     1      -0.548  10.166  23.723  0.00  0.00    +0.000 F 
ATOM     19  F   UNL     1      -0.697   8.384  22.485  0.00  0.00    +0.000 F 
ATOM     20  F   UNL     1       1.237   8.999  23.296  0.00  0.00    +0.000 F 
ENDBRANCH  14  17
ENDBRANCH   5   7
BRANCH   1  21
ATOM     21  C   UNL     1       2.473   3.618  17.191  0.00  0.00    +0.000 C 
BRANCH  21  22
ATOM     22  N   UNL     1       1.138   3.438  17.780  0.00  0.00    +0.000 NA
ATOM     23  H   UNL     1       0.953   4.234  18.394  0.00  0.00    +0.000 HD
BRANCH  22  24
ATOM     24  C   UNL     1       1.068   2.230  18.614  0.00  0.00    +0.000 C 
BRANCH  24  30
ATOM     25  C   UNL     1       4.035   1.890  19.505  0.00  0.00    +0.000 C 
ATOM     26  N   UNL     1       2.946   2.350  20.323  0.00  0.00    +0.000 N 
ATOM     27  C   UNL     1       3.029   2.723  21.629  0.00  0.00    +0.000 A 
ATOM     28  N   UNL     1       1.842   3.077  22.062  0.00  0.00    +0.000 NA
ATOM     29  N   UNL     1       0.959   2.933  21.018  0.00  0.00    +0.000 NA
ATOM     30  C   UNL     1       1.630   2.503  19.968  0.00  0.00    +0.000 A 
ENDBRANCH  24  30
ENDBRANCH  22  24
ENDBRANCH  21  22
ENDBRANCH   1  21
TORSDOF 6
ENDMDL
MODEL 5
REMARK VINA RESULT:      -8.2      1.519      2.507
REMARK  Name = 
REMARK  7 active torsions:
REMARK  status: ('A' for Active; 'I' for Inactive)
REMARK    1  A    between atoms: C_1  and  N_2
REMARK    2  A    between atoms: C_6  and  C_7
REMARK    3  A    between atoms: C_7  and  N_8
REMARK    4  A    between atoms: N_8  and  C_9
REMARK    5  A    between atoms: C_9  and  C_10
REMARK    6  A    between atoms: C_14  and  N_15
REMARK    7  A    between atoms: C_22  and  C_23
REMARK                            x       y       z     vdW  Elec       q    Type
REMARK                         _______ _______ _______ _____ _____    ______ ____
ROOT
ATOM      1  C   UNL     1       4.305   4.682  19.216  0.00  0.00    +0.000 A 
ATOM      2  C   UNL     1       3.668   3.543  19.723  0.00  0.00    +0.000 A 
ATOM      3  C   UNL     1       2.392   3.641  20.263  0.00  0.00    +0.000 A 
ATOM      4  C   UNL     1       1.758   4.882  20.321  0.00  0.00    +0.000 A 
ATOM      5  C   UNL     1       2.358   6.032  19.794  0.00  0.00    +0.000 A 
ATOM      6  C   UNL     1       3.617   5.912  19.198  0.00  0.00    +0.000 A 
ENDROOT
BRANCH   5   7
ATOM      7  N   UNL     1       1.701   7.281  19.884  0.00  0.00    +0.000 N 
ATOM      8  C   UNL     1       0.917   7.691  21.025  0.00  0.00    +0.000 C 
ATOM      9  C   UNL     1       0.729   9.134  20.726  0.00  0.00    +0.000 C 
ATOM     10  C   UNL     1       1.191   9.490  19.531  0.00  0.00    +0.000 C 
ATOM     11  C   UNL     1       1.196  10.830  18.934  0.00  0.00    +0.000 C 
ATOM     12  C   UNL     1       0.699  11.905  19.900  0.00  0.00    +0.000 C 
ATOM     13  N   UNL     1       0.178  11.455  21.199  0.00  0.00    +0.000 NA
ATOM     14  C   UNL     1       0.205  10.218  21.578  0.00  0.00    +0.000 C 
ATOM     15  C   UNL     1       1.820   8.304  18.945  0.00  0.00    +0.000 C 
ATOM     16  O   UNL     1       2.324   8.305  17.838  0.00  0.00    +0.000 OA
BRANCH  14  17
ATOM     17  C   UNL     1      -0.293   9.862  22.988  0.00  0.00    +0.000 C 
ATOM     18  F   UNL     1      -0.969  10.881  23.590  0.00  0.00    +0.000 F 
ATOM     19  F   UNL     1      -1.147   8.803  22.972  0.00  0.00    +0.000 F 
ATOM     20  F   UNL     1       0.724   9.538  23.830  0.00  0.00    +0.000 F 
ENDBRANCH  14  17
ENDBRANCH   5   7
BRANCH   1  21
ATOM     21  C   UNL     1       5.758   4.609  18.808  0.00  0.00    +0.000 C 
BRANCH  21  22
ATOM     22  N   UNL     1       5.959   3.788  17.605  0.00  0.00    +0.000 NA
ATOM     23  H   UNL     1       6.960   3.768  17.399  0.00  0.00    +0.000 HD
BRANCH  22  24
ATOM     24  C   UNL     1       5.293   4.369  16.431  0.00  0.00    +0.000 C 
BRANCH  24  30
ATOM     25  C   UNL     1       5.209   3.607  13.410  0.00  0.00    +0.000 C 
ATOM     26  N   UNL     1       6.227   4.382  14.066  0.00  0.00    +0.000 N 
ATOM     27  C   UNL     1       7.326   4.924  13.474  0.00  0.00    +0.000 A 
ATOM     28  N   UNL     1       8.042   5.557  14.372  0.00  0.00    +0.000 NA
ATOM     29  N   UNL     1       7.400   5.430  15.582  0.00  0.00    +0.000 NA
ATOM     30  C   UNL     1       6.299   4.729  15.391  0.00  0.00    +0.000 A 
ENDBRANCH  24  30
ENDBRANCH  22  24
ENDBRANCH  21  22
ENDBRANCH   1  21
TORSDOF 6
ENDMDL
MODEL 6
REMARK VINA RESULT:      -8.1      1.178      2.283
REMARK  Name = 
REMARK  7 active torsions:
REMARK  status: ('A' for Active; 'I' for Inactive)
REMARK    1  A    between atoms: C_1  and  N_2
REMARK    2  A    between atoms: C_6  and  C_7
REMARK    3  A    between atoms: C_7  and  N_8
REMARK    4  A    between atoms: N_8  and  C_9
REMARK    5  A    between atoms: C_9  and  C_10
REMARK    6  A    between atoms: C_14  and  N_15
REMARK    7  A    between atoms: C_22  and  C_23
REMARK                            x       y       z     vdW  Elec       q    Type
REMARK                         _______ _______ _______ _____ _____    ______ ____
ROOT
ATOM      1  C   UNL     1       4.595   5.227  18.957  0.00  0.00    +0.000 A 
ATOM      2  C   UNL     1       3.898   4.129  18.437  0.00  0.00    +0.000 A 
ATOM      3  C   UNL     1       2.538   4.228  18.176  0.00  0.00    +0.000 A 
ATOM      4  C   UNL     1       1.863   5.416  18.456  0.00  0.00    +0.000 A 
ATOM      5  C   UNL     1       2.540   6.539  18.947  0.00  0.00    +0.000 A 
ATOM      6  C   UNL     1       3.920   6.449  19.150  0.00  0.00    +0.000 A 
ENDROOT
BRANCH   5   7
ATOM      7  N   UNL     1       1.828   7.725  19.242  0.00  0.00    +0.000 N 
ATOM      8  C   UNL     1       1.094   7.933  20.468  0.00  0.00    +0.000 C 
ATOM      9  C   UNL     1       0.817   9.390  20.379  0.00  0.00    +0.000 C 
ATOM     10  C   UNL     1       1.186   9.928  19.221  0.00  0.00    +0.000 C 
ATOM     11  C   UNL     1       1.088  11.334  18.813  0.00  0.00    +0.000 C 
ATOM     12  C   UNL     1       0.598  12.240  19.942  0.00  0.00    +0.000 C 
ATOM     13  N   UNL     1       0.179  11.592  21.193  0.00  0.00    +0.000 NA
ATOM     14  C   UNL     1       0.291  10.319  21.398  0.00  0.00    +0.000 C 
ATOM     15  C   UNL     1       1.838   8.870  18.446  0.00  0.00    +0.000 C 
ATOM     16  O   UNL     1       2.274   9.047  17.324  0.00  0.00    +0.000 OA
BRANCH  14  17
ATOM     17  C   UNL     1      -0.102   9.749  22.770  0.00  0.00    +0.000 C 
ATOM     18  F   UNL     1      -0.910   8.655  22.684  0.00  0.00    +0.000 F 
ATOM     19  F   UNL     1       0.985   9.357  23.488  0.00  0.00    +0.000 F 
ATOM     20  F   UNL     1      -0.775  10.653  23.532  0.00  0.00    +0.000 F 
ENDBRANCH  14  17
ENDBRANCH   5   7
BRANCH   1  21
ATOM     21  C   UNL     1       6.024   5.057  19.418  0.00  0.00    +0.000 C 
BRANCH  21  22
ATOM     22  N   UNL     1       6.838   4.311  18.448  0.00  0.00    +0.000 NA
ATOM     23  H   UNL     1       7.659   3.947  18.936  0.00  0.00    +0.000 HD
BRANCH  22  24
ATOM     24  C   UNL     1       7.333   5.178  17.369  0.00  0.00    +0.000 C 
BRANCH  24  30
ATOM     25  C   UNL     1       5.105   6.738  15.848  0.00  0.00    +0.000 C 
ATOM     26  N   UNL     1       5.730   5.515  15.425  0.00  0.00    +0.000 N 
ATOM     27  C   UNL     1       5.459   4.833  14.279  0.00  0.00    +0.000 A 
ATOM     28  N   UNL     1       6.208   3.758  14.220  0.00  0.00    +0.000 NA
ATOM     29  N   UNL     1       6.989   3.731  15.351  0.00  0.00    +0.000 NA
ATOM     30  C   UNL     1       6.705   4.799  16.071  0.00  0.00    +0.000 A 
ENDBRANCH  24  30
ENDBRANCH  22  24
ENDBRANCH  21  22
ENDBRANCH   1  21
TORSDOF 6
ENDMDL
MODEL 7
REMARK VINA RESULT:      -8.1      2.142      3.969
REMARK  Name = 
REMARK  7 active torsions:
REMARK  status: ('A' for Active; 'I' for Inactive)
REMARK    1  A    between atoms: C_1  and  N_2
REMARK    2  A    between atoms: C_6  and  C_7
REMARK    3  A    between atoms: C_7  and  N_8
REMARK    4  A    between atoms: N_8  and  C_9
REMARK    5  A    between atoms: C_9  and  C_10
REMARK    6  A    between atoms: C_14  and  N_15
REMARK    7  A    between atoms: C_22  and  C_23
REMARK                            x       y       z     vdW  Elec       q    Type
REMARK                         _______ _______ _______ _____ _____    ______ ____
ROOT
ATOM      1  C   UNL     1       4.405   5.303  19.040  0.00  0.00    +0.000 A 
ATOM      2  C   UNL     1       4.954   5.398  17.755  0.00  0.00    +0.000 A 
ATOM      3  C   UNL     1       4.560   6.421  16.903  0.00  0.00    +0.000 A 
ATOM      4  C   UNL     1       3.597   7.339  17.323  0.00  0.00    +0.000 A 
ATOM      5  C   UNL     1       3.054   7.288  18.612  0.00  0.00    +0.000 A 
ATOM      6  C   UNL     1       3.502   6.290  19.483  0.00  0.00    +0.000 A 
ENDROOT
BRANCH   5   7
ATOM      7  N   UNL     1       2.065   8.219  19.005  0.00  0.00    +0.000 N 
ATOM      8  C   UNL     1       1.351   8.145  20.257  0.00  0.00    +0.000 C 
ATOM      9  C   UNL     1       0.694   9.477  20.278  0.00  0.00    +0.000 C 
ATOM     10  C   UNL     1       0.862  10.167  19.154  0.00  0.00    +0.000 C 
ATOM     11  C   UNL     1       0.379  11.518  18.849  0.00  0.00    +0.000 C 
ATOM     12  C   UNL     1      -0.290  12.187  20.049  0.00  0.00    +0.000 C 
ATOM     13  N   UNL     1      -0.473  11.373  21.260  0.00  0.00    +0.000 NA
ATOM     14  C   UNL     1      -0.020  10.166  21.371  0.00  0.00    +0.000 C 
ATOM     15  C   UNL     1       1.740   9.372  18.292  0.00  0.00    +0.000 C 
ATOM     16  O   UNL     1       2.070   9.730  17.177  0.00  0.00    +0.000 OA
BRANCH  14  17
ATOM     17  C   UNL     1      -0.194   9.427  22.707  0.00  0.00    +0.000 C 
ATOM     18  F   UNL     1      -0.809   8.217  22.573  0.00  0.00    +0.000 F 
ATOM     19  F   UNL     1       1.000   9.176  23.309  0.00  0.00    +0.000 F 
ATOM     20  F   UNL     1      -0.945  10.132  23.595  0.00  0.00    +0.000 F 
ENDBRANCH  14  17
ENDBRANCH   5   7
BRANCH   1  21
ATOM     21  C   UNL     1       4.690   4.086  19.888  0.00  0.00    +0.000 C 
BRANCH  21  22
ATOM     22  N   UNL     1       4.963   2.891  19.075  0.00  0.00    +0.000 NA
ATOM     23  H   UNL     1       4.846   3.144  18.092  0.00  0.00    +0.000 HD
BRANCH  22  24
ATOM     24  C   UNL     1       4.006   1.811  19.355  0.00  0.00    +0.000 C 
BRANCH  24  30
ATOM     25  C   UNL     1       1.811   2.495  21.458  0.00  0.00    +0.000 C 
ATOM     26  N   UNL     1       1.675   2.568  20.029  0.00  0.00    +0.000 N 
ATOM     27  C   UNL     1       0.562   2.959  19.350  0.00  0.00    +0.000 A 
ATOM     28  N   UNL     1       0.789   2.896  18.060  0.00  0.00    +0.000 NA
ATOM     29  N   UNL     1       2.079   2.454  17.885  0.00  0.00    +0.000 NA
ATOM     30  C   UNL     1       2.614   2.268  19.076  0.00  0.00    +0.000 A 
ENDBRANCH  24  30
ENDBRANCH  22  24
ENDBRANCH  21  22
ENDBRANCH   1  21
TORSDOF 6
ENDMDL
MODEL 8
REMARK VINA RESULT:      -8.1      3.725      8.457
REMARK  Name = 
REMARK  7 active torsions:
REMARK  status: ('A' for Active; 'I' for Inactive)
REMARK    1  A    between atoms: C_1  and  N_2
REMARK    2  A    between atoms: C_6  and  C_7
REMARK    3  A    between atoms: C_7  and  N_8
REMARK    4  A    between atoms: N_8  and  C_9
REMARK    5  A    between atoms: C_9  and  C_10
REMARK    6  A    between atoms: C_14  and  N_15
REMARK    7  A    between atoms: C_22  and  C_23
REMARK                            x       y       z     vdW  Elec       q    Type
REMARK                         _______ _______ _______ _____ _____    ______ ____
ROOT
ATOM      1  C   UNL     1       0.201  10.816  19.884  0.00  0.00    +0.000 A 
ATOM      2  C   UNL     1      -0.169  10.923  21.231  0.00  0.00    +0.000 A 
ATOM      3  C   UNL     1       0.165   9.917  22.127  0.00  0.00    +0.000 A 
ATOM      4  C   UNL     1       0.848   8.787  21.677  0.00  0.00    +0.000 A 
ATOM      5  C   UNL     1       1.258   8.667  20.344  0.00  0.00    +0.000 A 
ATOM      6  C   UNL     1       0.970   9.712  19.462  0.00  0.00    +0.000 A 
ENDROOT
BRANCH   5   7
ATOM      7  N   UNL     1       1.932   7.502  19.910  0.00  0.00    +0.000 N 
ATOM      8  C   UNL     1       1.827   6.224  20.574  0.00  0.00    +0.000 C 
ATOM      9  C   UNL     1       2.462   5.337  19.565  0.00  0.00    +0.000 C 
ATOM     10  C   UNL     1       2.994   5.997  18.542  0.00  0.00    +0.000 C 
ATOM     11  C   UNL     1       3.665   5.436  17.363  0.00  0.00    +0.000 C 
ATOM     12  C   UNL     1       3.608   3.910  17.327  0.00  0.00    +0.000 C 
ATOM     13  N   UNL     1       3.030   3.228  18.494  0.00  0.00    +0.000 NA
ATOM     14  C   UNL     1       2.502   3.864  19.490  0.00  0.00    +0.000 C 
ATOM     15  C   UNL     1       2.681   7.414  18.738  0.00  0.00    +0.000 C 
ATOM     16  O   UNL     1       3.051   8.284  17.970  0.00  0.00    +0.000 OA
BRANCH  14  17
ATOM     17  C   UNL     1       1.853   3.057  20.626  0.00  0.00    +0.000 C 
ATOM     18  F   UNL     1       1.790   1.721  20.366  0.00  0.00    +0.000 F 
ATOM     19  F   UNL     1       2.542   3.180  21.793  0.00  0.00    +0.000 F 
ATOM     20  F   UNL     1       0.576   3.451  20.877  0.00  0.00    +0.000 F 
ENDBRANCH  14  17
ENDBRANCH   5   7
BRANCH   1  21
ATOM     21  C   UNL     1      -0.328  11.813  18.880  0.00  0.00    +0.000 C 
BRANCH  21  22
ATOM     22  N   UNL     1      -0.962  11.159  17.726  0.00  0.00    +0.000 NA
ATOM     23  H   UNL     1      -1.324  11.888  17.108  0.00  0.00    +0.000 HD
BRANCH  22  24
ATOM     24  C   UNL     1      -2.110  10.334  18.129  0.00  0.00    +0.000 C 
BRANCH  24  30
ATOM     25  C   UNL     1      -3.614  10.693  15.423  0.00  0.00    +0.000 C 
ATOM     26  N   UNL     1      -4.023  11.208  16.701  0.00  0.00    +0.000 N 
ATOM     27  C   UNL     1      -5.146  11.936  16.948  0.00  0.00    +0.000 A 
ATOM     28  N   UNL     1      -5.198  12.247  18.221  0.00  0.00    +0.000 NA
ATOM     29  N   UNL     1      -4.086  11.712  18.826  0.00  0.00    +0.000 NA
ATOM     30  C   UNL     1      -3.384  11.077  17.907  0.00  0.00    +0.000 A 
ENDBRANCH  24  30
ENDBRANCH  22  24
ENDBRANCH  21  22
ENDBRANCH   1  21
TORSDOF 6
ENDMDL
MODEL 9
REMARK VINA RESULT:      -8.1      1.098      1.637
REMARK  Name = 
REMARK  7 active torsions:
REMARK  status: ('A' for Active; 'I' for Inactive)
REMARK    1  A    between atoms: C_1  and  N_2
REMARK    2  A    between atoms: C_6  and  C_7
REMARK    3  A    between atoms: C_7  and  N_8
REMARK    4  A    between atoms: N_8  and  C_9
REMARK    5  A    between atoms: C_9  and  C_10
REMARK    6  A    between atoms: C_14  and  N_15
REMARK    7  A    between atoms: C_22  and  C_23
REMARK                            x       y       z     vdW  Elec       q    Type
REMARK                         _______ _______ _______ _____ _____    ______ ____
ROOT
ATOM      1  C   UNL     1       3.124   3.748  18.701  0.00  0.00    +0.000 A 
ATOM      2  C   UNL     1       3.111   2.977  19.871  0.00  0.00    +0.000 A 
ATOM      3  C   UNL     1       2.596   3.506  21.047  0.00  0.00    +0.000 A 
ATOM      4  C   UNL     1       2.114   4.815  21.065  0.00  0.00    +0.000 A 
ATOM      5  C   UNL     1       2.086   5.597  19.904  0.00  0.00    +0.000 A 
ATOM      6  C   UNL     1       2.552   5.036  18.712  0.00  0.00    +0.000 A 
ENDROOT
BRANCH   5   7
ATOM      7  N   UNL     1       1.610   6.928  19.956  0.00  0.00    +0.000 N 
ATOM      8  C   UNL     1       0.843   7.460  21.057  0.00  0.00    +0.000 C 
ATOM      9  C   UNL     1       0.876   8.911  20.739  0.00  0.00    +0.000 C 
ATOM     10  C   UNL     1       1.435   9.181  19.563  0.00  0.00    +0.000 C 
ATOM     11  C   UNL     1       1.657  10.499  18.957  0.00  0.00    +0.000 C 
ATOM     12  C   UNL     1       1.276  11.646  19.892  0.00  0.00    +0.000 C 
ATOM     13  N   UNL     1       0.640  11.293  21.170  0.00  0.00    +0.000 NA
ATOM     14  C   UNL     1       0.474  10.070  21.558  0.00  0.00    +0.000 C 
ATOM     15  C   UNL     1       1.914   7.911  19.015  0.00  0.00    +0.000 C 
ATOM     16  O   UNL     1       2.461   7.825  17.932  0.00  0.00    +0.000 OA
BRANCH  14  17
ATOM     17  C   UNL     1      -0.130   9.808  22.947  0.00  0.00    +0.000 C 
ATOM     18  F   UNL     1      -0.740  10.903  23.481  0.00  0.00    +0.000 F 
ATOM     19  F   UNL     1      -1.078   8.832  22.912  0.00  0.00    +0.000 F 
ATOM     20  F   UNL     1       0.805   9.419  23.854  0.00  0.00    +0.000 F 
ENDBRANCH  14  17
ENDBRANCH   5   7
BRANCH   1  21
ATOM     21  C   UNL     1       3.857   3.243  17.480  0.00  0.00    +0.000 C 
BRANCH  21  22
ATOM     22  N   UNL     1       4.452   4.335  16.696  0.00  0.00    +0.000 NA
ATOM     23  H   UNL     1       4.010   4.341  15.774  0.00  0.00    +0.000 HD
BRANCH  22  24
ATOM     24  C   UNL     1       5.891   4.130  16.478  0.00  0.00    +0.000 C 
BRANCH  24  30
ATOM     25  C   UNL     1       6.311   5.332  19.322  0.00  0.00    +0.000 C 
ATOM     26  N   UNL     1       6.819   5.865  18.088  0.00  0.00    +0.000 N 
ATOM     27  C   UNL     1       7.580   6.985  17.954  0.00  0.00    +0.000 A 
ATOM     28  N   UNL     1       7.857   7.179  16.686  0.00  0.00    +0.000 NA
ATOM     29  N   UNL     1       7.265   6.166  15.970  0.00  0.00    +0.000 NA
ATOM     30  C   UNL     1       6.648   5.368  16.821  0.00  0.00    +0.000 A 
ENDBRANCH  24  30
ENDBRANCH  22  24
ENDBRANCH  21  22
ENDBRANCH   1  21
TORSDOF 6
ENDMDL
