MODEL 1
REMARK VINA RESULT:      -8.7      0.000      0.000
REMARK  Name = 
REMARK  3 active torsions:
REMARK  status: ('A' for Active; 'I' for Inactive)
REMARK    1  A    between atoms: C_1  and  C_2
REMARK    2  A    between atoms: C_5  and  C_6
REMARK    3  A    between atoms: C_10  and  N_11
REMARK                            x       y       z     vdW  Elec       q    Type
REMARK                         _______ _______ _______ _____ _____    ______ ____
ROOT
ATOM      1  N   UNL     1       6.940   7.887  17.102  0.00  0.00    +0.000 N 
ATOM      2  C   UNL     1       7.905   8.252  18.013  0.00  0.00    +0.000 C 
ATOM      3  O   UNL     1       8.474   7.446  18.755  0.00  0.00    +0.000 OA
ATOM      4  N   UNL     1       8.272   9.594  18.081  0.00  0.00    +0.000 N 
ATOM      5  C   UNL     1       7.760  10.682  17.253  0.00  0.00    +0.000 C 
ATOM      6  C   UNL     1       8.212  12.118  17.583  0.00  0.00    +0.000 C 
ATOM      7  C   UNL     1       9.481  12.264  18.371  0.00  0.00    +0.000 A 
ATOM      8  C   UNL     1      10.117  13.509  18.489  0.00  0.00    +0.000 A 
ATOM      9  C   UNL     1      11.241  13.652  19.306  0.00  0.00    +0.000 A 
ATOM     10  F   UNL     1      11.835  14.849  19.409  0.00  0.00    +0.000 F 
ATOM     11  C   UNL     1      11.743  12.581  20.024  0.00  0.00    +0.000 A 
ATOM     12  C   UNL     1      11.119  11.344  19.912  0.00  0.00    +0.000 A 
ATOM     13  C   UNL     1       9.993  11.177  19.079  0.00  0.00    +0.000 A 
ATOM     14  C   UNL     1       9.372   9.820  19.011  0.00  0.00    +0.000 C 
ATOM     15  H   UNL     1       6.728   8.532  16.357  0.00  0.00    +0.000 HD
ENDROOT
BRANCH   1  20
ATOM     16  C   UNL     1       4.785   4.833  17.414  0.00  0.00    +0.000 A 
ATOM     17  C   UNL     1       5.423   3.958  16.524  0.00  0.00    +0.000 A 
ATOM     18  C   UNL     1       6.581   4.350  15.869  0.00  0.00    +0.000 A 
ATOM     19  C   UNL     1       7.105   5.624  16.087  0.00  0.00    +0.000 A 
ATOM     20  C   UNL     1       6.478   6.542  16.942  0.00  0.00    +0.000 A 
ATOM     21  C   UNL     1       5.337   6.116  17.636  0.00  0.00    +0.000 A 
BRANCH  16  26
ATOM     22  C   UNL     1       1.114   4.070  20.615  0.00  0.00    +0.000 C 
ATOM     23  C   UNL     1       1.875   4.111  19.351  0.00  0.00    +0.000 A 
ATOM     24  C   UNL     1       1.456   3.844  18.070  0.00  0.00    +0.000 A 
ATOM     25  O   UNL     1       2.506   4.055  17.232  0.00  0.00    +0.000 OA
ATOM     26  C   UNL     1       3.529   4.449  18.057  0.00  0.00    +0.000 A 
ATOM     27  N   UNL     1       3.200   4.483  19.336  0.00  0.00    +0.000 NA
ENDBRANCH  16  26
ENDBRANCH   1  20
TORSDOF 2
ENDMDL
MODEL 2
REMARK VINA RESULT:      -8.6      5.672      7.747
REMARK  Name = 
REMARK  3 active torsions:
REMARK  status: ('A' for Active; 'I' for Inactive)
REMARK    1  A    between atoms: C_1  and  C_2
REMARK    2  A    between atoms: C_5  and  C_6
REMARK    3  A    between atoms: C_10  and  N_11
REMARK                            x       y       z     vdW  Elec       q    Type
REMARK                         _______ _______ _______ _____ _____    ______ ____
ROOT
ATOM      1  N   UNL     1       4.083   7.110  17.464  0.00  0.00    +0.000 N 
ATOM      2  C   UNL     1       3.360   6.998  18.630  0.00  0.00    +0.000 C 
ATOM      3  O   UNL     1       3.526   6.085  19.444  0.00  0.00    +0.000 OA
ATOM      4  N   UNL     1       2.411   7.977  18.913  0.00  0.00    +0.000 N 
ATOM      5  C   UNL     1       2.110   9.159  18.109  0.00  0.00    +0.000 C 
ATOM      6  C   UNL     1       0.930  10.049  18.545  0.00  0.00    +0.000 C 
ATOM      7  C   UNL     1       0.495   9.944  19.978  0.00  0.00    +0.000 A 
ATOM      8  C   UNL     1      -0.375  10.892  20.539  0.00  0.00    +0.000 A 
ATOM      9  C   UNL     1      -0.850  10.728  21.842  0.00  0.00    +0.000 A 
ATOM     10  F   UNL     1      -1.682  11.642  22.361  0.00  0.00    +0.000 F 
ATOM     11  C   UNL     1      -0.488   9.630  22.602  0.00  0.00    +0.000 A 
ATOM     12  C   UNL     1       0.374   8.687  22.054  0.00  0.00    +0.000 A 
ATOM     13  C   UNL     1       0.876   8.844  20.745  0.00  0.00    +0.000 A 
ATOM     14  C   UNL     1       1.796   7.790  20.221  0.00  0.00    +0.000 C 
ATOM     15  H   UNL     1       4.092   8.005  17.000  0.00  0.00    +0.000 HD
ENDROOT
BRANCH   1  20
ATOM     16  C   UNL     1       5.986   4.667  15.348  0.00  0.00    +0.000 A 
ATOM     17  C   UNL     1       7.113   4.434  16.149  0.00  0.00    +0.000 A 
ATOM     18  C   UNL     1       7.219   5.031  17.396  0.00  0.00    +0.000 A 
ATOM     19  C   UNL     1       6.208   5.879  17.848  0.00  0.00    +0.000 A 
ATOM     20  C   UNL     1       5.082   6.167  17.064  0.00  0.00    +0.000 A 
ATOM     21  C   UNL     1       4.962   5.517  15.828  0.00  0.00    +0.000 A 
BRANCH  16  26
ATOM     22  C   UNL     1       4.425   2.815  11.055  0.00  0.00    +0.000 C 
ATOM     23  C   UNL     1       5.325   3.318  12.110  0.00  0.00    +0.000 A 
ATOM     24  C   UNL     1       6.676   3.565  12.062  0.00  0.00    +0.000 A 
ATOM     25  O   UNL     1       7.056   4.060  13.270  0.00  0.00    +0.000 OA
ATOM     26  C   UNL     1       5.899   4.092  14.007  0.00  0.00    +0.000 A 
ATOM     27  N   UNL     1       4.840   3.644  13.356  0.00  0.00    +0.000 NA
ENDBRANCH  16  26
ENDBRANCH   1  20
TORSDOF 2
ENDMDL
MODEL 3
REMARK VINA RESULT:      -8.4      5.898      8.139
REMARK  Name = 
REMARK  3 active torsions:
REMARK  status: ('A' for Active; 'I' for Inactive)
REMARK    1  A    between atoms: C_1  and  C_2
REMARK    2  A    between atoms: C_5  and  C_6
REMARK    3  A    between atoms: C_10  and  N_11
REMARK                            x       y       z     vdW  Elec       q    Type
REMARK                         _______ _______ _______ _____ _____    ______ ____
ROOT
ATOM      1  N   UNL     1       1.925   6.493  20.839  0.00  0.00    +0.000 N 
ATOM      2  C   UNL     1       1.772   7.593  20.025  0.00  0.00    +0.000 C 
ATOM      3  O   UNL     1       2.162   7.628  18.855  0.00  0.00    +0.000 OA
ATOM      4  N   UNL     1       1.121   8.709  20.544  0.00  0.00    +0.000 N 
ATOM      5  C   UNL     1       0.540   8.840  21.877  0.00  0.00    +0.000 C 
ATOM      6  C   UNL     1      -0.024  10.214  22.290  0.00  0.00    +0.000 C 
ATOM      7  C   UNL     1      -0.387  11.158  21.181  0.00  0.00    +0.000 A 
ATOM      8  C   UNL     1      -1.150  12.308  21.435  0.00  0.00    +0.000 A 
ATOM      9  C   UNL     1      -1.397  13.229  20.414  0.00  0.00    +0.000 A 
ATOM     10  F   UNL     1      -2.125  14.324  20.675  0.00  0.00    +0.000 F 
ATOM     11  C   UNL     1      -0.888  13.039  19.142  0.00  0.00    +0.000 A 
ATOM     12  C   UNL     1      -0.132  11.901  18.883  0.00  0.00    +0.000 A 
ATOM     13  C   UNL     1       0.114  10.953  19.897  0.00  0.00    +0.000 A 
ATOM     14  C   UNL     1       0.937   9.756  19.546  0.00  0.00    +0.000 C 
ATOM     15  H   UNL     1       1.350   6.435  21.664  0.00  0.00    +0.000 HD
ENDROOT
BRANCH   1  20
ATOM     16  C   UNL     1       4.325   4.205  19.085  0.00  0.00    +0.000 A 
ATOM     17  C   UNL     1       4.019   2.977  19.689  0.00  0.00    +0.000 A 
ATOM     18  C   UNL     1       2.998   2.892  20.623  0.00  0.00    +0.000 A 
ATOM     19  C   UNL     1       2.282   4.037  20.974  0.00  0.00    +0.000 A 
ATOM     20  C   UNL     1       2.578   5.291  20.420  0.00  0.00    +0.000 A 
ATOM     21  C   UNL     1       3.578   5.353  19.440  0.00  0.00    +0.000 A 
BRANCH  16  26
ATOM     22  C   UNL     1       7.140   4.749  15.076  0.00  0.00    +0.000 C 
ATOM     23  C   UNL     1       6.743   4.573  16.485  0.00  0.00    +0.000 A 
ATOM     24  C   UNL     1       7.518   4.591  17.621  0.00  0.00    +0.000 A 
ATOM     25  O   UNL     1       6.697   4.423  18.692  0.00  0.00    +0.000 OA
ATOM     26  C   UNL     1       5.442   4.312  18.148  0.00  0.00    +0.000 A 
ATOM     27  N   UNL     1       5.424   4.382  16.830  0.00  0.00    +0.000 NA
ENDBRANCH  16  26
ENDBRANCH   1  20
TORSDOF 2
ENDMDL
MODEL 4
REMARK VINA RESULT:      -8.3      6.976      9.265
REMARK  Name = 
REMARK  3 active torsions:
REMARK  status: ('A' for Active; 'I' for Inactive)
REMARK    1  A    between atoms: C_1  and  C_2
REMARK    2  A    between atoms: C_5  and  C_6
REMARK    3  A    between atoms: C_10  and  N_11
REMARK                            x       y       z     vdW  Elec       q    Type
REMARK                         _______ _______ _______ _____ _____    ______ ____
ROOT
ATOM      1  N   UNL     1       0.828   9.259  19.684  0.00  0.00    +0.000 N 
ATOM      2  C   UNL     1       1.629   9.027  18.589  0.00  0.00    +0.000 C 
ATOM      3  O   UNL     1       1.692   9.793  17.623  0.00  0.00    +0.000 OA
ATOM      4  N   UNL     1       2.424   7.883  18.585  0.00  0.00    +0.000 N 
ATOM      5  C   UNL     1       2.532   6.892  19.652  0.00  0.00    +0.000 C 
ATOM      6  C   UNL     1       3.379   5.632  19.386  0.00  0.00    +0.000 C 
ATOM      7  C   UNL     1       4.404   5.723  18.294  0.00  0.00    +0.000 A 
ATOM      8  C   UNL     1       5.398   4.742  18.155  0.00  0.00    +0.000 A 
ATOM      9  C   UNL     1       6.284   4.785  17.077  0.00  0.00    +0.000 A 
ATOM     10  F   UNL     1       7.226   3.839  16.957  0.00  0.00    +0.000 F 
ATOM     11  C   UNL     1       6.198   5.780  16.120  0.00  0.00    +0.000 A 
ATOM     12  C   UNL     1       5.217   6.757  16.251  0.00  0.00    +0.000 A 
ATOM     13  C   UNL     1       4.323   6.738  17.342  0.00  0.00    +0.000 A 
ATOM     14  C   UNL     1       3.293   7.818  17.417  0.00  0.00    +0.000 C 
ATOM     15  H   UNL     1       1.032   8.754  20.532  0.00  0.00    +0.000 HD
ENDROOT
BRANCH   1  20
ATOM     16  C   UNL     1      -2.100  11.541  19.148  0.00  0.00    +0.000 A 
ATOM     17  C   UNL     1      -1.859  12.524  20.118  0.00  0.00    +0.000 A 
ATOM     18  C   UNL     1      -0.717  12.467  20.903  0.00  0.00    +0.000 A 
ATOM     19  C   UNL     1       0.188  11.418  20.736  0.00  0.00    +0.000 A 
ATOM     20  C   UNL     1      -0.033  10.396  19.802  0.00  0.00    +0.000 A 
ATOM     21  C   UNL     1      -1.165  10.493  18.981  0.00  0.00    +0.000 A 
BRANCH  16  26
ATOM     22  C   UNL     1      -6.692  12.280  17.517  0.00  0.00    +0.000 C 
ATOM     23  C   UNL     1      -5.278  11.861  17.555  0.00  0.00    +0.000 A 
ATOM     24  C   UNL     1      -4.489  11.352  16.551  0.00  0.00    +0.000 A 
ATOM     25  O   UNL     1      -3.242  11.154  17.056  0.00  0.00    +0.000 OA
ATOM     26  C   UNL     1      -3.334  11.561  18.364  0.00  0.00    +0.000 A 
ATOM     27  N   UNL     1      -4.538  11.979  18.709  0.00  0.00    +0.000 NA
ENDBRANCH  16  26
ENDBRANCH   1  20
TORSDOF 2
ENDMDL
MODEL 5
REMARK VINA RESULT:      -8.1      6.388      8.706
REMARK  Name = 
REMARK  3 active torsions:
REMARK  status: ('A' for Active; 'I' for Inactive)
REMARK    1  A    between atoms: C_1  and  C_2
REMARK    2  A    between atoms: C_5  and  C_6
REMARK    3  A    between atoms: C_10  and  N_11
REMARK                            x       y       z     vdW  Elec       q    Type
REMARK                         _______ _______ _______ _____ _____    ______ ____
ROOT
ATOM      1  N   UNL     1       1.145   8.775  19.380  0.00  0.00    +0.000 N 
ATOM      2  C   UNL     1       2.059   8.567  18.371  0.00  0.00    +0.000 C 
ATOM      3  O   UNL     1       2.129   9.278  17.365  0.00  0.00    +0.000 OA
ATOM      4  N   UNL     1       2.963   7.517  18.509  0.00  0.00    +0.000 N 
ATOM      5  C   UNL     1       3.077   6.606  19.645  0.00  0.00    +0.000 C 
ATOM      6  C   UNL     1       4.068   5.431  19.533  0.00  0.00    +0.000 C 
ATOM      7  C   UNL     1       5.171   5.568  18.525  0.00  0.00    +0.000 A 
ATOM      8  C   UNL     1       6.268   4.692  18.532  0.00  0.00    +0.000 A 
ATOM      9  C   UNL     1       7.237   4.768  17.530  0.00  0.00    +0.000 A 
ATOM     10  F   UNL     1       8.277   3.922  17.551  0.00  0.00    +0.000 F 
ATOM     11  C   UNL     1       7.134   5.691  16.505  0.00  0.00    +0.000 A 
ATOM     12  C   UNL     1       6.051   6.563  16.491  0.00  0.00    +0.000 A 
ATOM     13  C   UNL     1       5.071   6.512  17.504  0.00  0.00    +0.000 A 
ATOM     14  C   UNL     1       3.934   7.477  17.422  0.00  0.00    +0.000 C 
ATOM     15  H   UNL     1       1.325   8.344  20.273  0.00  0.00    +0.000 HD
ENDROOT
BRANCH   1  20
ATOM     16  C   UNL     1      -1.722  10.895  18.216  0.00  0.00    +0.000 A 
ATOM     17  C   UNL     1      -1.899  11.742  19.320  0.00  0.00    +0.000 A 
ATOM     18  C   UNL     1      -1.049  11.653  20.412  0.00  0.00    +0.000 A 
ATOM     19  C   UNL     1      -0.024  10.707  20.419  0.00  0.00    +0.000 A 
ATOM     20  C   UNL     1       0.166   9.818  19.351  0.00  0.00    +0.000 A 
ATOM     21  C   UNL     1      -0.667   9.952  18.233  0.00  0.00    +0.000 A 
BRANCH  16  26
ATOM     22  C   UNL     1      -4.036  10.195  13.921  0.00  0.00    +0.000 C 
ATOM     23  C   UNL     1      -3.746  10.677  15.285  0.00  0.00    +0.000 A 
ATOM     24  C   UNL     1      -4.544  11.390  16.148  0.00  0.00    +0.000 A 
ATOM     25  O   UNL     1      -3.855  11.567  17.307  0.00  0.00    +0.000 OA
ATOM     26  C   UNL     1      -2.654  10.941  17.091  0.00  0.00    +0.000 A 
ATOM     27  N   UNL     1      -2.539  10.406  15.888  0.00  0.00    +0.000 NA
ENDBRANCH  16  26
ENDBRANCH   1  20
TORSDOF 2
ENDMDL
MODEL 6
REMARK VINA RESULT:      -8.0      7.115      9.848
REMARK  Name = 
REMARK  3 active torsions:
REMARK  status: ('A' for Active; 'I' for Inactive)
REMARK    1  A    between atoms: C_1  and  C_2
REMARK    2  A    between atoms: C_5  and  C_6
REMARK    3  A    between atoms: C_10  and  N_11
REMARK                            x       y       z     vdW  Elec       q    Type
REMARK                         _______ _______ _______ _____ _____    ______ ____
ROOT
ATOM      1  N   UNL     1       1.452   9.397  18.707  0.00  0.00    +0.000 N 
ATOM      2  C   UNL     1       1.454   8.374  19.628  0.00  0.00    +0.000 C 
ATOM      3  O   UNL     1       0.729   8.363  20.627  0.00  0.00    +0.000 OA
ATOM      4  N   UNL     1       2.297   7.289  19.404  0.00  0.00    +0.000 N 
ATOM      5  C   UNL     1       3.181   7.091  18.259  0.00  0.00    +0.000 C 
ATOM      6  C   UNL     1       4.126   5.874  18.275  0.00  0.00    +0.000 C 
ATOM      7  C   UNL     1       3.751   4.737  19.180  0.00  0.00    +0.000 A 
ATOM      8  C   UNL     1       4.383   3.489  19.069  0.00  0.00    +0.000 A 
ATOM      9  C   UNL     1       4.095   2.470  19.981  0.00  0.00    +0.000 A 
ATOM     10  F   UNL     1       4.710   1.285  19.862  0.00  0.00    +0.000 F 
ATOM     11  C   UNL     1       3.199   2.669  21.015  0.00  0.00    +0.000 A 
ATOM     12  C   UNL     1       2.568   3.903  21.131  0.00  0.00    +0.000 A 
ATOM     13  C   UNL     1       2.834   4.938  20.211  0.00  0.00    +0.000 A 
ATOM     14  C   UNL     1       2.121   6.237  20.399  0.00  0.00    +0.000 C 
ATOM     15  H   UNL     1       1.849   9.213  17.799  0.00  0.00    +0.000 HD
ENDROOT
BRANCH   1  20
ATOM     16  C   UNL     1      -1.539  11.649  18.484  0.00  0.00    +0.000 A 
ATOM     17  C   UNL     1      -1.089  12.769  19.198  0.00  0.00    +0.000 A 
ATOM     18  C   UNL     1       0.203  12.805  19.700  0.00  0.00    +0.000 A 
ATOM     19  C   UNL     1       1.054  11.717  19.506  0.00  0.00    +0.000 A 
ATOM     20  C   UNL     1       0.633  10.563  18.829  0.00  0.00    +0.000 A 
ATOM     21  C   UNL     1      -0.658  10.561  18.283  0.00  0.00    +0.000 A 
BRANCH  16  26
ATOM     22  C   UNL     1      -6.432  12.001  18.004  0.00  0.00    +0.000 C 
ATOM     23  C   UNL     1      -5.018  11.719  17.690  0.00  0.00    +0.000 A 
ATOM     24  C   UNL     1      -4.447  11.325  16.503  0.00  0.00    +0.000 A 
ATOM     25  O   UNL     1      -3.105  11.231  16.694  0.00  0.00    +0.000 OA
ATOM     26  C   UNL     1      -2.920  11.579  18.008  0.00  0.00    +0.000 A 
ATOM     27  N   UNL     1      -4.039  11.866  18.647  0.00  0.00    +0.000 NA
ENDBRANCH  16  26
ENDBRANCH   1  20
TORSDOF 2
ENDMDL
MODEL 7
REMARK VINA RESULT:      -8.0      6.300      8.181
REMARK  Name = 
REMARK  3 active torsions:
REMARK  status: ('A' for Active; 'I' for Inactive)
REMARK    1  A    between atoms: C_1  and  C_2
REMARK    2  A    between atoms: C_5  and  C_6
REMARK    3  A    between atoms: C_10  and  N_11
REMARK                            x       y       z     vdW  Elec       q    Type
REMARK                         _______ _______ _______ _____ _____    ______ ____
ROOT
ATOM      1  N   UNL     1       2.893   7.331  18.594  0.00  0.00    +0.000 N 
ATOM      2  C   UNL     1       2.136   7.469  19.736  0.00  0.00    +0.000 C 
ATOM      3  O   UNL     1       2.162   6.659  20.666  0.00  0.00    +0.000 OA
ATOM      4  N   UNL     1       1.321   8.593  19.853  0.00  0.00    +0.000 N 
ATOM      5  C   UNL     1       1.198   9.685  18.892  0.00  0.00    +0.000 C 
ATOM      6  C   UNL     1       0.138  10.771  19.163  0.00  0.00    +0.000 C 
ATOM      7  C   UNL     1      -0.337  10.915  20.580  0.00  0.00    +0.000 A 
ATOM      8  C   UNL     1      -1.085  12.034  20.979  0.00  0.00    +0.000 A 
ATOM      9  C   UNL     1      -1.604  12.109  22.273  0.00  0.00    +0.000 A 
ATOM     10  F   UNL     1      -2.318  13.183  22.637  0.00  0.00    +0.000 F 
ATOM     11  C   UNL     1      -1.409  11.084  23.182  0.00  0.00    +0.000 A 
ATOM     12  C   UNL     1      -0.669   9.973  22.794  0.00  0.00    +0.000 A 
ATOM     13  C   UNL     1      -0.123   9.887  21.497  0.00  0.00    +0.000 A 
ATOM     14  C   UNL     1       0.659   8.662  21.149  0.00  0.00    +0.000 C 
ATOM     15  H   UNL     1       3.031   8.147  18.019  0.00  0.00    +0.000 HD
ENDROOT
BRANCH   1  20
ATOM     16  C   UNL     1       5.238   4.996  16.829  0.00  0.00    +0.000 A 
ATOM     17  C   UNL     1       5.628   4.156  17.881  0.00  0.00    +0.000 A 
ATOM     18  C   UNL     1       5.083   4.321  19.146  0.00  0.00    +0.000 A 
ATOM     19  C   UNL     1       4.155   5.337  19.375  0.00  0.00    +0.000 A 
ATOM     20  C   UNL     1       3.765   6.221  18.358  0.00  0.00    +0.000 A 
ATOM     21  C   UNL     1       4.284   6.011  17.074  0.00  0.00    +0.000 A 
BRANCH  16  26
ATOM     22  C   UNL     1       8.132   5.445  12.864  0.00  0.00    +0.000 C 
ATOM     23  C   UNL     1       7.070   4.961  13.765  0.00  0.00    +0.000 A 
ATOM     24  C   UNL     1       6.225   3.886  13.622  0.00  0.00    +0.000 A 
ATOM     25  O   UNL     1       5.442   3.816  14.732  0.00  0.00    +0.000 OA
ATOM     26  C   UNL     1       5.857   4.867  15.510  0.00  0.00    +0.000 A 
ATOM     27  N   UNL     1       6.819   5.588  14.964  0.00  0.00    +0.000 NA
ENDBRANCH  16  26
ENDBRANCH   1  20
TORSDOF 2
ENDMDL
MODEL 8
REMARK VINA RESULT:      -7.9      7.191      9.923
REMARK  Name = 
REMARK  3 active torsions:
REMARK  status: ('A' for Active; 'I' for Inactive)
REMARK    1  A    between atoms: C_1  and  C_2
REMARK    2  A    between atoms: C_5  and  C_6
REMARK    3  A    between atoms: C_10  and  N_11
REMARK                            x       y       z     vdW  Elec       q    Type
REMARK                         _______ _______ _______ _____ _____    ______ ____
ROOT
ATOM      1  N   UNL     1       1.508   9.783  18.520  0.00  0.00    +0.000 N 
ATOM      2  C   UNL     1       1.519   8.760  19.442  0.00  0.00    +0.000 C 
ATOM      3  O   UNL     1       0.890   8.800  20.504  0.00  0.00    +0.000 OA
ATOM      4  N   UNL     1       2.256   7.616  19.147  0.00  0.00    +0.000 N 
ATOM      5  C   UNL     1       3.013   7.356  17.926  0.00  0.00    +0.000 C 
ATOM      6  C   UNL     1       3.863   6.072  17.861  0.00  0.00    +0.000 C 
ATOM      7  C   UNL     1       3.490   4.964  18.802  0.00  0.00    +0.000 A 
ATOM      8  C   UNL     1       4.015   3.673  18.640  0.00  0.00    +0.000 A 
ATOM      9  C   UNL     1       3.738   2.677  19.579  0.00  0.00    +0.000 A 
ATOM     10  F   UNL     1       4.250   1.450  19.410  0.00  0.00    +0.000 F 
ATOM     11  C   UNL     1       2.958   2.939  20.691  0.00  0.00    +0.000 A 
ATOM     12  C   UNL     1       2.434   4.216  20.858  0.00  0.00    +0.000 A 
ATOM     13  C   UNL     1       2.689   5.230  19.912  0.00  0.00    +0.000 A 
ATOM     14  C   UNL     1       2.095   6.579  20.159  0.00  0.00    +0.000 C 
ATOM     15  H   UNL     1       1.805   9.572  17.581  0.00  0.00    +0.000 HD
ENDROOT
BRANCH   1  20
ATOM     16  C   UNL     1      -1.356  12.171  18.922  0.00  0.00    +0.000 A 
ATOM     17  C   UNL     1      -0.680  13.352  19.258  0.00  0.00    +0.000 A 
ATOM     18  C   UNL     1       0.706  13.376  19.299  0.00  0.00    +0.000 A 
ATOM     19  C   UNL     1       1.429  12.217  19.018  0.00  0.00    +0.000 A 
ATOM     20  C   UNL     1       0.791  11.006  18.712  0.00  0.00    +0.000 A 
ATOM     21  C   UNL     1      -0.608  11.008  18.625  0.00  0.00    +0.000 A 
BRANCH  16  26
ATOM     22  C   UNL     1      -6.097  11.152  18.038  0.00  0.00    +0.000 C 
ATOM     23  C   UNL     1      -4.888  11.721  18.662  0.00  0.00    +0.000 A 
ATOM     24  C   UNL     1      -4.763  12.460  19.814  0.00  0.00    +0.000 A 
ATOM     25  O   UNL     1      -3.443  12.725  20.003  0.00  0.00    +0.000 OA
ATOM     26  C   UNL     1      -2.818  12.123  18.941  0.00  0.00    +0.000 A 
ATOM     27  N   UNL     1      -3.645  11.523  18.105  0.00  0.00    +0.000 NA
ENDBRANCH  16  26
ENDBRANCH   1  20
TORSDOF 2
ENDMDL
MODEL 9
REMARK VINA RESULT:      -7.8      5.994      8.346
REMARK  Name = 
REMARK  3 active torsions:
REMARK  status: ('A' for Active; 'I' for Inactive)
REMARK    1  A    between atoms: C_1  and  C_2
REMARK    2  A    between atoms: C_5  and  C_6
REMARK    3  A    between atoms: C_10  and  N_11
REMARK                            x       y       z     vdW  Elec       q    Type
REMARK                         _______ _______ _______ _____ _____    ______ ____
ROOT
ATOM      1  N   UNL     1       1.557   6.744  20.995  0.00  0.00    +0.000 N 
ATOM      2  C   UNL     1       1.464   8.003  20.444  0.00  0.00    +0.000 C 
ATOM      3  O   UNL     1       1.907   8.287  19.328  0.00  0.00    +0.000 OA
ATOM      4  N   UNL     1       0.814   8.994  21.175  0.00  0.00    +0.000 N 
ATOM      5  C   UNL     1       0.177   8.840  22.480  0.00  0.00    +0.000 C 
ATOM      6  C   UNL     1      -0.376  10.104  23.169  0.00  0.00    +0.000 C 
ATOM      7  C   UNL     1      -0.668  11.283  22.288  0.00  0.00    +0.000 A 
ATOM      8  C   UNL     1      -1.417  12.370  22.764  0.00  0.00    +0.000 A 
ATOM      9  C   UNL     1      -1.598  13.503  21.968  0.00  0.00    +0.000 A 
ATOM     10  F   UNL     1      -2.314  14.534  22.439  0.00  0.00    +0.000 F 
ATOM     11  C   UNL     1      -1.037  13.588  20.707  0.00  0.00    +0.000 A 
ATOM     12  C   UNL     1      -0.294  12.514  20.227  0.00  0.00    +0.000 A 
ATOM     13  C   UNL     1      -0.114  11.355  21.011  0.00  0.00    +0.000 A 
ATOM     14  C   UNL     1       0.698  10.243  20.432  0.00  0.00    +0.000 C 
ATOM     15  H   UNL     1       0.945   6.520  21.763  0.00  0.00    +0.000 HD
ENDROOT
BRANCH   1  20
ATOM     16  C   UNL     1       3.651   4.833  18.539  0.00  0.00    +0.000 A 
ATOM     17  C   UNL     1       3.641   3.553  19.112  0.00  0.00    +0.000 A 
ATOM     18  C   UNL     1       2.908   3.309  20.263  0.00  0.00    +0.000 A 
ATOM     19  C   UNL     1       2.191   4.344  20.863  0.00  0.00    +0.000 A 
ATOM     20  C   UNL     1       2.202   5.647  20.342  0.00  0.00    +0.000 A 
ATOM     21  C   UNL     1       2.905   5.868  19.150  0.00  0.00    +0.000 A 
BRANCH  16  26
ATOM     22  C   UNL     1       6.501   4.486  14.532  0.00  0.00    +0.000 C 
ATOM     23  C   UNL     1       5.670   5.065  15.604  0.00  0.00    +0.000 A 
ATOM     24  C   UNL     1       5.219   6.354  15.761  0.00  0.00    +0.000 A 
ATOM     25  O   UNL     1       4.453   6.398  16.884  0.00  0.00    +0.000 OA
ATOM     26  C   UNL     1       4.473   5.112  17.362  0.00  0.00    +0.000 A 
ATOM     27  N   UNL     1       5.201   4.284  16.636  0.00  0.00    +0.000 NA
ENDBRANCH  16  26
ENDBRANCH   1  20
TORSDOF 2
ENDMDL
