MODEL 1
REMARK VINA RESULT:      -8.6      0.000      0.000
REMARK  Name = 
REMARK  3 active torsions:
REMARK  status: ('A' for Active; 'I' for Inactive)
REMARK    1  A    between atoms: C_1  and  C_2
REMARK    2  A    between atoms: C_3  and  C_4
REMARK    3  A    between atoms: C_13  and  C_14
REMARK                            x       y       z     vdW  Elec       q    Type
REMARK                         _______ _______ _______ _____ _____    ______ ____
ROOT
ATOM      1  C   UNL     1       1.717   7.540  20.448  0.00  0.00    +0.000 C 
ATOM      2  O   UNL     1       1.499   7.244  21.630  0.00  0.00    +0.000 OA
ATOM      3  N   UNL     1       1.363   8.872  20.062  0.00  0.00    +0.000 N 
ATOM      4  C   UNL     1       1.580   9.502  18.752  0.00  0.00    +0.000 C 
ATOM      5  C   UNL     1       1.118  10.985  18.537  0.00  0.00    +0.000 C 
ATOM      6  N   UNL     1       0.571  11.659  19.688  0.00  0.00    +0.000 N 
ATOM      7  C   UNL     1       0.460  11.055  20.905  0.00  0.00    +0.000 A 
ATOM      8  N   UNL     1      -0.068  11.897  21.764  0.00  0.00    +0.000 NA
ATOM      9  N   UNL     1      -0.311  13.068  21.111  0.00  0.00    +0.000 NA
ATOM     10  C   UNL     1       0.075  12.940  19.852  0.00  0.00    +0.000 A 
ATOM     11  C   UNL     1       0.895   9.677  21.199  0.00  0.00    +0.000 C 
ENDROOT
BRANCH   1  14
ATOM     12  C   UNL     1       0.991   4.324  20.276  0.00  0.00    +0.000 C 
ATOM     13  C   UNL     1       1.995   5.137  19.523  0.00  0.00    +0.000 A 
ATOM     14  C   UNL     1       2.317   6.503  19.577  0.00  0.00    +0.000 A 
ATOM     15  O   UNL     1       3.336   6.747  18.667  0.00  0.00    +0.000 OA
ATOM     16  C   UNL     1       3.651   5.545  18.043  0.00  0.00    +0.000 A 
ATOM     17  C   UNL     1       2.836   4.541  18.549  0.00  0.00    +0.000 A 
ATOM     18  C   UNL     1       2.969   3.217  18.074  0.00  0.00    +0.000 A 
ATOM     19  C   UNL     1       3.907   2.926  17.090  0.00  0.00    +0.000 A 
ATOM     20  C   UNL     1       4.727   3.926  16.574  0.00  0.00    +0.000 A 
ATOM     21  C   UNL     1       5.664   3.600  15.585  0.00  0.00    +0.000 A 
ATOM     22  C   UNL     1       6.501   4.574  15.056  0.00  0.00    +0.000 A 
ATOM     23  C   UNL     1       6.417   5.888  15.508  0.00  0.00    +0.000 A 
ATOM     24  C   UNL     1       5.486   6.244  16.498  0.00  0.00    +0.000 A 
ATOM     25  C   UNL     1       4.627   5.273  17.039  0.00  0.00    +0.000 A 
ENDBRANCH   1  14
BRANCH  10  26
ATOM     26  C   UNL     1      -0.032  14.021  18.835  0.00  0.00    +0.000 C 
ATOM     27  F   UNL     1      -0.700  15.113  19.287  0.00  0.00    +0.000 F 
ATOM     28  F   UNL     1       1.189  14.460  18.423  0.00  0.00    +0.000 F 
ATOM     29  F   UNL     1      -0.687  13.607  17.714  0.00  0.00    +0.000 F 
ENDBRANCH  10  26
TORSDOF 2
ENDMDL
MODEL 2
REMARK VINA RESULT:      -8.4      2.994      4.389
REMARK  Name = 
REMARK  3 active torsions:
REMARK  status: ('A' for Active; 'I' for Inactive)
REMARK    1  A    between atoms: C_1  and  C_2
REMARK    2  A    between atoms: C_3  and  C_4
REMARK    3  A    between atoms: C_13  and  C_14
REMARK                            x       y       z     vdW  Elec       q    Type
REMARK                         _______ _______ _______ _____ _____    ______ ____
ROOT
ATOM      1  C   UNL     1       0.454   9.769  20.403  0.00  0.00    +0.000 C 
ATOM      2  O   UNL     1       0.860  10.379  21.401  0.00  0.00    +0.000 OA
ATOM      3  N   UNL     1      -0.769  10.245  19.834  0.00  0.00    +0.000 N 
ATOM      4  C   UNL     1      -1.430   9.755  18.616  0.00  0.00    +0.000 C 
ATOM      5  C   UNL     1      -2.773  10.423  18.160  0.00  0.00    +0.000 C 
ATOM      6  N   UNL     1      -3.231  11.544  18.943  0.00  0.00    +0.000 N 
ATOM      7  C   UNL     1      -2.540  12.012  20.022  0.00  0.00    +0.000 A 
ATOM      8  N   UNL     1      -3.183  13.032  20.542  0.00  0.00    +0.000 NA
ATOM      9  N   UNL     1      -4.309  13.242  19.803  0.00  0.00    +0.000 NA
ATOM     10  C   UNL     1      -4.349  12.349  18.827  0.00  0.00    +0.000 A 
ATOM     11  C   UNL     1      -1.260  11.460  20.501  0.00  0.00    +0.000 C 
ENDROOT
BRANCH   1  14
ATOM     12  C   UNL     1       2.315   9.600  17.682  0.00  0.00    +0.000 C 
ATOM     13  C   UNL     1       2.053   8.583  18.746  0.00  0.00    +0.000 A 
ATOM     14  C   UNL     1       1.269   8.634  19.911  0.00  0.00    +0.000 A 
ATOM     15  O   UNL     1       1.362   7.408  20.553  0.00  0.00    +0.000 OA
ATOM     16  C   UNL     1       2.199   6.591  19.800  0.00  0.00    +0.000 A 
ATOM     17  C   UNL     1       2.640   7.293  18.687  0.00  0.00    +0.000 A 
ATOM     18  C   UNL     1       3.504   6.672  17.756  0.00  0.00    +0.000 A 
ATOM     19  C   UNL     1       3.921   5.363  17.968  0.00  0.00    +0.000 A 
ATOM     20  C   UNL     1       3.486   4.652  19.083  0.00  0.00    +0.000 A 
ATOM     21  C   UNL     1       3.923   3.332  19.266  0.00  0.00    +0.000 A 
ATOM     22  C   UNL     1       3.502   2.595  20.364  0.00  0.00    +0.000 A 
ATOM     23  C   UNL     1       2.635   3.161  21.295  0.00  0.00    +0.000 A 
ATOM     24  C   UNL     1       2.182   4.481  21.138  0.00  0.00    +0.000 A 
ATOM     25  C   UNL     1       2.604   5.244  20.037  0.00  0.00    +0.000 A 
ENDBRANCH   1  14
BRANCH  10  26
ATOM     26  C   UNL     1      -5.435  12.273  17.813  0.00  0.00    +0.000 C 
ATOM     27  F   UNL     1      -6.179  11.143  17.914  0.00  0.00    +0.000 F 
ATOM     28  F   UNL     1      -6.304  13.316  17.914  0.00  0.00    +0.000 F 
ATOM     29  F   UNL     1      -4.951  12.302  16.540  0.00  0.00    +0.000 F 
ENDBRANCH  10  26
TORSDOF 2
ENDMDL
MODEL 3
REMARK VINA RESULT:      -8.3      5.282      9.156
REMARK  Name = 
REMARK  3 active torsions:
REMARK  status: ('A' for Active; 'I' for Inactive)
REMARK    1  A    between atoms: C_1  and  C_2
REMARK    2  A    between atoms: C_3  and  C_4
REMARK    3  A    between atoms: C_13  and  C_14
REMARK                            x       y       z     vdW  Elec       q    Type
REMARK                         _______ _______ _______ _____ _____    ______ ____
ROOT
ATOM      1  C   UNL     1       2.217   8.749  18.118  0.00  0.00    +0.000 C 
ATOM      2  O   UNL     1       3.083   9.310  17.435  0.00  0.00    +0.000 OA
ATOM      3  N   UNL     1       2.524   7.419  18.547  0.00  0.00    +0.000 N 
ATOM      4  C   UNL     1       1.713   6.560  19.421  0.00  0.00    +0.000 C 
ATOM      5  C   UNL     1       2.238   5.125  19.774  0.00  0.00    +0.000 C 
ATOM      6  N   UNL     1       3.542   4.776  19.266  0.00  0.00    +0.000 N 
ATOM      7  C   UNL     1       4.291   5.638  18.521  0.00  0.00    +0.000 A 
ATOM      8  N   UNL     1       5.424   5.060  18.196  0.00  0.00    +0.000 NA
ATOM      9  N   UNL     1       5.426   3.806  18.727  0.00  0.00    +0.000 NA
ATOM     10  C   UNL     1       4.292   3.620  19.383  0.00  0.00    +0.000 A 
ATOM     11  C   UNL     1       3.885   7.010  18.168  0.00  0.00    +0.000 C 
ENDROOT
BRANCH   1  14
ATOM     12  C   UNL     1       1.440  10.416  20.860  0.00  0.00    +0.000 C 
ATOM     13  C   UNL     1       0.668  10.206  19.597  0.00  0.00    +0.000 A 
ATOM     14  C   UNL     1       0.980   9.505  18.419  0.00  0.00    +0.000 A 
ATOM     15  O   UNL     1      -0.094   9.618  17.548  0.00  0.00    +0.000 OA
ATOM     16  C   UNL     1      -1.074  10.384  18.170  0.00  0.00    +0.000 A 
ATOM     17  C   UNL     1      -0.626  10.762  19.429  0.00  0.00    +0.000 A 
ATOM     18  C   UNL     1      -1.450  11.548  20.266  0.00  0.00    +0.000 A 
ATOM     19  C   UNL     1      -2.703  11.952  19.819  0.00  0.00    +0.000 A 
ATOM     20  C   UNL     1      -3.160  11.581  18.557  0.00  0.00    +0.000 A 
ATOM     21  C   UNL     1      -4.429  12.002  18.137  0.00  0.00    +0.000 A 
ATOM     22  C   UNL     1      -4.915  11.643  16.887  0.00  0.00    +0.000 A 
ATOM     23  C   UNL     1      -4.144  10.853  16.038  0.00  0.00    +0.000 A 
ATOM     24  C   UNL     1      -2.868  10.417  16.432  0.00  0.00    +0.000 A 
ATOM     25  C   UNL     1      -2.358  10.777  17.690  0.00  0.00    +0.000 A 
ENDBRANCH   1  14
BRANCH  10  26
ATOM     26  C   UNL     1       3.941   2.364  20.099  0.00  0.00    +0.000 C 
ATOM     27  F   UNL     1       4.986   1.504  20.209  0.00  0.00    +0.000 F 
ATOM     28  F   UNL     1       3.504   2.603  21.366  0.00  0.00    +0.000 F 
ATOM     29  F   UNL     1       2.944   1.679  19.474  0.00  0.00    +0.000 F 
ENDBRANCH  10  26
TORSDOF 2
ENDMDL
MODEL 4
REMARK VINA RESULT:      -8.1      4.348      8.932
REMARK  Name = 
REMARK  3 active torsions:
REMARK  status: ('A' for Active; 'I' for Inactive)
REMARK    1  A    between atoms: C_1  and  C_2
REMARK    2  A    between atoms: C_3  and  C_4
REMARK    3  A    between atoms: C_13  and  C_14
REMARK                            x       y       z     vdW  Elec       q    Type
REMARK                         _______ _______ _______ _____ _____    ______ ____
ROOT
ATOM      1  C   UNL     1       0.832   9.081  20.902  0.00  0.00    +0.000 C 
ATOM      2  O   UNL     1       0.278   8.788  21.969  0.00  0.00    +0.000 OA
ATOM      3  N   UNL     1       1.532   8.017  20.248  0.00  0.00    +0.000 N 
ATOM      4  C   UNL     1       2.209   8.072  18.946  0.00  0.00    +0.000 C 
ATOM      5  C   UNL     1       2.917   6.781  18.404  0.00  0.00    +0.000 C 
ATOM      6  N   UNL     1       2.783   5.591  19.207  0.00  0.00    +0.000 N 
ATOM      7  C   UNL     1       2.078   5.572  20.374  0.00  0.00    +0.000 A 
ATOM      8  N   UNL     1       2.123   4.366  20.890  0.00  0.00    +0.000 NA
ATOM      9  N   UNL     1       2.865   3.579  20.062  0.00  0.00    +0.000 NA
ATOM     10  C   UNL     1       3.269   4.308  19.034  0.00  0.00    +0.000 A 
ATOM     11  C   UNL     1       1.361   6.730  20.938  0.00  0.00    +0.000 C 
ENDROOT
BRANCH   1  14
ATOM     12  C   UNL     1      -1.126  10.274  18.527  0.00  0.00    +0.000 C 
ATOM     13  C   UNL     1      -0.131  10.963  19.405  0.00  0.00    +0.000 A 
ATOM     14  C   UNL     1       0.709  10.477  20.422  0.00  0.00    +0.000 A 
ATOM     15  O   UNL     1       1.448  11.539  20.921  0.00  0.00    +0.000 OA
ATOM     16  C   UNL     1       1.076  12.685  20.227  0.00  0.00    +0.000 A 
ATOM     17  C   UNL     1       0.103  12.357  19.293  0.00  0.00    +0.000 A 
ATOM     18  C   UNL     1      -0.436  13.357  18.452  0.00  0.00    +0.000 A 
ATOM     19  C   UNL     1       0.001  14.672  18.575  0.00  0.00    +0.000 A 
ATOM     20  C   UNL     1       0.974  15.011  19.510  0.00  0.00    +0.000 A 
ATOM     21  C   UNL     1       1.396  16.345  19.607  0.00  0.00    +0.000 A 
ATOM     22  C   UNL     1       2.369  16.714  20.525  0.00  0.00    +0.000 A 
ATOM     23  C   UNL     1       2.940  15.757  21.360  0.00  0.00    +0.000 A 
ATOM     24  C   UNL     1       2.538  14.413  21.286  0.00  0.00    +0.000 A 
ATOM     25  C   UNL     1       1.549  14.024  20.368  0.00  0.00    +0.000 A 
ENDBRANCH   1  14
BRANCH  10  26
ATOM     26  C   UNL     1       4.101   3.783  17.918  0.00  0.00    +0.000 C 
ATOM     27  F   UNL     1       3.699   4.227  16.700  0.00  0.00    +0.000 F 
ATOM     28  F   UNL     1       5.409   4.137  18.044  0.00  0.00    +0.000 F 
ATOM     29  F   UNL     1       4.078   2.422  17.857  0.00  0.00    +0.000 F 
ENDBRANCH  10  26
TORSDOF 2
ENDMDL
MODEL 5
REMARK VINA RESULT:      -8.0      4.989      9.488
REMARK  Name = 
REMARK  3 active torsions:
REMARK  status: ('A' for Active; 'I' for Inactive)
REMARK    1  A    between atoms: C_1  and  C_2
REMARK    2  A    between atoms: C_3  and  C_4
REMARK    3  A    between atoms: C_13  and  C_14
REMARK                            x       y       z     vdW  Elec       q    Type
REMARK                         _______ _______ _______ _____ _____    ______ ____
ROOT
ATOM      1  C   UNL     1       1.688   8.923  18.941  0.00  0.00    +0.000 C 
ATOM      2  O   UNL     1       2.191   9.565  18.010  0.00  0.00    +0.000 OA
ATOM      3  N   UNL     1       2.054   7.541  19.017  0.00  0.00    +0.000 N 
ATOM      4  C   UNL     1       1.663   6.577  20.054  0.00  0.00    +0.000 C 
ATOM      5  C   UNL     1       2.181   5.100  19.952  0.00  0.00    +0.000 C 
ATOM      6  N   UNL     1       3.083   4.811  18.865  0.00  0.00    +0.000 N 
ATOM      7  C   UNL     1       3.478   5.761  17.971  0.00  0.00    +0.000 A 
ATOM      8  N   UNL     1       4.295   5.222  17.095  0.00  0.00    +0.000 NA
ATOM      9  N   UNL     1       4.442   3.905  17.411  0.00  0.00    +0.000 NA
ATOM     10  C   UNL     1       3.716   3.642  18.485  0.00  0.00    +0.000 A 
ATOM     11  C   UNL     1       3.062   7.174  18.011  0.00  0.00    +0.000 C 
ENDROOT
BRANCH   1  14
ATOM     12  C   UNL     1       1.765   9.023  22.239  0.00  0.00    +0.000 C 
ATOM     13  C   UNL     1       0.831   9.670  21.268  0.00  0.00    +0.000 A 
ATOM     14  C   UNL     1       0.781   9.643  19.864  0.00  0.00    +0.000 A 
ATOM     15  O   UNL     1      -0.297  10.413  19.451  0.00  0.00    +0.000 OA
ATOM     16  C   UNL     1      -0.921  10.921  20.586  0.00  0.00    +0.000 A 
ATOM     17  C   UNL     1      -0.243  10.482  21.714  0.00  0.00    +0.000 A 
ATOM     18  C   UNL     1      -0.690  10.862  23.000  0.00  0.00    +0.000 A 
ATOM     19  C   UNL     1      -1.802  11.687  23.129  0.00  0.00    +0.000 A 
ATOM     20  C   UNL     1      -2.487  12.135  22.003  0.00  0.00    +0.000 A 
ATOM     21  C   UNL     1      -3.606  12.963  22.166  0.00  0.00    +0.000 A 
ATOM     22  C   UNL     1      -4.314  13.421  21.063  0.00  0.00    +0.000 A 
ATOM     23  C   UNL     1      -3.919  13.055  19.779  0.00  0.00    +0.000 A 
ATOM     24  C   UNL     1      -2.802  12.227  19.585  0.00  0.00    +0.000 A 
ATOM     25  C   UNL     1      -2.069  11.761  20.689  0.00  0.00    +0.000 A 
ENDBRANCH   1  14
BRANCH  10  26
ATOM     26  C   UNL     1       3.633   2.301  19.125  0.00  0.00    +0.000 C 
ATOM     27  F   UNL     1       2.402   2.027  19.628  0.00  0.00    +0.000 F 
ATOM     28  F   UNL     1       3.925   1.298  18.253  0.00  0.00    +0.000 F 
ATOM     29  F   UNL     1       4.508   2.172  20.161  0.00  0.00    +0.000 F 
ENDBRANCH  10  26
TORSDOF 2
ENDMDL
MODEL 6
REMARK VINA RESULT:      -8.0      2.374      4.077
REMARK  Name = 
REMARK  3 active torsions:
REMARK  status: ('A' for Active; 'I' for Inactive)
REMARK    1  A    between atoms: C_1  and  C_2
REMARK    2  A    between atoms: C_3  and  C_4
REMARK    3  A    between atoms: C_13  and  C_14
REMARK                            x       y       z     vdW  Elec       q    Type
REMARK                         _______ _______ _______ _____ _____    ______ ____
ROOT
ATOM      1  C   UNL     1       1.857   8.949  18.327  0.00  0.00    +0.000 C 
ATOM      2  O   UNL     1       1.994   9.470  17.212  0.00  0.00    +0.000 OA
ATOM      3  N   UNL     1       1.085   9.693  19.275  0.00  0.00    +0.000 N 
ATOM      4  C   UNL     1       0.709   9.277  20.632  0.00  0.00    +0.000 C 
ATOM      5  C   UNL     1      -0.151  10.248  21.513  0.00  0.00    +0.000 C 
ATOM      6  N   UNL     1      -0.583  11.472  20.884  0.00  0.00    +0.000 N 
ATOM      7  C   UNL     1      -0.272  11.779  19.593  0.00  0.00    +0.000 A 
ATOM      8  N   UNL     1      -0.791  12.945  19.285  0.00  0.00    +0.000 NA
ATOM      9  N   UNL     1      -1.450  13.416  20.380  0.00  0.00    +0.000 NA
ATOM     10  C   UNL     1      -1.336  12.531  21.357  0.00  0.00    +0.000 A 
ATOM     11  C   UNL     1       0.507  10.912  18.690  0.00  0.00    +0.000 C 
ENDROOT
BRANCH   1  14
ATOM     12  C   UNL     1       4.463   7.627  16.790  0.00  0.00    +0.000 C 
ATOM     13  C   UNL     1       3.599   7.084  17.883  0.00  0.00    +0.000 A 
ATOM     14  C   UNL     1       2.491   7.629  18.552  0.00  0.00    +0.000 A 
ATOM     15  O   UNL     1       2.047   6.704  19.486  0.00  0.00    +0.000 OA
ATOM     16  C   UNL     1       2.870   5.586  19.407  0.00  0.00    +0.000 A 
ATOM     17  C   UNL     1       3.835   5.798  18.432  0.00  0.00    +0.000 A 
ATOM     18  C   UNL     1       4.794   4.797  18.157  0.00  0.00    +0.000 A 
ATOM     19  C   UNL     1       4.776   3.606  18.875  0.00  0.00    +0.000 A 
ATOM     20  C   UNL     1       3.814   3.385  19.857  0.00  0.00    +0.000 A 
ATOM     21  C   UNL     1       3.821   2.174  20.561  0.00  0.00    +0.000 A 
ATOM     22  C   UNL     1       2.871   1.921  21.542  0.00  0.00    +0.000 A 
ATOM     23  C   UNL     1       1.896   2.872  21.831  0.00  0.00    +0.000 A 
ATOM     24  C   UNL     1       1.865   4.095  21.142  0.00  0.00    +0.000 A 
ATOM     25  C   UNL     1       2.823   4.371  20.153  0.00  0.00    +0.000 A 
ENDBRANCH   1  14
BRANCH  10  26
ATOM     26  C   UNL     1      -1.934  12.702  22.709  0.00  0.00    +0.000 C 
ATOM     27  F   UNL     1      -2.556  11.584  23.161  0.00  0.00    +0.000 F 
ATOM     28  F   UNL     1      -1.001  13.029  23.644  0.00  0.00    +0.000 F 
ATOM     29  F   UNL     1      -2.865  13.696  22.736  0.00  0.00    +0.000 F 
ENDBRANCH  10  26
TORSDOF 2
ENDMDL
MODEL 7
REMARK VINA RESULT:      -8.0      4.757      9.859
REMARK  Name = 
REMARK  3 active torsions:
REMARK  status: ('A' for Active; 'I' for Inactive)
REMARK    1  A    between atoms: C_1  and  C_2
REMARK    2  A    between atoms: C_3  and  C_4
REMARK    3  A    between atoms: C_13  and  C_14
REMARK                            x       y       z     vdW  Elec       q    Type
REMARK                         _______ _______ _______ _____ _____    ______ ____
ROOT
ATOM      1  C   UNL     1       1.333  10.373  19.411  0.00  0.00    +0.000 C 
ATOM      2  O   UNL     1       1.724  10.705  18.284  0.00  0.00    +0.000 OA
ATOM      3  N   UNL     1       1.457   8.984  19.732  0.00  0.00    +0.000 N 
ATOM      4  C   UNL     1       1.140   8.340  21.014  0.00  0.00    +0.000 C 
ATOM      5  C   UNL     1       1.354   6.792  21.159  0.00  0.00    +0.000 C 
ATOM      6  N   UNL     1       1.929   6.115  20.023  0.00  0.00    +0.000 N 
ATOM      7  C   UNL     1       2.279   6.772  18.881  0.00  0.00    +0.000 A 
ATOM      8  N   UNL     1       2.775   5.914  18.019  0.00  0.00    +0.000 NA
ATOM      9  N   UNL     1       2.752   4.679  18.594  0.00  0.00    +0.000 NA
ATOM     10  C   UNL     1       2.246   4.786  19.812  0.00  0.00    +0.000 A 
ATOM     11  C   UNL     1       2.137   8.224  18.672  0.00  0.00    +0.000 C 
ENDROOT
BRANCH   1  14
ATOM     12  C   UNL     1       2.532  13.399  19.960  0.00  0.00    +0.000 C 
ATOM     13  C   UNL     1       1.323  12.716  20.515  0.00  0.00    +0.000 A 
ATOM     14  C   UNL     1       0.794  11.434  20.293  0.00  0.00    +0.000 A 
ATOM     15  O   UNL     1      -0.350  11.295  21.066  0.00  0.00    +0.000 OA
ATOM     16  C   UNL     1      -0.540  12.480  21.768  0.00  0.00    +0.000 A 
ATOM     17  C   UNL     1       0.473  13.371  21.441  0.00  0.00    +0.000 A 
ATOM     18  C   UNL     1       0.504  14.654  22.034  0.00  0.00    +0.000 A 
ATOM     19  C   UNL     1      -0.491  15.024  22.932  0.00  0.00    +0.000 A 
ATOM     20  C   UNL     1      -1.512  14.139  23.264  0.00  0.00    +0.000 A 
ATOM     21  C   UNL     1      -2.499  14.542  24.175  0.00  0.00    +0.000 A 
ATOM     22  C   UNL     1      -3.527  13.679  24.530  0.00  0.00    +0.000 A 
ATOM     23  C   UNL     1      -3.585  12.400  23.985  0.00  0.00    +0.000 A 
ATOM     24  C   UNL     1      -2.611  11.969  23.069  0.00  0.00    +0.000 A 
ATOM     25  C   UNL     1      -1.568  12.831  22.692  0.00  0.00    +0.000 A 
ENDBRANCH   1  14
BRANCH  10  26
ATOM     26  C   UNL     1       2.071   3.639  20.744  0.00  0.00    +0.000 C 
ATOM     27  F   UNL     1       2.469   3.918  22.011  0.00  0.00    +0.000 F 
ATOM     28  F   UNL     1       0.772   3.241  20.826  0.00  0.00    +0.000 F 
ATOM     29  F   UNL     1       2.781   2.546  20.351  0.00  0.00    +0.000 F 
ENDBRANCH  10  26
TORSDOF 2
ENDMDL
MODEL 8
REMARK VINA RESULT:      -8.0      4.719      9.601
REMARK  Name = 
REMARK  3 active torsions:
REMARK  status: ('A' for Active; 'I' for Inactive)
REMARK    1  A    between atoms: C_1  and  C_2
REMARK    2  A    between atoms: C_3  and  C_4
REMARK    3  A    between atoms: C_13  and  C_14
REMARK                            x       y       z     vdW  Elec       q    Type
REMARK                         _______ _______ _______ _____ _____    ______ ____
ROOT
ATOM      1  C   UNL     1       1.664   9.804  18.587  0.00  0.00    +0.000 C 
ATOM      2  O   UNL     1       2.055   9.954  17.421  0.00  0.00    +0.000 OA
ATOM      3  N   UNL     1       1.752   8.474  19.109  0.00  0.00    +0.000 N 
ATOM      4  C   UNL     1       1.428   8.035  20.473  0.00  0.00    +0.000 C 
ATOM      5  C   UNL     1       1.599   6.521  20.845  0.00  0.00    +0.000 C 
ATOM      6  N   UNL     1       2.145   5.667  19.818  0.00  0.00    +0.000 N 
ATOM      7  C   UNL     1       2.503   6.138  18.590  0.00  0.00    +0.000 A 
ATOM      8  N   UNL     1       2.967   5.147  17.863  0.00  0.00    +0.000 NA
ATOM      9  N   UNL     1       2.915   4.012  18.613  0.00  0.00    +0.000 NA
ATOM     10  C   UNL     1       2.423   4.312  19.804  0.00  0.00    +0.000 A 
ATOM     11  C   UNL     1       2.401   7.547  18.170  0.00  0.00    +0.000 C 
ENDROOT
BRANCH   1  14
ATOM     12  C   UNL     1       2.638  12.943  18.287  0.00  0.00    +0.000 C 
ATOM     13  C   UNL     1       1.595  12.328  19.163  0.00  0.00    +0.000 A 
ATOM     14  C   UNL     1       1.163  10.998  19.305  0.00  0.00    +0.000 A 
ATOM     15  O   UNL     1       0.165  10.964  20.268  0.00  0.00    +0.000 OA
ATOM     16  C   UNL     1      -0.031  12.262  20.729  0.00  0.00    +0.000 A 
ATOM     17  C   UNL     1       0.833  13.118  20.061  0.00  0.00    +0.000 A 
ATOM     18  C   UNL     1       0.829  14.500  20.359  0.00  0.00    +0.000 A 
ATOM     19  C   UNL     1      -0.052  14.998  21.312  0.00  0.00    +0.000 A 
ATOM     20  C   UNL     1      -0.924  14.148  21.985  0.00  0.00    +0.000 A 
ATOM     21  C   UNL     1      -1.798  14.681  22.943  0.00  0.00    +0.000 A 
ATOM     22  C   UNL     1      -2.675  13.858  23.635  0.00  0.00    +0.000 A 
ATOM     23  C   UNL     1      -2.691  12.488  23.387  0.00  0.00    +0.000 A 
ATOM     24  C   UNL     1      -1.827  11.926  22.433  0.00  0.00    +0.000 A 
ATOM     25  C   UNL     1      -0.939  12.745  21.717  0.00  0.00    +0.000 A 
ENDBRANCH   1  14
BRANCH  10  26
ATOM     26  C   UNL     1       2.223   3.322  20.896  0.00  0.00    +0.000 C 
ATOM     27  F   UNL     1       2.509   3.820  22.126  0.00  0.00    +0.000 F 
ATOM     28  F   UNL     1       0.940   2.873  20.952  0.00  0.00    +0.000 F 
ATOM     29  F   UNL     1       3.007   2.219  20.738  0.00  0.00    +0.000 F 
ENDBRANCH  10  26
TORSDOF 2
ENDMDL
MODEL 9
REMARK VINA RESULT:      -8.0      4.845      9.445
REMARK  Name = 
REMARK  3 active torsions:
REMARK  status: ('A' for Active; 'I' for Inactive)
REMARK    1  A    between atoms: C_1  and  C_2
REMARK    2  A    between atoms: C_3  and  C_4
REMARK    3  A    between atoms: C_13  and  C_14
REMARK                            x       y       z     vdW  Elec       q    Type
REMARK                         _______ _______ _______ _____ _____    ______ ____
ROOT
ATOM      1  C   UNL     1       1.463   9.274  18.429  0.00  0.00    +0.000 C 
ATOM      2  O   UNL     1       2.194   9.742  17.546  0.00  0.00    +0.000 OA
ATOM      3  N   UNL     1       1.802   7.963  18.891  0.00  0.00    +0.000 N 
ATOM      4  C   UNL     1       1.154   7.209  19.972  0.00  0.00    +0.000 C 
ATOM      5  C   UNL     1       1.687   5.777  20.325  0.00  0.00    +0.000 C 
ATOM      6  N   UNL     1       2.848   5.328  19.598  0.00  0.00    +0.000 N 
ATOM      7  C   UNL     1       3.463   6.097  18.655  0.00  0.00    +0.000 A 
ATOM      8  N   UNL     1       4.486   5.442  18.158  0.00  0.00    +0.000 NA
ATOM      9  N   UNL     1       4.550   4.229  18.774  0.00  0.00    +0.000 NA
ATOM     10  C   UNL     1       3.565   4.146  19.653  0.00  0.00    +0.000 A 
ATOM     11  C   UNL     1       3.044   7.461  18.283  0.00  0.00    +0.000 C 
ENDROOT
BRANCH   1  14
ATOM     12  C   UNL     1      -1.465   9.805  17.001  0.00  0.00    +0.000 C 
ATOM     13  C   UNL     1      -0.899  10.326  18.283  0.00  0.00    +0.000 A 
ATOM     14  C   UNL     1       0.340  10.111  18.909  0.00  0.00    +0.000 A 
ATOM     15  O   UNL     1       0.364  10.842  20.088  0.00  0.00    +0.000 OA
ATOM     16  C   UNL     1      -0.850  11.511  20.205  0.00  0.00    +0.000 A 
ATOM     17  C   UNL     1      -1.645  11.205  19.109  0.00  0.00    +0.000 A 
ATOM     18  C   UNL     1      -2.935  11.770  18.992  0.00  0.00    +0.000 A 
ATOM     19  C   UNL     1      -3.409  12.621  19.985  0.00  0.00    +0.000 A 
ATOM     20  C   UNL     1      -2.620  12.931  21.089  0.00  0.00    +0.000 A 
ATOM     21  C   UNL     1      -3.126  13.794  22.071  0.00  0.00    +0.000 A 
ATOM     22  C   UNL     1      -2.361  14.128  23.180  0.00  0.00    +0.000 A 
ATOM     23  C   UNL     1      -1.077  13.609  23.325  0.00  0.00    +0.000 A 
ATOM     24  C   UNL     1      -0.545  12.741  22.358  0.00  0.00    +0.000 A 
ATOM     25  C   UNL     1      -1.307  12.387  21.233  0.00  0.00    +0.000 A 
ENDBRANCH   1  14
BRANCH  10  26
ATOM     26  C   UNL     1       3.321   2.963  20.521  0.00  0.00    +0.000 C 
ATOM     27  F   UNL     1       2.862   3.293  21.755  0.00  0.00    +0.000 F 
ATOM     28  F   UNL     1       2.403   2.115  19.983  0.00  0.00    +0.000 F 
ATOM     29  F   UNL     1       4.451   2.228  20.716  0.00  0.00    +0.000 F 
ENDBRANCH  10  26
TORSDOF 2
ENDMDL
