MODEL 1
REMARK VINA RESULT:      -8.4      0.000      0.000
REMARK  Name = 
REMARK  3 active torsions:
REMARK  status: ('A' for Active; 'I' for Inactive)
REMARK    1  A    between atoms: N_6  and  C_7
REMARK    2  A    between atoms: N_16  and  C_17
REMARK    3  A    between atoms: C_17  and  C_18
REMARK                            x       y       z     vdW  Elec       q    Type
REMARK                         _______ _______ _______ _____ _____    ______ ____
ROOT
ATOM      1  O   UNL     1       0.448   9.377  20.929  0.00  0.00    +0.000 OA
ATOM      2  C   UNL     1       1.053   9.152  19.887  0.00  0.00    +0.000 A 
ATOM      3  C   UNL     1       1.806   7.957  19.685  0.00  0.00    +0.000 A 
ATOM      4  C   UNL     1       2.058   6.802  20.418  0.00  0.00    +0.000 A 
ATOM      5  N   UNL     1       2.821   5.938  19.741  0.00  0.00    +0.000 NA
ATOM      6  N   UNL     1       3.079   6.557  18.540  0.00  0.00    +0.000 N 
ATOM      7  C   UNL     1       2.465   7.799  18.500  0.00  0.00    +0.000 A 
ATOM      8  N   UNL     1       2.465   8.692  17.489  0.00  0.00    +0.000 NA
ATOM      9  N   UNL     1       1.796   9.750  17.613  0.00  0.00    +0.000 NA
ATOM     10  N   UNL     1       1.088  10.009  18.784  0.00  0.00    +0.000 N 
ENDROOT
BRANCH   6  11
ATOM     11  C   UNL     1       3.869   5.900  17.549  0.00  0.00    +0.000 A 
ATOM     12  C   UNL     1       3.786   4.504  17.412  0.00  0.00    +0.000 A 
ATOM     13  C   UNL     1       4.538   3.843  16.434  0.00  0.00    +0.000 A 
ATOM     14  C   UNL     1       5.381   4.564  15.594  0.00  0.00    +0.000 A 
ATOM     15  C   UNL     1       5.477   5.946  15.728  0.00  0.00    +0.000 A 
ATOM     16  C   UNL     1       4.724   6.611  16.699  0.00  0.00    +0.000 A 
ENDBRANCH   6  11
BRANCH  10  17
ATOM     17  C   UNL     1       0.342  11.256  18.807  0.00  0.00    +0.000 C 
BRANCH  17  18
ATOM     18  C   UNL     1      -1.112  11.074  18.448  0.00  0.00    +0.000 A 
ATOM     19  C   UNL     1      -1.511  10.076  17.543  0.00  0.00    +0.000 A 
ATOM     20  C   UNL     1      -2.860   9.922  17.216  0.00  0.00    +0.000 A 
ATOM     21  C   UNL     1      -3.808  10.764  17.787  0.00  0.00    +0.000 A 
ATOM     22  F   UNL     1      -5.101  10.611  17.470  0.00  0.00    +0.000 F 
ATOM     23  C   UNL     1      -3.437  11.759  18.678  0.00  0.00    +0.000 A 
ATOM     24  C   UNL     1      -2.092  11.908  18.999  0.00  0.00    +0.000 A 
ATOM     25  F   UNL     1      -1.738  12.865  19.868  0.00  0.00    +0.000 F 
ENDBRANCH  17  18
ENDBRANCH  10  17
TORSDOF 3
ENDMDL
MODEL 2
REMARK VINA RESULT:      -8.2      3.392      5.373
REMARK  Name = 
REMARK  3 active torsions:
REMARK  status: ('A' for Active; 'I' for Inactive)
REMARK    1  A    between atoms: N_6  and  C_7
REMARK    2  A    between atoms: N_16  and  C_17
REMARK    3  A    between atoms: C_17  and  C_18
REMARK                            x       y       z     vdW  Elec       q    Type
REMARK                         _______ _______ _______ _____ _____    ______ ____
ROOT
ATOM      1  O   UNL     1       5.760   5.406  20.138  0.00  0.00    +0.000 OA
ATOM      2  C   UNL     1       5.383   5.353  18.973  0.00  0.00    +0.000 A 
ATOM      3  C   UNL     1       6.264   5.022  17.900  0.00  0.00    +0.000 A 
ATOM      4  C   UNL     1       7.603   4.661  17.785  0.00  0.00    +0.000 A 
ATOM      5  N   UNL     1       7.944   4.409  16.518  0.00  0.00    +0.000 NA
ATOM      6  N   UNL     1       6.797   4.622  15.791  0.00  0.00    +0.000 N 
ATOM      7  C   UNL     1       5.762   5.005  16.631  0.00  0.00    +0.000 A 
ATOM      8  N   UNL     1       4.484   5.280  16.300  0.00  0.00    +0.000 NA
ATOM      9  N   UNL     1       3.665   5.555  17.215  0.00  0.00    +0.000 NA
ATOM     10  N   UNL     1       4.076   5.601  18.545  0.00  0.00    +0.000 N 
ENDROOT
BRANCH   6  11
ATOM     11  C   UNL     1       6.795   4.428  14.377  0.00  0.00    +0.000 A 
ATOM     12  C   UNL     1       7.633   5.215  13.569  0.00  0.00    +0.000 A 
ATOM     13  C   UNL     1       7.661   5.027  12.183  0.00  0.00    +0.000 A 
ATOM     14  C   UNL     1       6.850   4.063  11.592  0.00  0.00    +0.000 A 
ATOM     15  C   UNL     1       6.010   3.284  12.382  0.00  0.00    +0.000 A 
ATOM     16  C   UNL     1       5.983   3.464  13.768  0.00  0.00    +0.000 A 
ENDBRANCH   6  11
BRANCH  10  17
ATOM     17  C   UNL     1       3.040   5.915  19.515  0.00  0.00    +0.000 C 
BRANCH  17  18
ATOM     18  C   UNL     1       2.416   7.269  19.285  0.00  0.00    +0.000 A 
ATOM     19  C   UNL     1       2.618   7.961  18.080  0.00  0.00    +0.000 A 
ATOM     20  C   UNL     1       2.038   9.216  17.883  0.00  0.00    +0.000 A 
ATOM     21  C   UNL     1       1.262   9.782  18.888  0.00  0.00    +0.000 A 
ATOM     22  F   UNL     1       0.708  10.986  18.694  0.00  0.00    +0.000 F 
ATOM     23  C   UNL     1       1.053   9.120  20.089  0.00  0.00    +0.000 A 
ATOM     24  C   UNL     1       1.634   7.871  20.278  0.00  0.00    +0.000 A 
ATOM     25  F   UNL     1       1.422   7.230  21.436  0.00  0.00    +0.000 F 
ENDBRANCH  17  18
ENDBRANCH  10  17
TORSDOF 3
ENDMDL
MODEL 3
REMARK VINA RESULT:      -8.1      3.775      7.810
REMARK  Name = 
REMARK  3 active torsions:
REMARK  status: ('A' for Active; 'I' for Inactive)
REMARK    1  A    between atoms: N_6  and  C_7
REMARK    2  A    between atoms: N_16  and  C_17
REMARK    3  A    between atoms: C_17  and  C_18
REMARK                            x       y       z     vdW  Elec       q    Type
REMARK                         _______ _______ _______ _____ _____    ______ ____
ROOT
ATOM      1  O   UNL     1       2.803   8.119  17.586  0.00  0.00    +0.000 OA
ATOM      2  C   UNL     1       2.207   8.301  18.641  0.00  0.00    +0.000 A 
ATOM      3  C   UNL     1       1.327   9.406  18.840  0.00  0.00    +0.000 A 
ATOM      4  C   UNL     1       0.863  10.462  18.063  0.00  0.00    +0.000 A 
ATOM      5  N   UNL     1      -0.006  11.227  18.729  0.00  0.00    +0.000 NA
ATOM      6  N   UNL     1      -0.099  10.656  19.977  0.00  0.00    +0.000 N 
ATOM      7  C   UNL     1       0.721   9.542  20.056  0.00  0.00    +0.000 A 
ATOM      8  N   UNL     1       0.886   8.706  21.101  0.00  0.00    +0.000 NA
ATOM      9  N   UNL     1       1.635   7.704  20.965  0.00  0.00    +0.000 NA
ATOM     10  N   UNL     1       2.303   7.474  19.765  0.00  0.00    +0.000 N 
ENDROOT
BRANCH   6  11
ATOM     11  C   UNL     1      -0.968  11.218  20.961  0.00  0.00    +0.000 A 
ATOM     12  C   UNL     1      -1.980  12.108  20.564  0.00  0.00    +0.000 A 
ATOM     13  C   UNL     1      -2.853  12.655  21.511  0.00  0.00    +0.000 A 
ATOM     14  C   UNL     1      -2.720  12.328  22.857  0.00  0.00    +0.000 A 
ATOM     15  C   UNL     1      -1.715  11.454  23.262  0.00  0.00    +0.000 A 
ATOM     16  C   UNL     1      -0.843  10.901  22.319  0.00  0.00    +0.000 A 
ENDBRANCH   6  11
BRANCH  10  17
ATOM     17  C   UNL     1       3.129   6.279  19.721  0.00  0.00    +0.000 C 
BRANCH  17  18
ATOM     18  C   UNL     1       2.339   5.036  19.397  0.00  0.00    +0.000 A 
ATOM     19  C   UNL     1       2.029   4.704  18.068  0.00  0.00    +0.000 A 
ATOM     20  C   UNL     1       1.293   3.552  17.784  0.00  0.00    +0.000 A 
ATOM     21  C   UNL     1       0.862   2.734  18.823  0.00  0.00    +0.000 A 
ATOM     22  F   UNL     1       0.156   1.630  18.544  0.00  0.00    +0.000 F 
ATOM     23  C   UNL     1       1.152   3.045  20.143  0.00  0.00    +0.000 A 
ATOM     24  C   UNL     1       1.885   4.194  20.419  0.00  0.00    +0.000 A 
ATOM     25  F   UNL     1       2.171   4.485  21.696  0.00  0.00    +0.000 F 
ENDBRANCH  17  18
ENDBRANCH  10  17
TORSDOF 3
ENDMDL
MODEL 4
REMARK VINA RESULT:      -8.1      5.148      6.719
REMARK  Name = 
REMARK  3 active torsions:
REMARK  status: ('A' for Active; 'I' for Inactive)
REMARK    1  A    between atoms: N_6  and  C_7
REMARK    2  A    between atoms: N_16  and  C_17
REMARK    3  A    between atoms: C_17  and  C_18
REMARK                            x       y       z     vdW  Elec       q    Type
REMARK                         _______ _______ _______ _____ _____    ______ ____
ROOT
ATOM      1  O   UNL     1       5.547   5.433  20.000  0.00  0.00    +0.000 OA
ATOM      2  C   UNL     1       5.274   5.476  18.807  0.00  0.00    +0.000 A 
ATOM      3  C   UNL     1       6.210   5.103  17.796  0.00  0.00    +0.000 A 
ATOM      4  C   UNL     1       7.509   4.607  17.776  0.00  0.00    +0.000 A 
ATOM      5  N   UNL     1       7.937   4.380  16.531  0.00  0.00    +0.000 NA
ATOM      6  N   UNL     1       6.888   4.749  15.721  0.00  0.00    +0.000 N 
ATOM      7  C   UNL     1       5.826   5.200  16.489  0.00  0.00    +0.000 A 
ATOM      8  N   UNL     1       4.618   5.626  16.067  0.00  0.00    +0.000 NA
ATOM      9  N   UNL     1       3.752   5.944  16.923  0.00  0.00    +0.000 NA
ATOM     10  N   UNL     1       4.043   5.882  18.283  0.00  0.00    +0.000 N 
ENDROOT
BRANCH   6  11
ATOM     11  C   UNL     1       6.996   4.623  14.303  0.00  0.00    +0.000 A 
ATOM     12  C   UNL     1       6.238   3.645  13.637  0.00  0.00    +0.000 A 
ATOM     13  C   UNL     1       6.314   3.516  12.246  0.00  0.00    +0.000 A 
ATOM     14  C   UNL     1       7.149   4.353  11.511  0.00  0.00    +0.000 A 
ATOM     15  C   UNL     1       7.911   5.319  12.162  0.00  0.00    +0.000 A 
ATOM     16  C   UNL     1       7.834   5.455  13.551  0.00  0.00    +0.000 A 
ENDBRANCH   6  11
BRANCH  10  17
ATOM     17  C   UNL     1       2.961   6.259  19.177  0.00  0.00    +0.000 C 
BRANCH  17  18
ATOM     18  C   UNL     1       2.374   5.081  19.914  0.00  0.00    +0.000 A 
ATOM     19  C   UNL     1       2.690   4.843  21.261  0.00  0.00    +0.000 A 
ATOM     20  C   UNL     1       2.143   3.745  21.929  0.00  0.00    +0.000 A 
ATOM     21  C   UNL     1       1.286   2.884  21.253  0.00  0.00    +0.000 A 
ATOM     22  F   UNL     1       0.764   1.832  21.898  0.00  0.00    +0.000 F 
ATOM     23  C   UNL     1       0.964   3.096  19.920  0.00  0.00    +0.000 A 
ATOM     24  C   UNL     1       1.513   4.190  19.262  0.00  0.00    +0.000 A 
ATOM     25  F   UNL     1       1.192   4.397  17.977  0.00  0.00    +0.000 F 
ENDBRANCH  17  18
ENDBRANCH  10  17
TORSDOF 3
ENDMDL
MODEL 5
REMARK VINA RESULT:      -8.1      3.756      7.885
REMARK  Name = 
REMARK  3 active torsions:
REMARK  status: ('A' for Active; 'I' for Inactive)
REMARK    1  A    between atoms: N_6  and  C_7
REMARK    2  A    between atoms: N_16  and  C_17
REMARK    3  A    between atoms: C_17  and  C_18
REMARK                            x       y       z     vdW  Elec       q    Type
REMARK                         _______ _______ _______ _____ _____    ______ ____
ROOT
ATOM      1  O   UNL     1       2.557   8.211  17.568  0.00  0.00    +0.000 OA
ATOM      2  C   UNL     1       2.002   8.420  18.640  0.00  0.00    +0.000 A 
ATOM      3  C   UNL     1       1.100   9.508  18.833  0.00  0.00    +0.000 A 
ATOM      4  C   UNL     1       0.572  10.518  18.036  0.00  0.00    +0.000 A 
ATOM      5  N   UNL     1      -0.290  11.286  18.709  0.00  0.00    +0.000 NA
ATOM      6  N   UNL     1      -0.313  10.764  19.981  0.00  0.00    +0.000 N 
ATOM      7  C   UNL     1       0.542   9.677  20.068  0.00  0.00    +0.000 A 
ATOM      8  N   UNL     1       0.777   8.889  21.137  0.00  0.00    +0.000 NA
ATOM      9  N   UNL     1       1.548   7.903  21.009  0.00  0.00    +0.000 NA
ATOM     10  N   UNL     1       2.170   7.643  19.790  0.00  0.00    +0.000 N 
ENDROOT
BRANCH   6  11
ATOM     11  C   UNL     1      -1.154  11.342  20.980  0.00  0.00    +0.000 A 
ATOM     12  C   UNL     1      -2.175  12.228  20.596  0.00  0.00    +0.000 A 
ATOM     13  C   UNL     1      -3.023  12.790  21.557  0.00  0.00    +0.000 A 
ATOM     14  C   UNL     1      -2.855  12.482  22.904  0.00  0.00    +0.000 A 
ATOM     15  C   UNL     1      -1.840  11.612  23.295  0.00  0.00    +0.000 A 
ATOM     16  C   UNL     1      -0.995  11.044  22.338  0.00  0.00    +0.000 A 
ENDBRANCH   6  11
BRANCH  10  17
ATOM     17  C   UNL     1       3.028   6.470  19.757  0.00  0.00    +0.000 C 
BRANCH  17  18
ATOM     18  C   UNL     1       2.273   5.204  19.439  0.00  0.00    +0.000 A 
ATOM     19  C   UNL     1       1.462   4.586  20.405  0.00  0.00    +0.000 A 
ATOM     20  C   UNL     1       0.773   3.411  20.098  0.00  0.00    +0.000 A 
ATOM     21  C   UNL     1       0.895   2.850  18.831  0.00  0.00    +0.000 A 
ATOM     22  F   UNL     1       0.231   1.723  18.542  0.00  0.00    +0.000 F 
ATOM     23  C   UNL     1       1.694   3.440  17.863  0.00  0.00    +0.000 A 
ATOM     24  C   UNL     1       2.379   4.609  18.176  0.00  0.00    +0.000 A 
ATOM     25  F   UNL     1       3.142   5.181  17.235  0.00  0.00    +0.000 F 
ENDBRANCH  17  18
ENDBRANCH  10  17
TORSDOF 3
ENDMDL
MODEL 6
REMARK VINA RESULT:      -8.0      3.797      7.827
REMARK  Name = 
REMARK  3 active torsions:
REMARK  status: ('A' for Active; 'I' for Inactive)
REMARK    1  A    between atoms: N_6  and  C_7
REMARK    2  A    between atoms: N_16  and  C_17
REMARK    3  A    between atoms: C_17  and  C_18
REMARK                            x       y       z     vdW  Elec       q    Type
REMARK                         _______ _______ _______ _____ _____    ______ ____
ROOT
ATOM      1  O   UNL     1       2.907   7.937  17.598  0.00  0.00    +0.000 OA
ATOM      2  C   UNL     1       2.299   8.152  18.640  0.00  0.00    +0.000 A 
ATOM      3  C   UNL     1       1.432   9.274  18.800  0.00  0.00    +0.000 A 
ATOM      4  C   UNL     1       0.993  10.317  17.991  0.00  0.00    +0.000 A 
ATOM      5  N   UNL     1       0.125  11.110  18.627  0.00  0.00    +0.000 NA
ATOM      6  N   UNL     1       0.007  10.570  19.886  0.00  0.00    +0.000 N 
ATOM      7  C   UNL     1       0.810   9.446  20.003  0.00  0.00    +0.000 A 
ATOM      8  N   UNL     1       0.950   8.633  21.070  0.00  0.00    +0.000 NA
ATOM      9  N   UNL     1       1.687   7.619  20.969  0.00  0.00    +0.000 NA
ATOM     10  N   UNL     1       2.368   7.352  19.784  0.00  0.00    +0.000 N 
ENDROOT
BRANCH   6  11
ATOM     11  C   UNL     1      -0.867  11.166  20.845  0.00  0.00    +0.000 A 
ATOM     12  C   UNL     1      -0.718  10.853  22.206  0.00  0.00    +0.000 A 
ATOM     13  C   UNL     1      -1.551  11.441  23.164  0.00  0.00    +0.000 A 
ATOM     14  C   UNL     1      -2.543  12.336  22.773  0.00  0.00    +0.000 A 
ATOM     15  C   UNL     1      -2.705  12.646  21.426  0.00  0.00    +0.000 A 
ATOM     16  C   UNL     1      -1.871  12.066  20.466  0.00  0.00    +0.000 A 
ENDBRANCH   6  11
BRANCH  10  17
ATOM     17  C   UNL     1       3.178   6.145  19.780  0.00  0.00    +0.000 C 
BRANCH  17  18
ATOM     18  C   UNL     1       2.384   4.911  19.429  0.00  0.00    +0.000 A 
ATOM     19  C   UNL     1       1.490   4.342  20.350  0.00  0.00    +0.000 A 
ATOM     20  C   UNL     1       0.766   3.197  20.013  0.00  0.00    +0.000 A 
ATOM     21  C   UNL     1       0.937   2.616  18.761  0.00  0.00    +0.000 A 
ATOM     22  F   UNL     1       0.239   1.517  18.443  0.00  0.00    +0.000 F 
ATOM     23  C   UNL     1       1.818   3.157  17.837  0.00  0.00    +0.000 A 
ATOM     24  C   UNL     1       2.537   4.297  18.179  0.00  0.00    +0.000 A 
ATOM     25  F   UNL     1       3.380   4.822  17.280  0.00  0.00    +0.000 F 
ENDBRANCH  17  18
ENDBRANCH  10  17
TORSDOF 3
ENDMDL
MODEL 7
REMARK VINA RESULT:      -7.7      3.690      7.944
REMARK  Name = 
REMARK  3 active torsions:
REMARK  status: ('A' for Active; 'I' for Inactive)
REMARK    1  A    between atoms: N_6  and  C_7
REMARK    2  A    between atoms: N_16  and  C_17
REMARK    3  A    between atoms: C_17  and  C_18
REMARK                            x       y       z     vdW  Elec       q    Type
REMARK                         _______ _______ _______ _____ _____    ______ ____
ROOT
ATOM      1  O   UNL     1       1.839   6.297  20.769  0.00  0.00    +0.000 OA
ATOM      2  C   UNL     1       1.801   7.289  20.051  0.00  0.00    +0.000 A 
ATOM      3  C   UNL     1       1.368   8.562  20.531  0.00  0.00    +0.000 A 
ATOM      4  C   UNL     1       0.950   9.076  21.754  0.00  0.00    +0.000 A 
ATOM      5  N   UNL     1       0.683  10.383  21.680  0.00  0.00    +0.000 NA
ATOM      6  N   UNL     1       0.925  10.722  20.370  0.00  0.00    +0.000 N 
ATOM      7  C   UNL     1       1.340   9.609  19.656  0.00  0.00    +0.000 A 
ATOM      8  N   UNL     1       1.692   9.541  18.355  0.00  0.00    +0.000 NA
ATOM      9  N   UNL     1       2.102   8.445  17.893  0.00  0.00    +0.000 NA
ATOM     10  N   UNL     1       2.168   7.313  18.702  0.00  0.00    +0.000 N 
ENDROOT
BRANCH   6  11
ATOM     11  C   UNL     1       0.752  12.070  19.933  0.00  0.00    +0.000 A 
ATOM     12  C   UNL     1       1.559  13.083  20.478  0.00  0.00    +0.000 A 
ATOM     13  C   UNL     1       1.419  14.408  20.050  0.00  0.00    +0.000 A 
ATOM     14  C   UNL     1       0.471  14.734  19.085  0.00  0.00    +0.000 A 
ATOM     15  C   UNL     1      -0.340  13.740  18.545  0.00  0.00    +0.000 A 
ATOM     16  C   UNL     1      -0.199  12.414  18.966  0.00  0.00    +0.000 A 
ENDBRANCH   6  11
BRANCH  10  17
ATOM     17  C   UNL     1       2.670   6.109  18.063  0.00  0.00    +0.000 C 
BRANCH  17  18
ATOM     18  C   UNL     1       4.171   5.985  18.149  0.00  0.00    +0.000 A 
ATOM     19  C   UNL     1       4.781   5.367  19.253  0.00  0.00    +0.000 A 
ATOM     20  C   UNL     1       6.172   5.264  19.321  0.00  0.00    +0.000 A 
ATOM     21  C   UNL     1       6.954   5.779  18.292  0.00  0.00    +0.000 A 
ATOM     22  F   UNL     1       8.288   5.677  18.363  0.00  0.00    +0.000 F 
ATOM     23  C   UNL     1       6.373   6.398  17.195  0.00  0.00    +0.000 A 
ATOM     24  C   UNL     1       4.987   6.498  17.134  0.00  0.00    +0.000 A 
ATOM     25  F   UNL     1       4.430   7.088  16.067  0.00  0.00    +0.000 F 
ENDBRANCH  17  18
ENDBRANCH  10  17
TORSDOF 3
ENDMDL
MODEL 8
REMARK VINA RESULT:      -7.7      5.002      8.665
REMARK  Name = 
REMARK  3 active torsions:
REMARK  status: ('A' for Active; 'I' for Inactive)
REMARK    1  A    between atoms: N_6  and  C_7
REMARK    2  A    between atoms: N_16  and  C_17
REMARK    3  A    between atoms: C_17  and  C_18
REMARK                            x       y       z     vdW  Elec       q    Type
REMARK                         _______ _______ _______ _____ _____    ______ ____
ROOT
ATOM      1  O   UNL     1       6.457   3.985  17.749  0.00  0.00    +0.000 OA
ATOM      2  C   UNL     1       5.816   4.999  17.501  0.00  0.00    +0.000 A 
ATOM      3  C   UNL     1       4.735   5.438  18.323  0.00  0.00    +0.000 A 
ATOM      4  C   UNL     1       4.140   5.003  19.502  0.00  0.00    +0.000 A 
ATOM      5  N   UNL     1       3.152   5.815  19.891  0.00  0.00    +0.000 NA
ATOM      6  N   UNL     1       3.099   6.796  18.929  0.00  0.00    +0.000 N 
ATOM      7  C   UNL     1       4.063   6.570  17.960  0.00  0.00    +0.000 A 
ATOM      8  N   UNL     1       4.339   7.319  16.873  0.00  0.00    +0.000 NA
ATOM      9  N   UNL     1       5.299   6.984  16.131  0.00  0.00    +0.000 NA
ATOM     10  N   UNL     1       6.048   5.843  16.412  0.00  0.00    +0.000 N 
ENDROOT
BRANCH   6  11
ATOM     11  C   UNL     1       2.149   7.857  19.037  0.00  0.00    +0.000 A 
ATOM     12  C   UNL     1       1.606   8.174  20.293  0.00  0.00    +0.000 A 
ATOM     13  C   UNL     1       0.688   9.222  20.423  0.00  0.00    +0.000 A 
ATOM     14  C   UNL     1       0.299   9.955  19.306  0.00  0.00    +0.000 A 
ATOM     15  C   UNL     1       0.825   9.643  18.055  0.00  0.00    +0.000 A 
ATOM     16  C   UNL     1       1.747   8.600  17.921  0.00  0.00    +0.000 A 
ENDBRANCH   6  11
BRANCH  10  17
ATOM     17  C   UNL     1       7.139   5.564  15.493  0.00  0.00    +0.000 C 
BRANCH  17  18
ATOM     18  C   UNL     1       6.703   4.758  14.295  0.00  0.00    +0.000 A 
ATOM     19  C   UNL     1       5.549   3.960  14.345  0.00  0.00    +0.000 A 
ATOM     20  C   UNL     1       5.160   3.215  13.230  0.00  0.00    +0.000 A 
ATOM     21  C   UNL     1       5.922   3.264  12.068  0.00  0.00    +0.000 A 
ATOM     22  F   UNL     1       5.544   2.547  11.000  0.00  0.00    +0.000 F 
ATOM     23  C   UNL     1       7.069   4.041  11.997  0.00  0.00    +0.000 A 
ATOM     24  C   UNL     1       7.451   4.779  13.112  0.00  0.00    +0.000 A 
ATOM     25  F   UNL     1       8.554   5.537  13.036  0.00  0.00    +0.000 F 
ENDBRANCH  17  18
ENDBRANCH  10  17
TORSDOF 3
ENDMDL
MODEL 9
REMARK VINA RESULT:      -7.7      2.031      3.010
REMARK  Name = 
REMARK  3 active torsions:
REMARK  status: ('A' for Active; 'I' for Inactive)
REMARK    1  A    between atoms: N_6  and  C_7
REMARK    2  A    between atoms: N_16  and  C_17
REMARK    3  A    between atoms: C_17  and  C_18
REMARK                            x       y       z     vdW  Elec       q    Type
REMARK                         _______ _______ _______ _____ _____    ______ ____
ROOT
ATOM      1  O   UNL     1       2.270  10.136  17.445  0.00  0.00    +0.000 OA
ATOM      2  C   UNL     1       2.034   9.329  18.336  0.00  0.00    +0.000 A 
ATOM      3  C   UNL     1       2.532   7.992  18.307  0.00  0.00    +0.000 A 
ATOM      4  C   UNL     1       3.347   7.252  17.457  0.00  0.00    +0.000 A 
ATOM      5  N   UNL     1       3.548   6.012  17.914  0.00  0.00    +0.000 NA
ATOM      6  N   UNL     1       2.834   5.946  19.088  0.00  0.00    +0.000 N 
ATOM      7  C   UNL     1       2.203   7.155  19.333  0.00  0.00    +0.000 A 
ATOM      8  N   UNL     1       1.433   7.490  20.389  0.00  0.00    +0.000 NA
ATOM      9  N   UNL     1       0.990   8.665  20.470  0.00  0.00    +0.000 NA
ATOM     10  N   UNL     1       1.267   9.598  19.473  0.00  0.00    +0.000 N 
ENDROOT
BRANCH   6  11
ATOM     11  C   UNL     1       2.837   4.747  19.864  0.00  0.00    +0.000 A 
ATOM     12  C   UNL     1       3.802   3.759  19.607  0.00  0.00    +0.000 A 
ATOM     13  C   UNL     1       3.834   2.586  20.368  0.00  0.00    +0.000 A 
ATOM     14  C   UNL     1       2.902   2.384  21.382  0.00  0.00    +0.000 A 
ATOM     15  C   UNL     1       1.935   3.352  21.637  0.00  0.00    +0.000 A 
ATOM     16  C   UNL     1       1.903   4.529  20.884  0.00  0.00    +0.000 A 
ENDBRANCH   6  11
BRANCH  10  17
ATOM     17  C   UNL     1       0.713  10.926  19.681  0.00  0.00    +0.000 C 
BRANCH  17  18
ATOM     18  C   UNL     1      -0.701  11.055  19.173  0.00  0.00    +0.000 A 
ATOM     19  C   UNL     1      -1.138  10.315  18.062  0.00  0.00    +0.000 A 
ATOM     20  C   UNL     1      -2.449  10.450  17.600  0.00  0.00    +0.000 A 
ATOM     21  C   UNL     1      -3.321  11.324  18.241  0.00  0.00    +0.000 A 
ATOM     22  F   UNL     1      -4.577  11.448  17.793  0.00  0.00    +0.000 F 
ATOM     23  C   UNL     1      -2.909  12.069  19.336  0.00  0.00    +0.000 A 
ATOM     24  C   UNL     1      -1.602  11.931  19.790  0.00  0.00    +0.000 A 
ATOM     25  F   UNL     1      -1.211  12.646  20.855  0.00  0.00    +0.000 F 
ENDBRANCH  17  18
ENDBRANCH  10  17
TORSDOF 3
ENDMDL
