MODEL 1
REMARK VINA RESULT:      -9.2      0.000      0.000
REMARK  Name = 
REMARK  7 active torsions:
REMARK  status: ('A' for Active; 'I' for Inactive)
REMARK    1  A    between atoms: C_1  and  C_2
REMARK    2  A    between atoms: N_4  and  C_5
REMARK    3  A    between atoms: C_5  and  C_6
REMARK    4  A    between atoms: C_5  and  C_16
REMARK    5  A    between atoms: C_6  and  C_7
REMARK    6  A    between atoms: N_18  and  C_19
REMARK    7  A    between atoms: C_19  and  C_20
REMARK                            x       y       z     vdW  Elec       q    Type
REMARK                         _______ _______ _______ _____ _____    ______ ____
ROOT
ATOM      1  C   UNL     1       2.819   5.959  18.477  0.00  0.00    +0.000 C 
ENDROOT
BRANCH   1   5
ATOM      2  C   UNL     1       1.573   2.373  18.720  0.00  0.00    +0.000 C 
ATOM      3  C   UNL     1       1.654   3.774  18.178  0.00  0.00    +0.000 C 
ATOM      4  O   UNL     1       1.006   4.150  17.206  0.00  0.00    +0.000 OA
ATOM      5  N   UNL     1       2.539   4.574  18.852  0.00  0.00    +0.000 N 
ATOM      6  H   UNL     1       3.093   4.195  19.615  0.00  0.00    +0.000 HD
ENDBRANCH   1   5
BRANCH   1   7
ATOM      7  C   UNL     1       4.281   6.036  17.972  0.00  0.00    +0.000 C 
ATOM      8  O   UNL     1       4.709   7.028  17.378  0.00  0.00    +0.000 OA
ATOM      9  N   UNL     1       5.075   4.945  18.251  0.00  0.00    +0.000 N 
ATOM     10  H   UNL     1       4.692   4.149  18.744  0.00  0.00    +0.000 HD
BRANCH   9  11
ATOM     11  C   UNL     1       6.449   4.860  17.819  0.00  0.00    +0.000 C 
BRANCH  11  12
ATOM     12  C   UNL     1       6.477   4.634  16.346  0.00  0.00    +0.000 A 
ATOM     13  C   UNL     1       5.781   3.755  15.538  0.00  0.00    +0.000 A 
ATOM     14  C   UNL     1       6.232   3.926  14.198  0.00  0.00    +0.000 A 
ATOM     15  C   UNL     1       5.913   3.316  12.968  0.00  0.00    +0.000 A 
ATOM     16  C   UNL     1       6.575   3.726  11.804  0.00  0.00    +0.000 A 
ATOM     17  C   UNL     1       7.541   4.727  11.855  0.00  0.00    +0.000 A 
ATOM     18  C   UNL     1       7.876   5.348  13.064  0.00  0.00    +0.000 A 
ATOM     19  C   UNL     1       7.204   4.924  14.219  0.00  0.00    +0.000 A 
ATOM     20  N   UNL     1       7.331   5.338  15.526  0.00  0.00    +0.000 N 
ATOM     21  H   UNL     1       7.974   6.056  15.836  0.00  0.00    +0.000 HD
ENDBRANCH  11  12
ENDBRANCH   9  11
ENDBRANCH   1   7
BRANCH   1  22
ATOM     22  C   UNL     1       2.511   6.946  19.613  0.00  0.00    +0.000 C 
BRANCH  22  23
ATOM     23  C   UNL     1       1.823   8.221  19.206  0.00  0.00    +0.000 A 
ATOM     24  C   UNL     1       1.798   8.774  17.940  0.00  0.00    +0.000 A 
ATOM     25  N   UNL     1       0.975   9.864  17.952  0.00  0.00    +0.000 N 
ATOM     26  C   UNL     1       0.484  10.070  19.218  0.00  0.00    +0.000 A 
ATOM     27  C   UNL     1      -0.388  11.056  19.689  0.00  0.00    +0.000 A 
ATOM     28  C   UNL     1      -0.716  11.032  21.046  0.00  0.00    +0.000 A 
ATOM     29  C   UNL     1      -0.199  10.054  21.890  0.00  0.00    +0.000 A 
ATOM     30  C   UNL     1       0.658   9.063  21.397  0.00  0.00    +0.000 A 
ATOM     31  C   UNL     1       1.014   9.068  20.033  0.00  0.00    +0.000 A 
ATOM     32  H   UNL     1       0.747  10.428  17.145  0.00  0.00    +0.000 HD
ENDBRANCH  22  23
ENDBRANCH   1  22
TORSDOF 6
ENDMDL
MODEL 2
REMARK VINA RESULT:      -8.7      3.935      5.769
REMARK  Name = 
REMARK  7 active torsions:
REMARK  status: ('A' for Active; 'I' for Inactive)
REMARK    1  A    between atoms: C_1  and  C_2
REMARK    2  A    between atoms: N_4  and  C_5
REMARK    3  A    between atoms: C_5  and  C_6
REMARK    4  A    between atoms: C_5  and  C_16
REMARK    5  A    between atoms: C_6  and  C_7
REMARK    6  A    between atoms: N_18  and  C_19
REMARK    7  A    between atoms: C_19  and  C_20
REMARK                            x       y       z     vdW  Elec       q    Type
REMARK                         _______ _______ _______ _____ _____    ______ ____
ROOT
ATOM      1  C   UNL     1       4.812   4.996  17.185  0.00  0.00    +0.000 C 
ENDROOT
BRANCH   1   5
ATOM      2  C   UNL     1       6.124   3.890  13.791  0.00  0.00    +0.000 C 
ATOM      3  C   UNL     1       5.743   4.860  14.875  0.00  0.00    +0.000 C 
ATOM      4  O   UNL     1       5.920   6.070  14.778  0.00  0.00    +0.000 OA
ATOM      5  N   UNL     1       5.212   4.260  15.986  0.00  0.00    +0.000 N 
ATOM      6  H   UNL     1       5.140   3.248  16.038  0.00  0.00    +0.000 HD
ENDBRANCH   1   5
BRANCH   1   7
ATOM      7  C   UNL     1       6.068   5.207  18.064  0.00  0.00    +0.000 C 
ATOM      8  O   UNL     1       6.382   4.406  18.949  0.00  0.00    +0.000 OA
ATOM      9  N   UNL     1       6.824   6.325  17.781  0.00  0.00    +0.000 N 
ATOM     10  H   UNL     1       6.539   6.959  17.046  0.00  0.00    +0.000 HD
BRANCH   9  11
ATOM     11  C   UNL     1       8.005   6.668  18.535  0.00  0.00    +0.000 C 
BRANCH  11  12
ATOM     12  C   UNL     1       8.219   8.140  18.449  0.00  0.00    +0.000 A 
ATOM     13  C   UNL     1       7.702   9.097  17.595  0.00  0.00    +0.000 A 
ATOM     14  C   UNL     1       8.284  10.354  17.927  0.00  0.00    +0.000 A 
ATOM     15  C   UNL     1       8.162  11.659  17.410  0.00  0.00    +0.000 A 
ATOM     16  C   UNL     1       8.910  12.697  17.979  0.00  0.00    +0.000 A 
ATOM     17  C   UNL     1       9.769  12.448  19.046  0.00  0.00    +0.000 A 
ATOM     18  C   UNL     1       9.908  11.160  19.577  0.00  0.00    +0.000 A 
ATOM     19  C   UNL     1       9.152  10.134  18.994  0.00  0.00    +0.000 A 
ATOM     20  N   UNL     1       9.092   8.791  19.294  0.00  0.00    +0.000 N 
ATOM     21  H   UNL     1       9.628   8.348  20.029  0.00  0.00    +0.000 HD
ENDBRANCH  11  12
ENDBRANCH   9  11
ENDBRANCH   1   7
BRANCH   1  22
ATOM     22  C   UNL     1       3.651   4.316  17.928  0.00  0.00    +0.000 C 
BRANCH  22  23
ATOM     23  C   UNL     1       2.966   5.150  18.977  0.00  0.00    +0.000 A 
ATOM     24  C   UNL     1       2.712   4.783  20.284  0.00  0.00    +0.000 A 
ATOM     25  N   UNL     1       2.183   5.853  20.948  0.00  0.00    +0.000 N 
ATOM     26  C   UNL     1       2.040   6.916  20.091  0.00  0.00    +0.000 A 
ATOM     27  C   UNL     1       1.549   8.201  20.335  0.00  0.00    +0.000 A 
ATOM     28  C   UNL     1       1.508   9.091  19.260  0.00  0.00    +0.000 A 
ATOM     29  C   UNL     1       1.952   8.710  17.997  0.00  0.00    +0.000 A 
ATOM     30  C   UNL     1       2.459   7.423  17.775  0.00  0.00    +0.000 A 
ATOM     31  C   UNL     1       2.504   6.501  18.840  0.00  0.00    +0.000 A 
ATOM     32  H   UNL     1       1.945   5.866  21.930  0.00  0.00    +0.000 HD
ENDBRANCH  22  23
ENDBRANCH   1  22
TORSDOF 6
ENDMDL
MODEL 3
REMARK VINA RESULT:      -8.6      0.593      1.146
REMARK  Name = 
REMARK  7 active torsions:
REMARK  status: ('A' for Active; 'I' for Inactive)
REMARK    1  A    between atoms: C_1  and  C_2
REMARK    2  A    between atoms: N_4  and  C_5
REMARK    3  A    between atoms: C_5  and  C_6
REMARK    4  A    between atoms: C_5  and  C_16
REMARK    5  A    between atoms: C_6  and  C_7
REMARK    6  A    between atoms: N_18  and  C_19
REMARK    7  A    between atoms: C_19  and  C_20
REMARK                            x       y       z     vdW  Elec       q    Type
REMARK                         _______ _______ _______ _____ _____    ______ ____
ROOT
ATOM      1  C   UNL     1       2.822   5.837  18.557  0.00  0.00    +0.000 C 
ENDROOT
BRANCH   1   5
ATOM      2  C   UNL     1       1.430   2.305  18.790  0.00  0.00    +0.000 C 
ATOM      3  C   UNL     1       1.585   3.695  18.236  0.00  0.00    +0.000 C 
ATOM      4  O   UNL     1       0.988   4.084  17.238  0.00  0.00    +0.000 OA
ATOM      5  N   UNL     1       2.474   4.468  18.935  0.00  0.00    +0.000 N 
ATOM      6  H   UNL     1       2.985   4.078  19.722  0.00  0.00    +0.000 HD
ENDBRANCH   1   5
BRANCH   1   7
ATOM      7  C   UNL     1       4.336   5.881  18.238  0.00  0.00    +0.000 C 
ATOM      8  O   UNL     1       4.898   6.927  17.905  0.00  0.00    +0.000 OA
ATOM      9  N   UNL     1       5.017   4.690  18.376  0.00  0.00    +0.000 N 
ATOM     10  H   UNL     1       4.526   3.851  18.654  0.00  0.00    +0.000 HD
BRANCH   9  11
ATOM     11  C   UNL     1       6.426   4.570  18.086  0.00  0.00    +0.000 C 
BRANCH  11  12
ATOM     12  C   UNL     1       6.610   4.511  16.608  0.00  0.00    +0.000 A 
ATOM     13  C   UNL     1       7.435   5.220  15.755  0.00  0.00    +0.000 A 
ATOM     14  C   UNL     1       7.171   4.795  14.422  0.00  0.00    +0.000 A 
ATOM     15  C   UNL     1       7.675   5.159  13.157  0.00  0.00    +0.000 A 
ATOM     16  C   UNL     1       7.172   4.534  12.009  0.00  0.00    +0.000 A 
ATOM     17  C   UNL     1       6.182   3.561  12.111  0.00  0.00    +0.000 A 
ATOM     18  C   UNL     1       5.664   3.182  13.355  0.00  0.00    +0.000 A 
ATOM     19  C   UNL     1       6.179   3.819  14.492  0.00  0.00    +0.000 A 
ATOM     20  N   UNL     1       5.860   3.663  15.823  0.00  0.00    +0.000 N 
ATOM     21  H   UNL     1       5.162   3.017  16.168  0.00  0.00    +0.000 HD
ENDBRANCH  11  12
ENDBRANCH   9  11
ENDBRANCH   1   7
BRANCH   1  22
ATOM     22  C   UNL     1       2.388   6.864  19.614  0.00  0.00    +0.000 C 
BRANCH  22  23
ATOM     23  C   UNL     1       1.840   8.161  19.083  0.00  0.00    +0.000 A 
ATOM     24  C   UNL     1       1.943   8.628  17.787  0.00  0.00    +0.000 A 
ATOM     25  N   UNL     1       1.218   9.781  17.676  0.00  0.00    +0.000 N 
ATOM     26  C   UNL     1       0.668  10.111  18.890  0.00  0.00    +0.000 A 
ATOM     27  C   UNL     1      -0.143  11.195  19.239  0.00  0.00    +0.000 A 
ATOM     28  C   UNL     1      -0.556  11.289  20.570  0.00  0.00    +0.000 A 
ATOM     29  C   UNL     1      -0.180  10.330  21.506  0.00  0.00    +0.000 A 
ATOM     30  C   UNL     1       0.618   9.241  21.134  0.00  0.00    +0.000 A 
ATOM     31  C   UNL     1       1.057   9.125  19.799  0.00  0.00    +0.000 A 
ATOM     32  H   UNL     1       1.090  10.306  16.822  0.00  0.00    +0.000 HD
ENDBRANCH  22  23
ENDBRANCH   1  22
TORSDOF 6
ENDMDL
MODEL 4
REMARK VINA RESULT:      -8.5      1.504      8.984
REMARK  Name = 
REMARK  7 active torsions:
REMARK  status: ('A' for Active; 'I' for Inactive)
REMARK    1  A    between atoms: C_1  and  C_2
REMARK    2  A    between atoms: N_4  and  C_5
REMARK    3  A    between atoms: C_5  and  C_6
REMARK    4  A    between atoms: C_5  and  C_16
REMARK    5  A    between atoms: C_6  and  C_7
REMARK    6  A    between atoms: N_18  and  C_19
REMARK    7  A    between atoms: C_19  and  C_20
REMARK                            x       y       z     vdW  Elec       q    Type
REMARK                         _______ _______ _______ _____ _____    ______ ____
ROOT
ATOM      1  C   UNL     1       4.328   5.231  17.926  0.00  0.00    +0.000 C 
ENDROOT
BRANCH   1   5
ATOM      2  C   UNL     1       2.666   3.228  20.699  0.00  0.00    +0.000 C 
ATOM      3  C   UNL     1       3.757   3.616  19.739  0.00  0.00    +0.000 C 
ATOM      4  O   UNL     1       4.855   3.072  19.724  0.00  0.00    +0.000 OA
ATOM      5  N   UNL     1       3.414   4.652  18.910  0.00  0.00    +0.000 N 
ATOM      6  H   UNL     1       2.510   5.106  19.002  0.00  0.00    +0.000 HD
ENDBRANCH   1   5
BRANCH   1   7
ATOM      7  C   UNL     1       3.806   6.640  17.553  0.00  0.00    +0.000 C 
ATOM      8  O   UNL     1       4.351   7.323  16.682  0.00  0.00    +0.000 OA
ATOM      9  N   UNL     1       2.685   7.069  18.231  0.00  0.00    +0.000 N 
ATOM     10  H   UNL     1       2.262   6.482  18.937  0.00  0.00    +0.000 HD
BRANCH   9  11
ATOM     11  C   UNL     1       2.102   8.370  18.012  0.00  0.00    +0.000 C 
BRANCH  11  12
ATOM     12  C   UNL     1       1.465   8.832  19.277  0.00  0.00    +0.000 A 
ATOM     13  C   UNL     1       1.371   8.247  20.526  0.00  0.00    +0.000 A 
ATOM     14  C   UNL     1       0.605   9.105  21.366  0.00  0.00    +0.000 A 
ATOM     15  C   UNL     1       0.171   9.038  22.705  0.00  0.00    +0.000 A 
ATOM     16  C   UNL     1      -0.603  10.079  23.231  0.00  0.00    +0.000 A 
ATOM     17  C   UNL     1      -0.945  11.174  22.442  0.00  0.00    +0.000 A 
ATOM     18  C   UNL     1      -0.527  11.264  21.109  0.00  0.00    +0.000 A 
ATOM     19  C   UNL     1       0.246  10.212  20.600  0.00  0.00    +0.000 A 
ATOM     20  N   UNL     1       0.781  10.026  19.344  0.00  0.00    +0.000 N 
ATOM     21  H   UNL     1       0.672  10.677  18.578  0.00  0.00    +0.000 HD
ENDBRANCH  11  12
ENDBRANCH   9  11
ENDBRANCH   1   7
BRANCH   1  22
ATOM     22  C   UNL     1       4.539   4.315  16.711  0.00  0.00    +0.000 C 
BRANCH  22  23
ATOM     23  C   UNL     1       5.678   4.684  15.800  0.00  0.00    +0.000 A 
ATOM     24  C   UNL     1       6.810   5.397  16.145  0.00  0.00    +0.000 A 
ATOM     25  N   UNL     1       7.657   5.423  15.074  0.00  0.00    +0.000 N 
ATOM     26  C   UNL     1       7.088   4.774  14.007  0.00  0.00    +0.000 A 
ATOM     27  C   UNL     1       7.592   4.555  12.721  0.00  0.00    +0.000 A 
ATOM     28  C   UNL     1       6.781   3.862  11.819  0.00  0.00    +0.000 A 
ATOM     29  C   UNL     1       5.524   3.400  12.197  0.00  0.00    +0.000 A 
ATOM     30  C   UNL     1       5.043   3.612  13.495  0.00  0.00    +0.000 A 
ATOM     31  C   UNL     1       5.836   4.316  14.423  0.00  0.00    +0.000 A 
ATOM     32  H   UNL     1       8.576   5.844  15.071  0.00  0.00    +0.000 HD
ENDBRANCH  22  23
ENDBRANCH   1  22
TORSDOF 6
ENDMDL
MODEL 5
REMARK VINA RESULT:      -8.5      2.605      8.470
REMARK  Name = 
REMARK  7 active torsions:
REMARK  status: ('A' for Active; 'I' for Inactive)
REMARK    1  A    between atoms: C_1  and  C_2
REMARK    2  A    between atoms: N_4  and  C_5
REMARK    3  A    between atoms: C_5  and  C_6
REMARK    4  A    between atoms: C_5  and  C_16
REMARK    5  A    between atoms: C_6  and  C_7
REMARK    6  A    between atoms: N_18  and  C_19
REMARK    7  A    between atoms: C_19  and  C_20
REMARK                            x       y       z     vdW  Elec       q    Type
REMARK                         _______ _______ _______ _____ _____    ______ ____
ROOT
ATOM      1  C   UNL     1       2.511   6.511  19.793  0.00  0.00    +0.000 C 
ENDROOT
BRANCH   1   5
ATOM      2  C   UNL     1       0.570   3.263  20.181  0.00  0.00    +0.000 C 
ATOM      3  C   UNL     1       1.694   4.237  20.409  0.00  0.00    +0.000 C 
ATOM      4  O   UNL     1       2.620   4.014  21.182  0.00  0.00    +0.000 OA
ATOM      5  N   UNL     1       1.565   5.400  19.697  0.00  0.00    +0.000 N 
ATOM      6  H   UNL     1       0.748   5.557  19.114  0.00  0.00    +0.000 HD
ENDBRANCH   1   5
BRANCH   1   7
ATOM      7  C   UNL     1       1.741   7.759  20.288  0.00  0.00    +0.000 C 
ATOM      8  O   UNL     1       1.244   7.809  21.416  0.00  0.00    +0.000 OA
ATOM      9  N   UNL     1       1.670   8.816  19.404  0.00  0.00    +0.000 N 
ATOM     10  H   UNL     1       2.092   8.742  18.488  0.00  0.00    +0.000 HD
BRANCH   9  11
ATOM     11  C   UNL     1       0.961  10.034  19.714  0.00  0.00    +0.000 C 
BRANCH  11  12
ATOM     12  C   UNL     1      -0.233  10.134  18.829  0.00  0.00    +0.000 A 
ATOM     13  C   UNL     1      -0.494   9.616  17.574  0.00  0.00    +0.000 A 
ATOM     14  C   UNL     1      -1.782  10.062  17.164  0.00  0.00    +0.000 A 
ATOM     15  C   UNL     1      -2.562   9.879  16.004  0.00  0.00    +0.000 A 
ATOM     16  C   UNL     1      -3.820  10.489  15.918  0.00  0.00    +0.000 A 
ATOM     17  C   UNL     1      -4.301  11.271  16.964  0.00  0.00    +0.000 A 
ATOM     18  C   UNL     1      -3.544  11.468  18.126  0.00  0.00    +0.000 A 
ATOM     19  C   UNL     1      -2.288  10.851  18.195  0.00  0.00    +0.000 A 
ATOM     20  N   UNL     1      -1.336  10.876  19.190  0.00  0.00    +0.000 N 
ATOM     21  H   UNL     1      -1.437  11.380  20.061  0.00  0.00    +0.000 HD
ENDBRANCH  11  12
ENDBRANCH   9  11
ENDBRANCH   1   7
BRANCH   1  22
ATOM     22  C   UNL     1       3.275   6.744  18.480  0.00  0.00    +0.000 C 
BRANCH  22  23
ATOM     23  C   UNL     1       4.552   5.965  18.318  0.00  0.00    +0.000 A 
ATOM     24  C   UNL     1       5.278   5.355  19.323  0.00  0.00    +0.000 A 
ATOM     25  N   UNL     1       6.305   4.651  18.760  0.00  0.00    +0.000 N 
ATOM     26  C   UNL     1       6.300   4.819  17.398  0.00  0.00    +0.000 A 
ATOM     27  C   UNL     1       7.156   4.287  16.428  0.00  0.00    +0.000 A 
ATOM     28  C   UNL     1       6.921   4.638  15.097  0.00  0.00    +0.000 A 
ATOM     29  C   UNL     1       5.864   5.477  14.754  0.00  0.00    +0.000 A 
ATOM     30  C   UNL     1       5.005   5.985  15.737  0.00  0.00    +0.000 A 
ATOM     31  C   UNL     1       5.224   5.655  17.090  0.00  0.00    +0.000 A 
ATOM     32  H   UNL     1       6.963   4.079  19.270  0.00  0.00    +0.000 HD
ENDBRANCH  22  23
ENDBRANCH   1  22
TORSDOF 6
ENDMDL
MODEL 6
REMARK VINA RESULT:      -8.5      4.645      7.171
REMARK  Name = 
REMARK  7 active torsions:
REMARK  status: ('A' for Active; 'I' for Inactive)
REMARK    1  A    between atoms: C_1  and  C_2
REMARK    2  A    between atoms: N_4  and  C_5
REMARK    3  A    between atoms: C_5  and  C_6
REMARK    4  A    between atoms: C_5  and  C_16
REMARK    5  A    between atoms: C_6  and  C_7
REMARK    6  A    between atoms: N_18  and  C_19
REMARK    7  A    between atoms: C_19  and  C_20
REMARK                            x       y       z     vdW  Elec       q    Type
REMARK                         _______ _______ _______ _____ _____    ______ ____
ROOT
ATOM      1  C   UNL     1       4.526   6.602  17.727  0.00  0.00    +0.000 C 
ENDROOT
BRANCH   1   5
ATOM      2  C   UNL     1       1.850   9.304  17.640  0.00  0.00    +0.000 C 
ATOM      3  C   UNL     1       2.616   8.136  18.198  0.00  0.00    +0.000 C 
ATOM      4  O   UNL     1       2.377   7.647  19.297  0.00  0.00    +0.000 OA
ATOM      5  N   UNL     1       3.619   7.694  17.376  0.00  0.00    +0.000 N 
ATOM      6  H   UNL     1       3.812   8.172  16.500  0.00  0.00    +0.000 HD
ENDBRANCH   1   5
BRANCH   1   7
ATOM      7  C   UNL     1       5.913   6.908  17.112  0.00  0.00    +0.000 C 
ATOM      8  O   UNL     1       6.268   6.418  16.037  0.00  0.00    +0.000 OA
ATOM      9  N   UNL     1       6.710   7.780  17.823  0.00  0.00    +0.000 N 
ATOM     10  H   UNL     1       6.386   8.166  18.700  0.00  0.00    +0.000 HD
BRANCH   9  11
ATOM     11  C   UNL     1       8.040   8.136  17.391  0.00  0.00    +0.000 C 
BRANCH  11  12
ATOM     12  C   UNL     1       8.435   9.412  18.052  0.00  0.00    +0.000 A 
ATOM     13  C   UNL     1       8.371  10.726  17.627  0.00  0.00    +0.000 A 
ATOM     14  C   UNL     1       8.932  11.553  18.642  0.00  0.00    +0.000 A 
ATOM     15  C   UNL     1       9.153  12.939  18.770  0.00  0.00    +0.000 A 
ATOM     16  C   UNL     1       9.757  13.435  19.931  0.00  0.00    +0.000 A 
ATOM     17  C   UNL     1      10.139  12.572  20.955  0.00  0.00    +0.000 A 
ATOM     18  C   UNL     1       9.931  11.191  20.851  0.00  0.00    +0.000 A 
ATOM     19  C   UNL     1       9.326  10.712  19.681  0.00  0.00    +0.000 A 
ATOM     20  N   UNL     1       9.012   9.426  19.303  0.00  0.00    +0.000 N 
ATOM     21  H   UNL     1       9.192   8.606  19.869  0.00  0.00    +0.000 HD
ENDBRANCH  11  12
ENDBRANCH   9  11
ENDBRANCH   1   7
BRANCH   1  22
ATOM     22  C   UNL     1       3.968   5.228  17.325  0.00  0.00    +0.000 C 
BRANCH  22  23
ATOM     23  C   UNL     1       4.014   4.164  18.389  0.00  0.00    +0.000 A 
ATOM     24  C   UNL     1       5.091   3.358  18.701  0.00  0.00    +0.000 A 
ATOM     25  N   UNL     1       4.777   2.607  19.798  0.00  0.00    +0.000 N 
ATOM     26  C   UNL     1       3.490   2.871  20.196  0.00  0.00    +0.000 A 
ATOM     27  C   UNL     1       2.757   2.341  21.262  0.00  0.00    +0.000 A 
ATOM     28  C   UNL     1       1.445   2.788  21.429  0.00  0.00    +0.000 A 
ATOM     29  C   UNL     1       0.896   3.735  20.569  0.00  0.00    +0.000 A 
ATOM     30  C   UNL     1       1.651   4.269  19.517  0.00  0.00    +0.000 A 
ATOM     31  C   UNL     1       2.976   3.829  19.319  0.00  0.00    +0.000 A 
ATOM     32  H   UNL     1       5.404   1.963  20.260  0.00  0.00    +0.000 HD
ENDBRANCH  22  23
ENDBRANCH   1  22
TORSDOF 6
ENDMDL
MODEL 7
REMARK VINA RESULT:      -8.5      1.939      4.564
REMARK  Name = 
REMARK  7 active torsions:
REMARK  status: ('A' for Active; 'I' for Inactive)
REMARK    1  A    between atoms: C_1  and  C_2
REMARK    2  A    between atoms: N_4  and  C_5
REMARK    3  A    between atoms: C_5  and  C_6
REMARK    4  A    between atoms: C_5  and  C_16
REMARK    5  A    between atoms: C_6  and  C_7
REMARK    6  A    between atoms: N_18  and  C_19
REMARK    7  A    between atoms: C_19  and  C_20
REMARK                            x       y       z     vdW  Elec       q    Type
REMARK                         _______ _______ _______ _____ _____    ______ ____
ROOT
ATOM      1  C   UNL     1       3.147   6.897  18.093  0.00  0.00    +0.000 C 
ENDROOT
BRANCH   1   5
ATOM      2  C   UNL     1       1.908  10.493  18.070  0.00  0.00    +0.000 C 
ATOM      3  C   UNL     1       2.021   9.074  18.556  0.00  0.00    +0.000 C 
ATOM      4  O   UNL     1       1.446   8.666  19.560  0.00  0.00    +0.000 OA
ATOM      5  N   UNL     1       2.848   8.295  17.789  0.00  0.00    +0.000 N 
ATOM      6  H   UNL     1       3.345   8.699  17.000  0.00  0.00    +0.000 HD
ENDBRANCH   1   5
BRANCH   1   7
ATOM      7  C   UNL     1       4.556   6.573  17.538  0.00  0.00    +0.000 C 
ATOM      8  O   UNL     1       5.012   7.152  16.549  0.00  0.00    +0.000 OA
ATOM      9  N   UNL     1       5.275   5.623  18.232  0.00  0.00    +0.000 N 
ATOM     10  H   UNL     1       4.872   5.170  19.042  0.00  0.00    +0.000 HD
BRANCH   9  11
ATOM     11  C   UNL     1       6.589   5.196  17.818  0.00  0.00    +0.000 C 
BRANCH  11  12
ATOM     12  C   UNL     1       6.546   4.839  16.372  0.00  0.00    +0.000 A 
ATOM     13  C   UNL     1       5.801   3.904  15.677  0.00  0.00    +0.000 A 
ATOM     14  C   UNL     1       6.192   3.947  14.309  0.00  0.00    +0.000 A 
ATOM     15  C   UNL     1       5.808   3.236  13.154  0.00  0.00    +0.000 A 
ATOM     16  C   UNL     1       6.421   3.529  11.930  0.00  0.00    +0.000 A 
ATOM     17  C   UNL     1       7.402   4.513  11.847  0.00  0.00    +0.000 A 
ATOM     18  C   UNL     1       7.802   5.233  12.979  0.00  0.00    +0.000 A 
ATOM     19  C   UNL     1       7.178   4.926  14.196  0.00  0.00    +0.000 A 
ATOM     20  N   UNL     1       7.371   5.452  15.455  0.00  0.00    +0.000 N 
ATOM     21  H   UNL     1       8.037   6.183  15.669  0.00  0.00    +0.000 HD
ENDBRANCH  11  12
ENDBRANCH   9  11
ENDBRANCH   1   7
BRANCH   1  22
ATOM     22  C   UNL     1       2.056   5.941  17.587  0.00  0.00    +0.000 C 
BRANCH  22  23
ATOM     23  C   UNL     1       2.199   4.502  18.004  0.00  0.00    +0.000 A 
ATOM     24  C   UNL     1       2.452   3.427  17.174  0.00  0.00    +0.000 A 
ATOM     25  N   UNL     1       2.628   2.311  17.942  0.00  0.00    +0.000 N 
ATOM     26  C   UNL     1       2.454   2.619  19.268  0.00  0.00    +0.000 A 
ATOM     27  C   UNL     1       2.543   1.797  20.396  0.00  0.00    +0.000 A 
ATOM     28  C   UNL     1       2.304   2.383  21.641  0.00  0.00    +0.000 A 
ATOM     29  C   UNL     1       2.002   3.737  21.749  0.00  0.00    +0.000 A 
ATOM     30  C   UNL     1       1.937   4.549  20.610  0.00  0.00    +0.000 A 
ATOM     31  C   UNL     1       2.163   3.983  19.339  0.00  0.00    +0.000 A 
ATOM     32  H   UNL     1       2.867   1.395  17.588  0.00  0.00    +0.000 HD
ENDBRANCH  22  23
ENDBRANCH   1  22
TORSDOF 6
ENDMDL
MODEL 8
REMARK VINA RESULT:      -8.4      4.596      7.153
REMARK  Name = 
REMARK  7 active torsions:
REMARK  status: ('A' for Active; 'I' for Inactive)
REMARK    1  A    between atoms: C_1  and  C_2
REMARK    2  A    between atoms: N_4  and  C_5
REMARK    3  A    between atoms: C_5  and  C_6
REMARK    4  A    between atoms: C_5  and  C_16
REMARK    5  A    between atoms: C_6  and  C_7
REMARK    6  A    between atoms: N_18  and  C_19
REMARK    7  A    between atoms: C_19  and  C_20
REMARK                            x       y       z     vdW  Elec       q    Type
REMARK                         _______ _______ _______ _____ _____    ______ ____
ROOT
ATOM      1  C   UNL     1       5.543   6.347  16.058  0.00  0.00    +0.000 C 
ENDROOT
BRANCH   1   5
ATOM      2  C   UNL     1       6.252   3.413  13.744  0.00  0.00    +0.000 C 
ATOM      3  C   UNL     1       6.398   4.806  14.293  0.00  0.00    +0.000 C 
ATOM      4  O   UNL     1       7.217   5.610  13.860  0.00  0.00    +0.000 OA
ATOM      5  N   UNL     1       5.551   5.076  15.336  0.00  0.00    +0.000 N 
ATOM      6  H   UNL     1       4.931   4.355  15.692  0.00  0.00    +0.000 HD
ENDBRANCH   1   5
BRANCH   1   7
ATOM      7  C   UNL     1       6.693   6.321  17.094  0.00  0.00    +0.000 C 
ATOM      8  O   UNL     1       7.155   5.261  17.523  0.00  0.00    +0.000 OA
ATOM      9  N   UNL     1       7.184   7.549  17.484  0.00  0.00    +0.000 N 
ATOM     10  H   UNL     1       6.784   8.400  17.109  0.00  0.00    +0.000 HD
BRANCH   9  11
ATOM     11  C   UNL     1       8.234   7.685  18.464  0.00  0.00    +0.000 C 
BRANCH  11  12
ATOM     12  C   UNL     1       8.639   9.117  18.541  0.00  0.00    +0.000 A 
ATOM     13  C   UNL     1       8.453  10.173  17.669  0.00  0.00    +0.000 A 
ATOM     14  C   UNL     1       9.090  11.323  18.218  0.00  0.00    +0.000 A 
ATOM     15  C   UNL     1       9.250  12.656  17.788  0.00  0.00    +0.000 A 
ATOM     16  C   UNL     1       9.966  13.555  18.587  0.00  0.00    +0.000 A 
ATOM     17  C   UNL     1      10.517  13.142  19.797  0.00  0.00    +0.000 A 
ATOM     18  C   UNL     1      10.372  11.824  20.246  0.00  0.00    +0.000 A 
ATOM     19  C   UNL     1       9.653  10.938  19.432  0.00  0.00    +0.000 A 
ATOM     20  N   UNL     1       9.364   9.602  19.607  0.00  0.00    +0.000 N 
ATOM     21  H   UNL     1       9.657   9.057  20.407  0.00  0.00    +0.000 HD
ENDBRANCH  11  12
ENDBRANCH   9  11
ENDBRANCH   1   7
BRANCH   1  22
ATOM     22  C   UNL     1       4.171   6.662  16.674  0.00  0.00    +0.000 C 
BRANCH  22  23
ATOM     23  C   UNL     1       3.834   5.920  17.939  0.00  0.00    +0.000 A 
ATOM     24  C   UNL     1       3.927   6.408  19.228  0.00  0.00    +0.000 A 
ATOM     25  N   UNL     1       3.420   5.476  20.089  0.00  0.00    +0.000 N 
ATOM     26  C   UNL     1       3.030   4.357  19.397  0.00  0.00    +0.000 A 
ATOM     27  C   UNL     1       2.459   3.170  19.864  0.00  0.00    +0.000 A 
ATOM     28  C   UNL     1       2.168   2.180  18.923  0.00  0.00    +0.000 A 
ATOM     29  C   UNL     1       2.428   2.379  17.571  0.00  0.00    +0.000 A 
ATOM     30  C   UNL     1       2.983   3.582  17.118  0.00  0.00    +0.000 A 
ATOM     31  C   UNL     1       3.296   4.596  18.046  0.00  0.00    +0.000 A 
ATOM     32  H   UNL     1       3.330   5.598  21.088  0.00  0.00    +0.000 HD
ENDBRANCH  22  23
ENDBRANCH   1  22
TORSDOF 6
ENDMDL
MODEL 9
REMARK VINA RESULT:      -8.4      2.834      7.786
REMARK  Name = 
REMARK  7 active torsions:
REMARK  status: ('A' for Active; 'I' for Inactive)
REMARK    1  A    between atoms: C_1  and  C_2
REMARK    2  A    between atoms: N_4  and  C_5
REMARK    3  A    between atoms: C_5  and  C_6
REMARK    4  A    between atoms: C_5  and  C_16
REMARK    5  A    between atoms: C_6  and  C_7
REMARK    6  A    between atoms: N_18  and  C_19
REMARK    7  A    between atoms: C_19  and  C_20
REMARK                            x       y       z     vdW  Elec       q    Type
REMARK                         _______ _______ _______ _____ _____    ______ ____
ROOT
ATOM      1  C   UNL     1       6.083   5.527  17.883  0.00  0.00    +0.000 C 
ENDROOT
BRANCH   1   5
ATOM      2  C   UNL     1       8.532   8.342  18.621  0.00  0.00    +0.000 C 
ATOM      3  C   UNL     1       7.772   7.360  17.773  0.00  0.00    +0.000 C 
ATOM      4  O   UNL     1       7.860   7.328  16.550  0.00  0.00    +0.000 OA
ATOM      5  N   UNL     1       6.953   6.531  18.494  0.00  0.00    +0.000 N 
ATOM      6  H   UNL     1       6.874   6.638  19.502  0.00  0.00    +0.000 HD
ENDBRANCH   1   5
BRANCH   1   7
ATOM      7  C   UNL     1       4.912   6.262  17.188  0.00  0.00    +0.000 C 
ATOM      8  O   UNL     1       4.751   6.213  15.966  0.00  0.00    +0.000 OA
ATOM      9  N   UNL     1       4.050   6.948  18.018  0.00  0.00    +0.000 N 
ATOM     10  H   UNL     1       4.210   6.964  19.016  0.00  0.00    +0.000 HD
BRANCH   9  11
ATOM     11  C   UNL     1       2.930   7.704  17.512  0.00  0.00    +0.000 C 
BRANCH  11  12
ATOM     12  C   UNL     1       2.172   8.269  18.663  0.00  0.00    +0.000 A 
ATOM     13  C   UNL     1       1.971   7.805  19.949  0.00  0.00    +0.000 A 
ATOM     14  C   UNL     1       1.118   8.721  20.628  0.00  0.00    +0.000 A 
ATOM     15  C   UNL     1       0.563   8.772  21.922  0.00  0.00    +0.000 A 
ATOM     16  C   UNL     1      -0.271   9.841  22.272  0.00  0.00    +0.000 A 
ATOM     17  C   UNL     1      -0.553  10.848  21.353  0.00  0.00    +0.000 A 
ATOM     18  C   UNL     1      -0.015  10.820  20.061  0.00  0.00    +0.000 A 
ATOM     19  C   UNL     1       0.817   9.742  19.729  0.00  0.00    +0.000 A 
ATOM     20  N   UNL     1       1.468   9.448  18.551  0.00  0.00    +0.000 N 
ATOM     21  H   UNL     1       1.422  10.021  17.718  0.00  0.00    +0.000 HD
ENDBRANCH  11  12
ENDBRANCH   9  11
ENDBRANCH   1   7
BRANCH   1  22
ATOM     22  C   UNL     1       5.625   4.460  18.889  0.00  0.00    +0.000 C 
BRANCH  22  23
ATOM     23  C   UNL     1       4.368   3.715  18.528  0.00  0.00    +0.000 A 
ATOM     24  C   UNL     1       4.200   2.853  17.462  0.00  0.00    +0.000 A 
ATOM     25  N   UNL     1       2.958   2.289  17.543  0.00  0.00    +0.000 N 
ATOM     26  C   UNL     1       2.281   2.794  18.625  0.00  0.00    +0.000 A 
ATOM     27  C   UNL     1       0.995   2.502  19.091  0.00  0.00    +0.000 A 
ATOM     28  C   UNL     1       0.551   3.183  20.227  0.00  0.00    +0.000 A 
ATOM     29  C   UNL     1       1.367   4.108  20.873  0.00  0.00    +0.000 A 
ATOM     30  C   UNL     1       2.660   4.373  20.403  0.00  0.00    +0.000 A 
ATOM     31  C   UNL     1       3.131   3.707  19.253  0.00  0.00    +0.000 A 
ATOM     32  H   UNL     1       2.596   1.589  16.910  0.00  0.00    +0.000 HD
ENDBRANCH  22  23
ENDBRANCH   1  22
TORSDOF 6
ENDMDL
