MODEL 1
REMARK VINA RESULT:      -7.7      0.000      0.000
REMARK  Name = 
REMARK  4 active torsions:
REMARK  status: ('A' for Active; 'I' for Inactive)
REMARK    1  A    between atoms: C_2  and  C_22
REMARK    2  A    between atoms: N_3  and  C_4
REMARK    3  A    between atoms: C_10  and  C_11
REMARK    4  A    between atoms: C_20  and  O_21
REMARK                            x       y       z     vdW  Elec       q    Type
REMARK                         _______ _______ _______ _____ _____    ______ ____
ROOT
ATOM      1  C   UNL     1      -0.445  13.262  22.329  0.00  0.00    +0.000 A 
ATOM      2  C   UNL     1      -1.100  14.281  23.044  0.00  0.00    +0.000 A 
ATOM      3  C   UNL     1      -2.280  14.014  23.738  0.00  0.00    +0.000 A 
ATOM      4  C   UNL     1      -2.807  12.729  23.709  0.00  0.00    +0.000 A 
ATOM      5 CL   UNL     1      -4.256  12.377  24.572  0.00  0.00    +0.000 Cl
ATOM      6  C   UNL     1      -2.164  11.710  23.001  0.00  0.00    +0.000 A 
ATOM      7  C   UNL     1      -0.957  11.942  22.313  0.00  0.00    +0.000 A 
ENDROOT
BRANCH   7   8
ATOM      8  C   UNL     1      -0.207  10.817  21.701  0.00  0.00    +0.000 A 
ATOM      9  N   UNL     1      -0.040  10.860  20.345  0.00  0.00    +0.000 NA
ATOM     10  C   UNL     1       0.686   9.870  19.776  0.00  0.00    +0.000 A 
ATOM     11  C   UNL     1       0.886   9.863  18.402  0.00  0.00    +0.000 A 
ATOM     12  C   UNL     1       1.622   8.853  17.780  0.00  0.00    +0.000 A 
ATOM     13  C   UNL     1       2.175   7.834  18.544  0.00  0.00    +0.000 A 
ATOM     14  C   UNL     1       1.992   7.835  19.927  0.00  0.00    +0.000 A 
ATOM     15  C   UNL     1       1.258   8.832  20.555  0.00  0.00    +0.000 A 
ATOM     16  N   UNL     1       1.108   8.787  21.888  0.00  0.00    +0.000 NA
ATOM     17  C   UNL     1       0.384   9.782  22.429  0.00  0.00    +0.000 A 
BRANCH  17  18
ATOM     18  O   UNL     1       0.322   9.687  23.780  0.00  0.00    +0.000 OA
ATOM     19  H   UNL     1       1.048   9.056  23.943  0.00  0.00    +0.000 HD
ENDBRANCH  17  18
ENDBRANCH   7   8
BRANCH   1  22
ATOM     20  O   UNL     1      -0.293  14.731  19.854  0.00  0.00    +0.000 OA
ATOM     21  C   UNL     1       0.703  14.270  20.403  0.00  0.00    +0.000 C 
ATOM     22  N   UNL     1       0.720  13.569  21.589  0.00  0.00    +0.000 N 
ATOM     23  H   UNL     1       1.569  13.655  22.153  0.00  0.00    +0.000 HD
BRANCH  21  24
ATOM     24  C   UNL     1       2.037  14.539  19.815  0.00  0.00    +0.000 A 
ATOM     25  C   UNL     1       3.168  14.508  20.641  0.00  0.00    +0.000 A 
ATOM     26  C   UNL     1       4.423  14.843  20.125  0.00  0.00    +0.000 A 
ATOM     27  C   UNL     1       4.542  15.220  18.789  0.00  0.00    +0.000 A 
ATOM     28  C   UNL     1       3.412  15.242  17.975  0.00  0.00    +0.000 A 
ATOM     29  F   UNL     1       3.532  15.619  16.696  0.00  0.00    +0.000 F 
ATOM     30  C   UNL     1       2.159  14.896  18.469  0.00  0.00    +0.000 A 
ENDBRANCH  21  24
ENDBRANCH   1  22
TORSDOF 4
ENDMDL
MODEL 2
REMARK VINA RESULT:      -7.6      4.126      6.326
REMARK  Name = 
REMARK  4 active torsions:
REMARK  status: ('A' for Active; 'I' for Inactive)
REMARK    1  A    between atoms: C_2  and  C_22
REMARK    2  A    between atoms: N_3  and  C_4
REMARK    3  A    between atoms: C_10  and  C_11
REMARK    4  A    between atoms: C_20  and  O_21
REMARK                            x       y       z     vdW  Elec       q    Type
REMARK                         _______ _______ _______ _____ _____    ______ ____
ROOT
ATOM      1  C   UNL     1      -3.006  14.082  23.967  0.00  0.00    +0.000 A 
ATOM      2  C   UNL     1      -2.285  14.868  24.885  0.00  0.00    +0.000 A 
ATOM      3  C   UNL     1      -2.810  16.073  25.352  0.00  0.00    +0.000 A 
ATOM      4  C   UNL     1      -4.052  16.494  24.894  0.00  0.00    +0.000 A 
ATOM      5 CL   UNL     1      -4.724  17.972  25.470  0.00  0.00    +0.000 Cl
ATOM      6  C   UNL     1      -4.776  15.721  23.982  0.00  0.00    +0.000 A 
ATOM      7  C   UNL     1      -4.284  14.487  23.512  0.00  0.00    +0.000 A 
ENDROOT
BRANCH   7   8
ATOM      8  C   UNL     1      -5.132  13.606  22.669  0.00  0.00    +0.000 A 
ATOM      9  N   UNL     1      -4.724  13.420  21.378  0.00  0.00    +0.000 NA
ATOM     10  C   UNL     1      -5.455  12.580  20.610  0.00  0.00    +0.000 A 
ATOM     11  C   UNL     1      -5.088  12.355  19.290  0.00  0.00    +0.000 A 
ATOM     12  C   UNL     1      -5.824  11.502  18.466  0.00  0.00    +0.000 A 
ATOM     13  C   UNL     1      -6.943  10.853  18.971  0.00  0.00    +0.000 A 
ATOM     14  C   UNL     1      -7.317  11.061  20.299  0.00  0.00    +0.000 A 
ATOM     15  C   UNL     1      -6.595  11.911  21.126  0.00  0.00    +0.000 A 
ATOM     16  N   UNL     1      -6.996  12.080  22.395  0.00  0.00    +0.000 NA
ATOM     17  C   UNL     1      -6.253  12.918  23.137  0.00  0.00    +0.000 A 
BRANCH  17  18
ATOM     18  O   UNL     1      -6.699  12.994  24.415  0.00  0.00    +0.000 OA
ATOM     19  H   UNL     1      -7.093  13.885  24.409  0.00  0.00    +0.000 HD
ENDBRANCH  17  18
ENDBRANCH   7   8
BRANCH   1  22
ATOM     20  O   UNL     1      -0.948  13.855  21.963  0.00  0.00    +0.000 OA
ATOM     21  C   UNL     1      -1.453  12.871  22.496  0.00  0.00    +0.000 C 
ATOM     22  N   UNL     1      -2.430  12.892  23.467  0.00  0.00    +0.000 N 
ATOM     23  H   UNL     1      -2.424  12.114  24.131  0.00  0.00    +0.000 HD
BRANCH  21  24
ATOM     24  C   UNL     1      -0.939  11.524  22.152  0.00  0.00    +0.000 A 
ATOM     25  C   UNL     1      -0.900  10.533  23.142  0.00  0.00    +0.000 A 
ATOM     26  C   UNL     1      -0.339   9.285  22.862  0.00  0.00    +0.000 A 
ATOM     27  C   UNL     1       0.191   9.033  21.599  0.00  0.00    +0.000 A 
ATOM     28  C   UNL     1       0.141  10.022  20.620  0.00  0.00    +0.000 A 
ATOM     29  F   UNL     1       0.665   9.777  19.412  0.00  0.00    +0.000 F 
ATOM     30  C   UNL     1      -0.427  11.265  20.877  0.00  0.00    +0.000 A 
ENDBRANCH  21  24
ENDBRANCH   1  22
TORSDOF 4
ENDMDL
MODEL 3
REMARK VINA RESULT:      -7.5      0.905      1.286
REMARK  Name = 
REMARK  4 active torsions:
REMARK  status: ('A' for Active; 'I' for Inactive)
REMARK    1  A    between atoms: C_2  and  C_22
REMARK    2  A    between atoms: N_3  and  C_4
REMARK    3  A    between atoms: C_10  and  C_11
REMARK    4  A    between atoms: C_20  and  O_21
REMARK                            x       y       z     vdW  Elec       q    Type
REMARK                         _______ _______ _______ _____ _____    ______ ____
ROOT
ATOM      1  C   UNL     1      -0.619  13.285  22.463  0.00  0.00    +0.000 A 
ATOM      2  C   UNL     1      -1.291  14.292  23.181  0.00  0.00    +0.000 A 
ATOM      3  C   UNL     1      -2.468  14.004  23.871  0.00  0.00    +0.000 A 
ATOM      4  C   UNL     1      -2.976  12.711  23.835  0.00  0.00    +0.000 A 
ATOM      5 CL   UNL     1      -4.421  12.333  24.693  0.00  0.00    +0.000 Cl
ATOM      6  C   UNL     1      -2.316  11.705  23.124  0.00  0.00    +0.000 A 
ATOM      7  C   UNL     1      -1.111  11.958  22.439  0.00  0.00    +0.000 A 
ENDROOT
BRANCH   7   8
ATOM      8  C   UNL     1      -0.343  10.847  21.824  0.00  0.00    +0.000 A 
ATOM      9  N   UNL     1      -0.132  10.924  20.476  0.00  0.00    +0.000 NA
ATOM     10  C   UNL     1       0.611   9.948  19.906  0.00  0.00    +0.000 A 
ATOM     11  C   UNL     1       0.856   9.975  18.540  0.00  0.00    +0.000 A 
ATOM     12  C   UNL     1       1.610   8.979  17.916  0.00  0.00    +0.000 A 
ATOM     13  C   UNL     1       2.137   7.940  18.672  0.00  0.00    +0.000 A 
ATOM     14  C   UNL     1       1.909   7.906  20.048  0.00  0.00    +0.000 A 
ATOM     15  C   UNL     1       1.156   8.889  20.677  0.00  0.00    +0.000 A 
ATOM     16  N   UNL     1       0.962   8.811  22.003  0.00  0.00    +0.000 NA
ATOM     17  C   UNL     1       0.223   9.793  22.545  0.00  0.00    +0.000 A 
BRANCH  17  18
ATOM     18  O   UNL     1       0.116   9.664  23.890  0.00  0.00    +0.000 OA
ATOM     19  H   UNL     1       0.213   8.697  23.980  0.00  0.00    +0.000 HD
ENDBRANCH  17  18
ENDBRANCH   7   8
BRANCH   1  22
ATOM     20  O   UNL     1      -0.495  14.612  19.908  0.00  0.00    +0.000 OA
ATOM     21  C   UNL     1       0.513  14.242  20.502  0.00  0.00    +0.000 C 
ATOM     22  N   UNL     1       0.543  13.613  21.728  0.00  0.00    +0.000 N 
ATOM     23  H   UNL     1       1.374  13.780  22.301  0.00  0.00    +0.000 HD
BRANCH  21  24
ATOM     24  C   UNL     1       1.842  14.550  19.922  0.00  0.00    +0.000 A 
ATOM     25  C   UNL     1       1.945  14.815  18.550  0.00  0.00    +0.000 A 
ATOM     26  C   UNL     1       3.199  15.022  17.968  0.00  0.00    +0.000 A 
ATOM     27  C   UNL     1       4.346  14.952  18.756  0.00  0.00    +0.000 A 
ATOM     28  C   UNL     1       4.232  14.694  20.119  0.00  0.00    +0.000 A 
ATOM     29  F   UNL     1       5.340  14.614  20.867  0.00  0.00    +0.000 F 
ATOM     30  C   UNL     1       2.991  14.501  20.717  0.00  0.00    +0.000 A 
ENDBRANCH  21  24
ENDBRANCH   1  22
TORSDOF 4
ENDMDL
MODEL 4
REMARK VINA RESULT:      -7.3      1.186      1.320
REMARK  Name = 
REMARK  4 active torsions:
REMARK  status: ('A' for Active; 'I' for Inactive)
REMARK    1  A    between atoms: C_2  and  C_22
REMARK    2  A    between atoms: N_3  and  C_4
REMARK    3  A    between atoms: C_10  and  C_11
REMARK    4  A    between atoms: C_20  and  O_21
REMARK                            x       y       z     vdW  Elec       q    Type
REMARK                         _______ _______ _______ _____ _____    ______ ____
ROOT
ATOM      1  C   UNL     1      -1.336  13.532  21.926  0.00  0.00    +0.000 A 
ATOM      2  C   UNL     1      -2.072  14.527  22.597  0.00  0.00    +0.000 A 
ATOM      3  C   UNL     1      -3.053  14.178  23.525  0.00  0.00    +0.000 A 
ATOM      4  C   UNL     1      -3.302  12.834  23.775  0.00  0.00    +0.000 A 
ATOM      5 CL   UNL     1      -4.500  12.384  24.929  0.00  0.00    +0.000 Cl
ATOM      6  C   UNL     1      -2.578  11.839  23.113  0.00  0.00    +0.000 A 
ATOM      7  C   UNL     1      -1.562  12.160  22.190  0.00  0.00    +0.000 A 
ENDROOT
BRANCH   7   8
ATOM      8  C   UNL     1      -0.698  11.098  21.617  0.00  0.00    +0.000 A 
ATOM      9  N   UNL     1      -0.526  11.116  20.262  0.00  0.00    +0.000 NA
ATOM     10  C   UNL     1       0.300  10.188  19.728  0.00  0.00    +0.000 A 
ATOM     11  C   UNL     1       0.511  10.158  18.356  0.00  0.00    +0.000 A 
ATOM     12  C   UNL     1       1.349   9.210  17.768  0.00  0.00    +0.000 A 
ATOM     13  C   UNL     1       1.997   8.275  18.567  0.00  0.00    +0.000 A 
ATOM     14  C   UNL     1       1.804   8.300  19.948  0.00  0.00    +0.000 A 
ATOM     15  C   UNL     1       0.968   9.237  20.541  0.00  0.00    +0.000 A 
ATOM     16  N   UNL     1       0.813   9.218  21.874  0.00  0.00    +0.000 NA
ATOM     17  C   UNL     1      -0.011  10.151  22.381  0.00  0.00    +0.000 A 
BRANCH  17  18
ATOM     18  O   UNL     1      -0.073  10.092  23.734  0.00  0.00    +0.000 OA
ATOM     19  H   UNL     1      -1.040  10.090  23.863  0.00  0.00    +0.000 HD
ENDBRANCH  17  18
ENDBRANCH   7   8
BRANCH   1  22
ATOM     20  O   UNL     1       1.324  14.540  22.390  0.00  0.00    +0.000 OA
ATOM     21  C   UNL     1       0.867  14.395  21.260  0.00  0.00    +0.000 C 
ATOM     22  N   UNL     1      -0.385  13.909  20.951  0.00  0.00    +0.000 N 
ATOM     23  H   UNL     1      -0.470  13.412  20.062  0.00  0.00    +0.000 HD
BRANCH  21  24
ATOM     24  C   UNL     1       1.735  14.678  20.092  0.00  0.00    +0.000 A 
ATOM     25  C   UNL     1       1.719  15.958  19.522  0.00  0.00    +0.000 A 
ATOM     26  C   UNL     1       2.464  16.222  18.370  0.00  0.00    +0.000 A 
ATOM     27  C   UNL     1       3.213  15.204  17.783  0.00  0.00    +0.000 A 
ATOM     28  C   UNL     1       3.227  13.937  18.361  0.00  0.00    +0.000 A 
ATOM     29  F   UNL     1       3.938  12.960  17.784  0.00  0.00    +0.000 F 
ATOM     30  C   UNL     1       2.504  13.662  19.517  0.00  0.00    +0.000 A 
ENDBRANCH  21  24
ENDBRANCH   1  22
TORSDOF 4
ENDMDL
MODEL 5
REMARK VINA RESULT:      -7.2      3.687      6.006
REMARK  Name = 
REMARK  4 active torsions:
REMARK  status: ('A' for Active; 'I' for Inactive)
REMARK    1  A    between atoms: C_2  and  C_22
REMARK    2  A    between atoms: N_3  and  C_4
REMARK    3  A    between atoms: C_10  and  C_11
REMARK    4  A    between atoms: C_20  and  O_21
REMARK                            x       y       z     vdW  Elec       q    Type
REMARK                         _______ _______ _______ _____ _____    ______ ____
ROOT
ATOM      1  C   UNL     1      -3.559  14.026  23.337  0.00  0.00    +0.000 A 
ATOM      2  C   UNL     1      -4.250  15.000  24.082  0.00  0.00    +0.000 A 
ATOM      3  C   UNL     1      -3.577  15.785  25.018  0.00  0.00    +0.000 A 
ATOM      4  C   UNL     1      -2.216  15.590  25.213  0.00  0.00    +0.000 A 
ATOM      5 CL   UNL     1      -1.365  16.561  26.353  0.00  0.00    +0.000 Cl
ATOM      6  C   UNL     1      -1.521  14.626  24.478  0.00  0.00    +0.000 A 
ATOM      7  C   UNL     1      -2.167  13.835  23.506  0.00  0.00    +0.000 A 
ENDROOT
BRANCH   7   8
ATOM      8  C   UNL     1      -1.387  12.930  22.627  0.00  0.00    +0.000 A 
ATOM      9  N   UNL     1      -1.133  11.677  23.111  0.00  0.00    +0.000 NA
ATOM     10  C   UNL     1      -0.469  10.821  22.302  0.00  0.00    +0.000 A 
ATOM     11  C   UNL     1      -0.183   9.536  22.743  0.00  0.00    +0.000 A 
ATOM     12  C   UNL     1       0.509   8.628  21.939  0.00  0.00    +0.000 A 
ATOM     13  C   UNL     1       0.918   9.007  20.667  0.00  0.00    +0.000 A 
ATOM     14  C   UNL     1       0.627  10.292  20.206  0.00  0.00    +0.000 A 
ATOM     15  C   UNL     1      -0.057  11.203  21.000  0.00  0.00    +0.000 A 
ATOM     16  N   UNL     1      -0.310  12.428  20.512  0.00  0.00    +0.000 NA
ATOM     17  C   UNL     1      -0.972  13.259  21.334  0.00  0.00    +0.000 A 
BRANCH  17  18
ATOM     18  O   UNL     1      -1.228  14.455  20.748  0.00  0.00    +0.000 OA
ATOM     19  H   UNL     1      -0.756  14.338  19.902  0.00  0.00    +0.000 HD
ENDBRANCH  17  18
ENDBRANCH   7   8
BRANCH   1  22
ATOM     20  O   UNL     1      -4.338  14.678  20.640  0.00  0.00    +0.000 OA
ATOM     21  C   UNL     1      -4.616  13.601  21.159  0.00  0.00    +0.000 C 
ATOM     22  N   UNL     1      -4.273  13.207  22.433  0.00  0.00    +0.000 N 
ATOM     23  H   UNL     1      -4.137  12.203  22.575  0.00  0.00    +0.000 HD
BRANCH  21  24
ATOM     24  C   UNL     1      -5.313  12.573  20.350  0.00  0.00    +0.000 A 
ATOM     25  C   UNL     1      -6.493  11.998  20.842  0.00  0.00    +0.000 A 
ATOM     26  C   UNL     1      -7.118  10.967  20.137  0.00  0.00    +0.000 A 
ATOM     27  C   UNL     1      -6.557  10.503  18.949  0.00  0.00    +0.000 A 
ATOM     28  C   UNL     1      -5.388  11.085  18.465  0.00  0.00    +0.000 A 
ATOM     29  F   UNL     1      -4.847  10.625  17.330  0.00  0.00    +0.000 F 
ATOM     30  C   UNL     1      -4.761  12.123  19.147  0.00  0.00    +0.000 A 
ENDBRANCH  21  24
ENDBRANCH   1  22
TORSDOF 4
ENDMDL
MODEL 6
REMARK VINA RESULT:      -7.1      2.320      5.525
REMARK  Name = 
REMARK  4 active torsions:
REMARK  status: ('A' for Active; 'I' for Inactive)
REMARK    1  A    between atoms: C_2  and  C_22
REMARK    2  A    between atoms: N_3  and  C_4
REMARK    3  A    between atoms: C_10  and  C_11
REMARK    4  A    between atoms: C_20  and  O_21
REMARK                            x       y       z     vdW  Elec       q    Type
REMARK                         _______ _______ _______ _____ _____    ______ ____
ROOT
ATOM      1  C   UNL     1      -0.660  11.878  22.108  0.00  0.00    +0.000 A 
ATOM      2  C   UNL     1      -1.694  11.420  22.945  0.00  0.00    +0.000 A 
ATOM      3  C   UNL     1      -2.466  12.322  23.676  0.00  0.00    +0.000 A 
ATOM      4  C   UNL     1      -2.197  13.681  23.576  0.00  0.00    +0.000 A 
ATOM      5 CL   UNL     1      -3.150  14.812  24.460  0.00  0.00    +0.000 Cl
ATOM      6  C   UNL     1      -1.172  14.146  22.748  0.00  0.00    +0.000 A 
ATOM      7  C   UNL     1      -0.392  13.262  21.976  0.00  0.00    +0.000 A 
ENDROOT
BRANCH   7   8
ATOM      8  C   UNL     1       0.584  13.781  20.986  0.00  0.00    +0.000 A 
ATOM      9  N   UNL     1       1.871  13.936  21.420  0.00  0.00    +0.000 NA
ATOM     10  C   UNL     1       2.785  14.358  20.517  0.00  0.00    +0.000 A 
ATOM     11  C   UNL     1       4.107  14.535  20.903  0.00  0.00    +0.000 A 
ATOM     12  C   UNL     1       5.075  14.978  20.001  0.00  0.00    +0.000 A 
ATOM     13  C   UNL     1       4.720  15.243  18.685  0.00  0.00    +0.000 A 
ATOM     14  C   UNL     1       3.398  15.060  18.280  0.00  0.00    +0.000 A 
ATOM     15  C   UNL     1       2.426  14.624  19.171  0.00  0.00    +0.000 A 
ATOM     16  N   UNL     1       1.167  14.465  18.733  0.00  0.00    +0.000 NA
ATOM     17  C   UNL     1       0.278  14.043  19.648  0.00  0.00    +0.000 A 
BRANCH  17  18
ATOM     18  O   UNL     1      -0.954  13.864  19.113  0.00  0.00    +0.000 OA
ATOM     19  H   UNL     1      -0.865  12.954  18.773  0.00  0.00    +0.000 HD
ENDBRANCH  17  18
ENDBRANCH   7   8
BRANCH   1  22
ATOM     20  O   UNL     1      -1.156  10.743  19.506  0.00  0.00    +0.000 OA
ATOM     21  C   UNL     1      -0.174  10.438  20.176  0.00  0.00    +0.000 C 
ATOM     22  N   UNL     1       0.143  10.941  21.419  0.00  0.00    +0.000 N 
ATOM     23  H   UNL     1       1.139  10.989  21.646  0.00  0.00    +0.000 HD
BRANCH  21  24
ATOM     24  C   UNL     1       0.829   9.511  19.599  0.00  0.00    +0.000 A 
ATOM     25  C   UNL     1       1.287   9.726  18.292  0.00  0.00    +0.000 A 
ATOM     26  C   UNL     1       2.166   8.816  17.699  0.00  0.00    +0.000 A 
ATOM     27  C   UNL     1       2.575   7.689  18.408  0.00  0.00    +0.000 A 
ATOM     28  C   UNL     1       2.119   7.488  19.708  0.00  0.00    +0.000 A 
ATOM     29  F   UNL     1       2.505   6.395  20.378  0.00  0.00    +0.000 F 
ATOM     30  C   UNL     1       1.256   8.392  20.318  0.00  0.00    +0.000 A 
ENDBRANCH  21  24
ENDBRANCH   1  22
TORSDOF 4
ENDMDL
MODEL 7
REMARK VINA RESULT:      -7.0      2.789      5.288
REMARK  Name = 
REMARK  4 active torsions:
REMARK  status: ('A' for Active; 'I' for Inactive)
REMARK    1  A    between atoms: C_2  and  C_22
REMARK    2  A    between atoms: N_3  and  C_4
REMARK    3  A    between atoms: C_10  and  C_11
REMARK    4  A    between atoms: C_20  and  O_21
REMARK                            x       y       z     vdW  Elec       q    Type
REMARK                         _______ _______ _______ _____ _____    ______ ____
ROOT
ATOM      1  C   UNL     1       1.223  10.841  18.829  0.00  0.00    +0.000 A 
ATOM      2  C   UNL     1       2.003  10.144  17.888  0.00  0.00    +0.000 A 
ATOM      3  C   UNL     1       2.323   8.801  18.088  0.00  0.00    +0.000 A 
ATOM      4  C   UNL     1       1.869   8.160  19.233  0.00  0.00    +0.000 A 
ATOM      5 CL   UNL     1       2.242   6.498  19.490  0.00  0.00    +0.000 Cl
ATOM      6  C   UNL     1       1.094   8.843  20.174  0.00  0.00    +0.000 A 
ATOM      7  C   UNL     1       0.732  10.192  19.988  0.00  0.00    +0.000 A 
ENDROOT
BRANCH   7   8
ATOM      8  C   UNL     1      -0.220  10.854  20.914  0.00  0.00    +0.000 A 
ATOM      9  N   UNL     1      -1.253  11.541  20.341  0.00  0.00    +0.000 NA
ATOM     10  C   UNL     1      -2.159  12.107  21.170  0.00  0.00    +0.000 A 
ATOM     11  C   UNL     1      -3.229  12.818  20.642  0.00  0.00    +0.000 A 
ATOM     12  C   UNL     1      -4.178  13.423  21.467  0.00  0.00    +0.000 A 
ATOM     13  C   UNL     1      -4.063  13.310  22.847  0.00  0.00    +0.000 A 
ATOM     14  C   UNL     1      -3.000  12.589  23.391  0.00  0.00    +0.000 A 
ATOM     15  C   UNL     1      -2.048  11.988  22.579  0.00  0.00    +0.000 A 
ATOM     16  N   UNL     1      -1.042  11.307  23.151  0.00  0.00    +0.000 NA
ATOM     17  C   UNL     1      -0.156  10.753  22.306  0.00  0.00    +0.000 A 
BRANCH  17  18
ATOM     18  O   UNL     1       0.797  10.047  22.963  0.00  0.00    +0.000 OA
ATOM     19  H   UNL     1       0.635   9.157  22.598  0.00  0.00    +0.000 HD
ENDBRANCH  17  18
ENDBRANCH   7   8
BRANCH   1  22
ATOM     20  O   UNL     1       2.627  13.070  19.998  0.00  0.00    +0.000 OA
ATOM     21  C   UNL     1       1.673  13.222  19.240  0.00  0.00    +0.000 C 
ATOM     22  N   UNL     1       0.957  12.215  18.631  0.00  0.00    +0.000 N 
ATOM     23  H   UNL     1       0.543  12.439  17.723  0.00  0.00    +0.000 HD
BRANCH  21  24
ATOM     24  C   UNL     1       1.274  14.597  18.855  0.00  0.00    +0.000 A 
ATOM     25  C   UNL     1       2.253  15.492  18.404  0.00  0.00    +0.000 A 
ATOM     26  C   UNL     1       1.913  16.817  18.119  0.00  0.00    +0.000 A 
ATOM     27  C   UNL     1       0.600  17.247  18.296  0.00  0.00    +0.000 A 
ATOM     28  C   UNL     1      -0.366  16.348  18.740  0.00  0.00    +0.000 A 
ATOM     29  F   UNL     1      -1.623  16.772  18.922  0.00  0.00    +0.000 F 
ATOM     30  C   UNL     1      -0.048  15.022  19.013  0.00  0.00    +0.000 A 
ENDBRANCH  21  24
ENDBRANCH   1  22
TORSDOF 4
ENDMDL
MODEL 8
REMARK VINA RESULT:      -7.0      1.651      5.443
REMARK  Name = 
REMARK  4 active torsions:
REMARK  status: ('A' for Active; 'I' for Inactive)
REMARK    1  A    between atoms: C_2  and  C_22
REMARK    2  A    between atoms: N_3  and  C_4
REMARK    3  A    between atoms: C_10  and  C_11
REMARK    4  A    between atoms: C_20  and  O_21
REMARK                            x       y       z     vdW  Elec       q    Type
REMARK                         _______ _______ _______ _____ _____    ______ ____
ROOT
ATOM      1  C   UNL     1      -1.319  12.349  22.273  0.00  0.00    +0.000 A 
ATOM      2  C   UNL     1      -2.438  11.914  23.005  0.00  0.00    +0.000 A 
ATOM      3  C   UNL     1      -3.105  12.785  23.866  0.00  0.00    +0.000 A 
ATOM      4  C   UNL     1      -2.645  14.090  23.999  0.00  0.00    +0.000 A 
ATOM      5 CL   UNL     1      -3.464  15.185  25.046  0.00  0.00    +0.000 Cl
ATOM      6  C   UNL     1      -1.534  14.531  23.277  0.00  0.00    +0.000 A 
ATOM      7  C   UNL     1      -0.855  13.682  22.379  0.00  0.00    +0.000 A 
ENDROOT
BRANCH   7   8
ATOM      8  C   UNL     1       0.221  14.211  21.505  0.00  0.00    +0.000 A 
ATOM      9  N   UNL     1       1.498  14.117  21.984  0.00  0.00    +0.000 NA
ATOM     10  C   UNL     1       2.496  14.546  21.179  0.00  0.00    +0.000 A 
ATOM     11  C   UNL     1       3.813  14.477  21.615  0.00  0.00    +0.000 A 
ATOM     12  C   UNL     1       4.868  14.918  20.815  0.00  0.00    +0.000 A 
ATOM     13  C   UNL     1       4.606  15.432  19.551  0.00  0.00    +0.000 A 
ATOM     14  C   UNL     1       3.290  15.497  19.096  0.00  0.00    +0.000 A 
ATOM     15  C   UNL     1       2.232  15.066  19.885  0.00  0.00    +0.000 A 
ATOM     16  N   UNL     1       0.983  15.152  19.403  0.00  0.00    +0.000 NA
ATOM     17  C   UNL     1       0.009  14.718  20.221  0.00  0.00    +0.000 A 
BRANCH  17  18
ATOM     18  O   UNL     1      -1.213  14.796  19.639  0.00  0.00    +0.000 OA
ATOM     19  H   UNL     1      -1.752  14.330  20.306  0.00  0.00    +0.000 HD
ENDBRANCH  17  18
ENDBRANCH   7   8
BRANCH   1  22
ATOM     20  O   UNL     1       0.329  10.144  23.125  0.00  0.00    +0.000 OA
ATOM     21  C   UNL     1       0.152  10.408  21.939  0.00  0.00    +0.000 C 
ATOM     22  N   UNL     1      -0.628  11.432  21.448  0.00  0.00    +0.000 N 
ATOM     23  H   UNL     1      -1.062  11.273  20.536  0.00  0.00    +0.000 HD
BRANCH  21  24
ATOM     24  C   UNL     1       0.744   9.521  20.909  0.00  0.00    +0.000 A 
ATOM     25  C   UNL     1       1.245   8.269  21.291  0.00  0.00    +0.000 A 
ATOM     26  C   UNL     1       1.885   7.455  20.353  0.00  0.00    +0.000 A 
ATOM     27  C   UNL     1       2.034   7.898  19.040  0.00  0.00    +0.000 A 
ATOM     28  C   UNL     1       1.527   9.141  18.670  0.00  0.00    +0.000 A 
ATOM     29  F   UNL     1       1.686   9.566  17.411  0.00  0.00    +0.000 F 
ATOM     30  C   UNL     1       0.874   9.957  19.588  0.00  0.00    +0.000 A 
ENDBRANCH  21  24
ENDBRANCH   1  22
TORSDOF 4
ENDMDL
MODEL 9
REMARK VINA RESULT:      -6.9      3.761      6.656
REMARK  Name = 
REMARK  4 active torsions:
REMARK  status: ('A' for Active; 'I' for Inactive)
REMARK    1  A    between atoms: C_2  and  C_22
REMARK    2  A    between atoms: N_3  and  C_4
REMARK    3  A    between atoms: C_10  and  C_11
REMARK    4  A    between atoms: C_20  and  O_21
REMARK                            x       y       z     vdW  Elec       q    Type
REMARK                         _______ _______ _______ _____ _____    ______ ____
ROOT
ATOM      1  C   UNL     1       0.777  13.393  19.197  0.00  0.00    +0.000 A 
ATOM      2  C   UNL     1       1.891  13.613  18.366  0.00  0.00    +0.000 A 
ATOM      3  C   UNL     1       3.113  14.011  18.908  0.00  0.00    +0.000 A 
ATOM      4  C   UNL     1       3.217  14.195  20.281  0.00  0.00    +0.000 A 
ATOM      5 CL   UNL     1       4.722  14.672  20.971  0.00  0.00    +0.000 Cl
ATOM      6  C   UNL     1       2.117  13.979  21.115  0.00  0.00    +0.000 A 
ATOM      7  C   UNL     1       0.877  13.552  20.600  0.00  0.00    +0.000 A 
ENDROOT
BRANCH   7   8
ATOM      8  C   UNL     1      -0.232  13.176  21.513  0.00  0.00    +0.000 A 
ATOM      9  N   UNL     1      -1.194  14.122  21.727  0.00  0.00    +0.000 NA
ATOM     10  C   UNL     1      -2.239  13.779  22.515  0.00  0.00    +0.000 A 
ATOM     11  C   UNL     1      -3.245  14.702  22.768  0.00  0.00    +0.000 A 
ATOM     12  C   UNL     1      -4.333  14.387  23.583  0.00  0.00    +0.000 A 
ATOM     13  C   UNL     1      -4.425  13.122  24.150  0.00  0.00    +0.000 A 
ATOM     14  C   UNL     1      -3.428  12.181  23.894  0.00  0.00    +0.000 A 
ATOM     15  C   UNL     1      -2.339  12.486  23.089  0.00  0.00    +0.000 A 
ATOM     16  N   UNL     1      -1.404  11.547  22.876  0.00  0.00    +0.000 NA
ATOM     17  C   UNL     1      -0.377  11.912  22.090  0.00  0.00    +0.000 A 
BRANCH  17  18
ATOM     18  O   UNL     1       0.494  10.892  21.888  0.00  0.00    +0.000 OA
ATOM     19  H   UNL     1       0.072  10.195  22.424  0.00  0.00    +0.000 HD
ENDBRANCH  17  18
ENDBRANCH   7   8
BRANCH   1  22
ATOM     20  O   UNL     1      -0.265  10.737  18.793  0.00  0.00    +0.000 OA
ATOM     21  C   UNL     1      -0.883  11.741  18.452  0.00  0.00    +0.000 C 
ATOM     22  N   UNL     1      -0.464  13.043  18.619  0.00  0.00    +0.000 N 
ATOM     23  H   UNL     1      -1.200  13.742  18.740  0.00  0.00    +0.000 HD
BRANCH  21  24
ATOM     24  C   UNL     1      -2.242  11.588  17.879  0.00  0.00    +0.000 A 
ATOM     25  C   UNL     1      -3.358  11.824  18.693  0.00  0.00    +0.000 A 
ATOM     26  C   UNL     1      -4.646  11.602  18.198  0.00  0.00    +0.000 A 
ATOM     27  C   UNL     1      -4.815  11.133  16.897  0.00  0.00    +0.000 A 
ATOM     28  C   UNL     1      -3.699  10.908  16.094  0.00  0.00    +0.000 A 
ATOM     29  F   UNL     1      -3.869  10.444  14.850  0.00  0.00    +0.000 F 
ATOM     30  C   UNL     1      -2.411  11.138  16.566  0.00  0.00    +0.000 A 
ENDBRANCH  21  24
ENDBRANCH   1  22
TORSDOF 4
ENDMDL
