MODEL 1
REMARK VINA RESULT:      -8.3      0.000      0.000
REMARK  Name = 
REMARK  2 active torsions:
REMARK  status: ('A' for Active; 'I' for Inactive)
REMARK    1  A    between atoms: C_2  and  C_4
REMARK    2  A    between atoms: C_14  and  C_16
REMARK                            x       y       z     vdW  Elec       q    Type
REMARK                         _______ _______ _______ _____ _____    ______ ____
ROOT
ATOM      1  C   UNL     1       2.562   6.388  18.179  0.00  0.00    +0.000 C 
ATOM      2  C   UNL     1       1.957   5.096  18.718  0.00  0.00    +0.000 A 
ATOM      3  C   UNL     1       1.529   4.063  17.879  0.00  0.00    +0.000 A 
ATOM      4  C   UNL     1       1.004   2.892  18.427  0.00  0.00    +0.000 A 
ATOM      5  C   UNL     1       0.916   2.741  19.814  0.00  0.00    +0.000 A 
ATOM      6  C   UNL     1       1.347   3.763  20.659  0.00  0.00    +0.000 A 
ATOM      7  C   UNL     1       1.857   4.940  20.115  0.00  0.00    +0.000 A 
ATOM      8  C   UNL     1       2.297   6.102  20.967  0.00  0.00    +0.000 C 
ATOM      9  C   UNL     1       1.731   7.382  20.348  0.00  0.00    +0.000 C 
ATOM     10  N   UNL     1       1.998   7.557  18.909  0.00  0.00    +0.000 N 
ATOM     11  C   UNL     1       1.851   8.762  18.216  0.00  0.00    +0.000 C 
ATOM     12  O   UNL     1       2.409   8.933  17.130  0.00  0.00    +0.000 OA
ENDROOT
BRANCH  11  13
ATOM     13  C   UNL     1       1.092   9.914  18.797  0.00  0.00    +0.000 A 
ATOM     14  C   UNL     1      -0.116   9.787  19.503  0.00  0.00    +0.000 A 
ATOM     15  C   UNL     1      -0.751  10.882  20.088  0.00  0.00    +0.000 A 
ATOM     16  C   UNL     1      -0.249  12.170  19.907  0.00  0.00    +0.000 A 
ATOM     17  C   UNL     1       0.892  12.354  19.107  0.00  0.00    +0.000 A 
ATOM     18  C   UNL     1       1.600  13.504  18.663  0.00  0.00    +0.000 A 
ATOM     19  C   UNL     1       2.642  13.075  17.875  0.00  0.00    +0.000 A 
ATOM     20  N   UNL     1       2.596  11.708  17.828  0.00  0.00    +0.000 N 
ATOM     21  C   UNL     1       1.537  11.233  18.575  0.00  0.00    +0.000 A 
ATOM     22  H   UNL     1       3.206  11.109  17.284  0.00  0.00    +0.000 HD
ENDBRANCH  11  13
BRANCH   1  24
ATOM     23  N   UNL     1       4.806   7.070  17.313  0.00  0.00    +0.000 N 
ATOM     24  C   UNL     1       4.123   6.334  18.246  0.00  0.00    +0.000 C 
ATOM     25  O   UNL     1       4.764   5.615  19.013  0.00  0.00    +0.000 OA
ATOM     26  H   UNL     1       5.803   6.904  17.274  0.00  0.00    +0.000 HD
ATOM     27  H   UNL     1       4.334   7.262  16.436  0.00  0.00    +0.000 HD
ENDBRANCH   1  24
TORSDOF 2
ENDMDL
MODEL 2
REMARK VINA RESULT:      -8.2      1.420      1.829
REMARK  Name = 
REMARK  2 active torsions:
REMARK  status: ('A' for Active; 'I' for Inactive)
REMARK    1  A    between atoms: C_2  and  C_4
REMARK    2  A    between atoms: C_14  and  C_16
REMARK                            x       y       z     vdW  Elec       q    Type
REMARK                         _______ _______ _______ _____ _____    ______ ____
ROOT
ATOM      1  C   UNL     1       2.497   6.339  18.241  0.00  0.00    +0.000 C 
ATOM      2  C   UNL     1       1.924   5.020  18.747  0.00  0.00    +0.000 A 
ATOM      3  C   UNL     1       1.519   3.999  17.882  0.00  0.00    +0.000 A 
ATOM      4  C   UNL     1       1.023   2.802  18.401  0.00  0.00    +0.000 A 
ATOM      5  C   UNL     1       0.941   2.613  19.783  0.00  0.00    +0.000 A 
ATOM      6  C   UNL     1       1.349   3.623  20.654  0.00  0.00    +0.000 A 
ATOM      7  C   UNL     1       1.830   4.825  20.140  0.00  0.00    +0.000 A 
ATOM      8  C   UNL     1       2.244   5.975  21.021  0.00  0.00    +0.000 C 
ATOM      9  C   UNL     1       1.647   7.258  20.436  0.00  0.00    +0.000 C 
ATOM     10  N   UNL     1       1.907   7.476  19.001  0.00  0.00    +0.000 N 
ATOM     11  C   UNL     1       1.730   8.695  18.340  0.00  0.00    +0.000 C 
ATOM     12  O   UNL     1       2.282   8.906  17.258  0.00  0.00    +0.000 OA
ENDROOT
BRANCH  11  13
ATOM     13  C   UNL     1       0.945   9.812  18.951  0.00  0.00    +0.000 A 
ATOM     14  C   UNL     1       1.279  10.441  20.162  0.00  0.00    +0.000 A 
ATOM     15  C   UNL     1       0.557  11.527  20.658  0.00  0.00    +0.000 A 
ATOM     16  C   UNL     1      -0.593  11.968  20.004  0.00  0.00    +0.000 A 
ATOM     17  C   UNL     1      -1.030  11.290  18.853  0.00  0.00    +0.000 A 
ATOM     18  C   UNL     1      -2.169  11.421  18.014  0.00  0.00    +0.000 A 
ATOM     19  C   UNL     1      -2.081  10.460  17.035  0.00  0.00    +0.000 A 
ATOM     20  N   UNL     1      -0.929   9.753  17.246  0.00  0.00    +0.000 N 
ATOM     21  C   UNL     1      -0.259  10.237  18.351  0.00  0.00    +0.000 A 
ATOM     22  H   UNL     1      -0.618   8.947  16.715  0.00  0.00    +0.000 HD
ENDBRANCH  11  13
BRANCH   1  24
ATOM     23  N   UNL     1       4.724   7.022  17.332  0.00  0.00    +0.000 N 
ATOM     24  C   UNL     1       4.059   6.321  18.304  0.00  0.00    +0.000 C 
ATOM     25  O   UNL     1       4.717   5.655  19.104  0.00  0.00    +0.000 OA
ATOM     26  H   UNL     1       5.724   6.876  17.299  0.00  0.00    +0.000 HD
ATOM     27  H   UNL     1       4.246   7.160  16.449  0.00  0.00    +0.000 HD
ENDBRANCH   1  24
TORSDOF 2
ENDMDL
MODEL 3
REMARK VINA RESULT:      -7.6      2.288      4.297
REMARK  Name = 
REMARK  2 active torsions:
REMARK  status: ('A' for Active; 'I' for Inactive)
REMARK    1  A    between atoms: C_2  and  C_4
REMARK    2  A    between atoms: C_14  and  C_16
REMARK                            x       y       z     vdW  Elec       q    Type
REMARK                         _______ _______ _______ _____ _____    ______ ____
ROOT
ATOM      1  C   UNL     1       3.671   5.686  19.323  0.00  0.00    +0.000 C 
ATOM      2  C   UNL     1       5.095   5.841  18.801  0.00  0.00    +0.000 A 
ATOM      3  C   UNL     1       6.211   5.420  19.532  0.00  0.00    +0.000 A 
ATOM      4  C   UNL     1       7.491   5.565  18.996  0.00  0.00    +0.000 A 
ATOM      5  C   UNL     1       7.664   6.118  17.724  0.00  0.00    +0.000 A 
ATOM      6  C   UNL     1       6.557   6.535  16.984  0.00  0.00    +0.000 A 
ATOM      7  C   UNL     1       5.279   6.406  17.523  0.00  0.00    +0.000 A 
ATOM      8  C   UNL     1       4.044   6.877  16.799  0.00  0.00    +0.000 C 
ATOM      9  C   UNL     1       3.172   7.639  17.800  0.00  0.00    +0.000 C 
ATOM     10  N   UNL     1       2.895   6.930  19.063  0.00  0.00    +0.000 N 
ATOM     11  C   UNL     1       1.896   7.290  19.972  0.00  0.00    +0.000 C 
ATOM     12  O   UNL     1       1.488   6.481  20.808  0.00  0.00    +0.000 OA
ENDROOT
BRANCH  11  13
ATOM     13  C   UNL     1       1.227   8.627  19.913  0.00  0.00    +0.000 A 
ATOM     14  C   UNL     1       1.184   9.438  18.766  0.00  0.00    +0.000 A 
ATOM     15  C   UNL     1       0.487  10.646  18.739  0.00  0.00    +0.000 A 
ATOM     16  C   UNL     1      -0.120  11.138  19.893  0.00  0.00    +0.000 A 
ATOM     17  C   UNL     1       0.001  10.415  21.092  0.00  0.00    +0.000 A 
ATOM     18  C   UNL     1      -0.413  10.662  22.430  0.00  0.00    +0.000 A 
ATOM     19  C   UNL     1       0.001   9.600  23.199  0.00  0.00    +0.000 A 
ATOM     20  N   UNL     1       0.647   8.716  22.378  0.00  0.00    +0.000 N 
ATOM     21  C   UNL     1       0.662   9.184  21.079  0.00  0.00    +0.000 A 
ATOM     22  H   UNL     1       1.106   7.860  22.667  0.00  0.00    +0.000 HD
ENDBRANCH  11  13
BRANCH   1  24
ATOM     23  N   UNL     1       1.640   4.471  18.517  0.00  0.00    +0.000 N 
ATOM     24  C   UNL     1       2.996   4.416  18.709  0.00  0.00    +0.000 C 
ATOM     25  O   UNL     1       3.581   3.359  18.474  0.00  0.00    +0.000 OA
ATOM     26  H   UNL     1       1.202   3.595  18.264  0.00  0.00    +0.000 HD
ATOM     27  H   UNL     1       1.111   5.099  19.113  0.00  0.00    +0.000 HD
ENDBRANCH   1  24
TORSDOF 2
ENDMDL
MODEL 4
REMARK VINA RESULT:      -7.1      3.278      5.220
REMARK  Name = 
REMARK  2 active torsions:
REMARK  status: ('A' for Active; 'I' for Inactive)
REMARK    1  A    between atoms: C_2  and  C_4
REMARK    2  A    between atoms: C_14  and  C_16
REMARK                            x       y       z     vdW  Elec       q    Type
REMARK                         _______ _______ _______ _____ _____    ______ ____
ROOT
ATOM      1  C   UNL     1       0.690  10.714  18.296  0.00  0.00    +0.000 C 
ATOM      2  C   UNL     1       1.288   9.373  18.709  0.00  0.00    +0.000 A 
ATOM      3  C   UNL     1       1.974   8.551  17.810  0.00  0.00    +0.000 A 
ATOM      4  C   UNL     1       2.522   7.344  18.248  0.00  0.00    +0.000 A 
ATOM      5  C   UNL     1       2.398   6.958  19.585  0.00  0.00    +0.000 A 
ATOM      6  C   UNL     1       1.722   7.775  20.491  0.00  0.00    +0.000 A 
ATOM      7  C   UNL     1       1.160   8.973  20.055  0.00  0.00    +0.000 A 
ATOM      8  C   UNL     1       0.377   9.880  20.967  0.00  0.00    +0.000 C 
ATOM      9  C   UNL     1      -0.890  10.315  20.227  0.00  0.00    +0.000 C 
ATOM     10  N   UNL     1      -0.674  10.863  18.876  0.00  0.00    +0.000 N 
ATOM     11  C   UNL     1      -1.625  11.590  18.153  0.00  0.00    +0.000 C 
ATOM     12  O   UNL     1      -1.282  12.305  17.209  0.00  0.00    +0.000 OA
ENDROOT
BRANCH  11  13
ATOM     13  C   UNL     1      -3.069  11.600  18.546  0.00  0.00    +0.000 A 
ATOM     14  C   UNL     1      -4.060  10.822  17.927  0.00  0.00    +0.000 A 
ATOM     15  C   UNL     1      -5.382  10.812  18.373  0.00  0.00    +0.000 A 
ATOM     16  C   UNL     1      -5.785  11.658  19.405  0.00  0.00    +0.000 A 
ATOM     17  C   UNL     1      -4.849  12.541  19.973  0.00  0.00    +0.000 A 
ATOM     18  C   UNL     1      -4.940  13.563  20.956  0.00  0.00    +0.000 A 
ATOM     19  C   UNL     1      -3.690  14.118  21.100  0.00  0.00    +0.000 A 
ATOM     20  N   UNL     1      -2.843  13.468  20.244  0.00  0.00    +0.000 N 
ATOM     21  C   UNL     1      -3.521  12.493  19.539  0.00  0.00    +0.000 A 
ATOM     22  H   UNL     1      -1.867  13.690  20.088  0.00  0.00    +0.000 HD
ENDBRANCH  11  13
BRANCH   1  24
ATOM     23  N   UNL     1       2.607  12.234  17.783  0.00  0.00    +0.000 N 
ATOM     24  C   UNL     1       1.644  11.887  18.695  0.00  0.00    +0.000 C 
ATOM     25  O   UNL     1       1.640  12.448  19.791  0.00  0.00    +0.000 OA
ATOM     26  H   UNL     1       3.305  12.886  18.117  0.00  0.00    +0.000 HD
ATOM     27  H   UNL     1       2.915  11.518  17.136  0.00  0.00    +0.000 HD
ENDBRANCH   1  24
TORSDOF 2
ENDMDL
MODEL 5
REMARK VINA RESULT:      -6.9      1.956      2.308
REMARK  Name = 
REMARK  2 active torsions:
REMARK  status: ('A' for Active; 'I' for Inactive)
REMARK    1  A    between atoms: C_2  and  C_4
REMARK    2  A    between atoms: C_14  and  C_16
REMARK                            x       y       z     vdW  Elec       q    Type
REMARK                         _______ _______ _______ _____ _____    ______ ____
ROOT
ATOM      1  C   UNL     1       3.230   5.904  17.491  0.00  0.00    +0.000 C 
ATOM      2  C   UNL     1       3.187   4.414  17.808  0.00  0.00    +0.000 A 
ATOM      3  C   UNL     1       2.670   3.472  16.914  0.00  0.00    +0.000 A 
ATOM      4  C   UNL     1       2.677   2.116  17.247  0.00  0.00    +0.000 A 
ATOM      5  C   UNL     1       3.210   1.693  18.467  0.00  0.00    +0.000 A 
ATOM      6  C   UNL     1       3.734   2.624  19.364  0.00  0.00    +0.000 A 
ATOM      7  C   UNL     1       3.715   3.980  19.041  0.00  0.00    +0.000 A 
ATOM      8  C   UNL     1       4.221   5.043  19.981  0.00  0.00    +0.000 C 
ATOM      9  C   UNL     1       3.198   6.181  20.002  0.00  0.00    +0.000 C 
ATOM     10  N   UNL     1       2.795   6.690  18.678  0.00  0.00    +0.000 N 
ATOM     11  C   UNL     1       2.127   7.899  18.464  0.00  0.00    +0.000 C 
ATOM     12  O   UNL     1       2.131   8.429  17.350  0.00  0.00    +0.000 OA
ENDROOT
BRANCH  11  13
ATOM     13  C   UNL     1       1.461   8.637  19.583  0.00  0.00    +0.000 A 
ATOM     14  C   UNL     1       1.577   8.286  20.938  0.00  0.00    +0.000 A 
ATOM     15  C   UNL     1       0.995   9.046  21.953  0.00  0.00    +0.000 A 
ATOM     16  C   UNL     1       0.190  10.141  21.643  0.00  0.00    +0.000 A 
ATOM     17  C   UNL     1      -0.049  10.455  20.293  0.00  0.00    +0.000 A 
ATOM     18  C   UNL     1      -0.859  11.426  19.643  0.00  0.00    +0.000 A 
ATOM     19  C   UNL     1      -0.713  11.253  18.287  0.00  0.00    +0.000 A 
ATOM     20  N   UNL     1       0.159  10.217  18.089  0.00  0.00    +0.000 N 
ATOM     21  C   UNL     1       0.588   9.707  19.299  0.00  0.00    +0.000 A 
ATOM     22  H   UNL     1       0.425   9.824  17.194  0.00  0.00    +0.000 HD
ENDBRANCH  11  13
BRANCH   1  24
ATOM     23  N   UNL     1       5.179   5.574  15.960  0.00  0.00    +0.000 N 
ATOM     24  C   UNL     1       4.650   6.317  16.983  0.00  0.00    +0.000 C 
ATOM     25  O   UNL     1       5.346   7.195  17.494  0.00  0.00    +0.000 OA
ATOM     26  H   UNL     1       6.151   5.757  15.749  0.00  0.00    +0.000 HD
ATOM     27  H   UNL     1       4.856   4.618  15.864  0.00  0.00    +0.000 HD
ENDBRANCH   1  24
TORSDOF 2
ENDMDL
MODEL 6
REMARK VINA RESULT:      -6.9      3.558      5.747
REMARK  Name = 
REMARK  2 active torsions:
REMARK  status: ('A' for Active; 'I' for Inactive)
REMARK    1  A    between atoms: C_2  and  C_4
REMARK    2  A    between atoms: C_14  and  C_16
REMARK                            x       y       z     vdW  Elec       q    Type
REMARK                         _______ _______ _______ _____ _____    ______ ____
ROOT
ATOM      1  C   UNL     1       0.732  11.558  19.138  0.00  0.00    +0.000 C 
ATOM      2  C   UNL     1       1.253  10.126  19.066  0.00  0.00    +0.000 A 
ATOM      3  C   UNL     1       1.807   9.589  17.900  0.00  0.00    +0.000 A 
ATOM      4  C   UNL     1       2.290   8.280  17.897  0.00  0.00    +0.000 A 
ATOM      5  C   UNL     1       2.234   7.505  19.058  0.00  0.00    +0.000 A 
ATOM      6  C   UNL     1       1.689   8.034  20.228  0.00  0.00    +0.000 A 
ATOM      7  C   UNL     1       1.192   9.336  20.231  0.00  0.00    +0.000 A 
ATOM      8  C   UNL     1       0.548   9.954  21.445  0.00  0.00    +0.000 C 
ATOM      9  C   UNL     1      -0.732  10.661  20.993  0.00  0.00    +0.000 C 
ATOM     10  N   UNL     1      -0.571  11.589  19.859  0.00  0.00    +0.000 N 
ATOM     11  C   UNL     1      -1.512  12.552  19.483  0.00  0.00    +0.000 C 
ATOM     12  O   UNL     1      -1.184  13.507  18.774  0.00  0.00    +0.000 OA
ENDROOT
BRANCH  11  13
ATOM     13  C   UNL     1      -2.920  12.514  19.992  0.00  0.00    +0.000 A 
ATOM     14  C   UNL     1      -3.278  12.707  21.336  0.00  0.00    +0.000 A 
ATOM     15  C   UNL     1      -4.609  12.732  21.752  0.00  0.00    +0.000 A 
ATOM     16  C   UNL     1      -5.637  12.472  20.848  0.00  0.00    +0.000 A 
ATOM     17  C   UNL     1      -5.314  12.157  19.516  0.00  0.00    +0.000 A 
ATOM     18  C   UNL     1      -6.088  11.772  18.387  0.00  0.00    +0.000 A 
ATOM     19  C   UNL     1      -5.223  11.570  17.337  0.00  0.00    +0.000 A 
ATOM     20  N   UNL     1      -3.955  11.823  17.784  0.00  0.00    +0.000 N 
ATOM     21  C   UNL     1      -3.975  12.188  19.116  0.00  0.00    +0.000 A 
ATOM     22  H   UNL     1      -3.101  11.710  17.251  0.00  0.00    +0.000 HD
ENDBRANCH  11  13
BRANCH   1  24
ATOM     23  N   UNL     1       2.703  13.081  18.936  0.00  0.00    +0.000 N 
ATOM     24  C   UNL     1       1.800  12.499  19.785  0.00  0.00    +0.000 C 
ATOM     25  O   UNL     1       1.931  12.676  20.997  0.00  0.00    +0.000 OA
ATOM     26  H   UNL     1       3.473  13.561  19.384  0.00  0.00    +0.000 HD
ATOM     27  H   UNL     1       2.901  12.599  18.066  0.00  0.00    +0.000 HD
ENDBRANCH   1  24
TORSDOF 2
ENDMDL
MODEL 7
REMARK VINA RESULT:      -6.9      1.931      2.375
REMARK  Name = 
REMARK  2 active torsions:
REMARK  status: ('A' for Active; 'I' for Inactive)
REMARK    1  A    between atoms: C_2  and  C_4
REMARK    2  A    between atoms: C_14  and  C_16
REMARK                            x       y       z     vdW  Elec       q    Type
REMARK                         _______ _______ _______ _____ _____    ______ ____
ROOT
ATOM      1  C   UNL     1       3.423   5.751  18.144  0.00  0.00    +0.000 C 
ATOM      2  C   UNL     1       2.933   4.316  18.307  0.00  0.00    +0.000 A 
ATOM      3  C   UNL     1       2.933   3.400  17.250  0.00  0.00    +0.000 A 
ATOM      4  C   UNL     1       2.495   2.092  17.461  0.00  0.00    +0.000 A 
ATOM      5  C   UNL     1       2.067   1.688  18.728  0.00  0.00    +0.000 A 
ATOM      6  C   UNL     1       2.069   2.592  19.790  0.00  0.00    +0.000 A 
ATOM      7  C   UNL     1       2.491   3.903  19.580  0.00  0.00    +0.000 A 
ATOM      8  C   UNL     1       2.475   4.944  20.670  0.00  0.00    +0.000 C 
ATOM      9  C   UNL     1       1.880   6.228  20.088  0.00  0.00    +0.000 C 
ATOM     10  N   UNL     1       2.487   6.688  18.826  0.00  0.00    +0.000 N 
ATOM     11  C   UNL     1       2.321   7.967  18.286  0.00  0.00    +0.000 C 
ATOM     12  O   UNL     1       3.111   8.399  17.443  0.00  0.00    +0.000 OA
ENDROOT
BRANCH  11  13
ATOM     13  C   UNL     1       1.244   8.888  18.767  0.00  0.00    +0.000 A 
ATOM     14  C   UNL     1       0.385   9.607  17.920  0.00  0.00    +0.000 A 
ATOM     15  C   UNL     1      -0.651  10.400  18.415  0.00  0.00    +0.000 A 
ATOM     16  C   UNL     1      -0.810  10.579  19.788  0.00  0.00    +0.000 A 
ATOM     17  C   UNL     1       0.103   9.971  20.668  0.00  0.00    +0.000 A 
ATOM     18  C   UNL     1       0.275  10.010  22.079  0.00  0.00    +0.000 A 
ATOM     19  C   UNL     1       1.361   9.225  22.389  0.00  0.00    +0.000 A 
ATOM     20  N   UNL     1       1.850   8.707  21.221  0.00  0.00    +0.000 N 
ATOM     21  C   UNL     1       1.101   9.143  20.146  0.00  0.00    +0.000 A 
ATOM     22  H   UNL     1       2.678   8.130  21.124  0.00  0.00    +0.000 HD
ENDBRANCH  11  13
BRANCH   1  24
ATOM     23  N   UNL     1       5.761   6.585  17.855  0.00  0.00    +0.000 N 
ATOM     24  C   UNL     1       4.894   5.891  18.656  0.00  0.00    +0.000 C 
ATOM     25  O   UNL     1       5.333   5.351  19.672  0.00  0.00    +0.000 OA
ATOM     26  H   UNL     1       6.735   6.535  18.125  0.00  0.00    +0.000 HD
ATOM     27  H   UNL     1       5.557   6.613  16.862  0.00  0.00    +0.000 HD
ENDBRANCH   1  24
TORSDOF 2
ENDMDL
MODEL 8
REMARK VINA RESULT:      -6.9      2.129      6.895
REMARK  Name = 
REMARK  2 active torsions:
REMARK  status: ('A' for Active; 'I' for Inactive)
REMARK    1  A    between atoms: C_2  and  C_4
REMARK    2  A    between atoms: C_14  and  C_16
REMARK                            x       y       z     vdW  Elec       q    Type
REMARK                         _______ _______ _______ _____ _____    ______ ____
ROOT
ATOM      1  C   UNL     1       0.561   9.260  20.139  0.00  0.00    +0.000 C 
ATOM      2  C   UNL     1      -0.281  10.282  19.384  0.00  0.00    +0.000 A 
ATOM      3  C   UNL     1      -1.676  10.319  19.478  0.00  0.00    +0.000 A 
ATOM      4  C   UNL     1      -2.396  11.291  18.783  0.00  0.00    +0.000 A 
ATOM      5  C   UNL     1      -1.729  12.237  18.000  0.00  0.00    +0.000 A 
ATOM      6  C   UNL     1      -0.338  12.213  17.905  0.00  0.00    +0.000 A 
ATOM      7  C   UNL     1       0.384  11.234  18.585  0.00  0.00    +0.000 A 
ATOM      8  C   UNL     1       1.883  11.120  18.490  0.00  0.00    +0.000 C 
ATOM      9  C   UNL     1       2.233   9.645  18.283  0.00  0.00    +0.000 C 
ATOM     10  N   UNL     1       1.618   8.711  19.245  0.00  0.00    +0.000 N 
ATOM     11  C   UNL     1       2.027   7.388  19.437  0.00  0.00    +0.000 C 
ATOM     12  O   UNL     1       1.726   6.782  20.468  0.00  0.00    +0.000 OA
ENDROOT
BRANCH  11  13
ATOM     13  C   UNL     1       2.912   6.689  18.452  0.00  0.00    +0.000 A 
ATOM     14  C   UNL     1       3.899   7.329  17.687  0.00  0.00    +0.000 A 
ATOM     15  C   UNL     1       4.748   6.624  16.832  0.00  0.00    +0.000 A 
ATOM     16  C   UNL     1       4.577   5.254  16.639  0.00  0.00    +0.000 A 
ATOM     17  C   UNL     1       3.523   4.596  17.297  0.00  0.00    +0.000 A 
ATOM     18  C   UNL     1       3.031   3.263  17.263  0.00  0.00    +0.000 A 
ATOM     19  C   UNL     1       1.949   3.195  18.110  0.00  0.00    +0.000 A 
ATOM     20  N   UNL     1       1.771   4.436  18.660  0.00  0.00    +0.000 N 
ATOM     21  C   UNL     1       2.721   5.318  18.185  0.00  0.00    +0.000 A 
ATOM     22  H   UNL     1       1.021   4.709  19.286  0.00  0.00    +0.000 HD
ENDBRANCH  11  13
BRANCH   1  24
ATOM     23  N   UNL     1       1.801   9.039  22.299  0.00  0.00    +0.000 N 
ATOM     24  C   UNL     1       1.146   9.888  21.446  0.00  0.00    +0.000 C 
ATOM     25  O   UNL     1       0.981  11.059  21.792  0.00  0.00    +0.000 OA
ATOM     26  H   UNL     1       2.037   9.428  23.202  0.00  0.00    +0.000 HD
ATOM     27  H   UNL     1       1.540   8.059  22.270  0.00  0.00    +0.000 HD
ENDBRANCH   1  24
TORSDOF 2
ENDMDL
MODEL 9
REMARK VINA RESULT:      -6.7      5.368      7.519
REMARK  Name = 
REMARK  2 active torsions:
REMARK  status: ('A' for Active; 'I' for Inactive)
REMARK    1  A    between atoms: C_2  and  C_4
REMARK    2  A    between atoms: C_14  and  C_16
REMARK                            x       y       z     vdW  Elec       q    Type
REMARK                         _______ _______ _______ _____ _____    ______ ____
ROOT
ATOM      1  C   UNL     1      -1.315  13.270  21.223  0.00  0.00    +0.000 C 
ATOM      2  C   UNL     1      -0.912  11.820  21.467  0.00  0.00    +0.000 A 
ATOM      3  C   UNL     1      -0.764  11.290  22.753  0.00  0.00    +0.000 A 
ATOM      4  C   UNL     1      -0.416   9.949  22.919  0.00  0.00    +0.000 A 
ATOM      5  C   UNL     1      -0.225   9.127  21.805  0.00  0.00    +0.000 A 
ATOM      6  C   UNL     1      -0.376   9.644  20.518  0.00  0.00    +0.000 A 
ATOM      7  C   UNL     1      -0.709  10.987  20.349  0.00  0.00    +0.000 A 
ATOM      8  C   UNL     1      -0.842  11.622  18.989  0.00  0.00    +0.000 C 
ATOM      9  C   UNL     1      -0.111  12.967  19.022  0.00  0.00    +0.000 C 
ATOM     10  N   UNL     1      -0.477  13.855  20.140  0.00  0.00    +0.000 N 
ATOM     11  C   UNL     1      -0.175  15.219  20.200  0.00  0.00    +0.000 C 
ATOM     12  O   UNL     1      -0.793  15.965  20.963  0.00  0.00    +0.000 OA
ENDROOT
BRANCH  11  13
ATOM     13  C   UNL     1       0.836  15.840  19.288  0.00  0.00    +0.000 A 
ATOM     14  C   UNL     1       2.207  15.538  19.309  0.00  0.00    +0.000 A 
ATOM     15  C   UNL     1       3.102  16.090  18.392  0.00  0.00    +0.000 A 
ATOM     16  C   UNL     1       2.672  17.044  17.471  0.00  0.00    +0.000 A 
ATOM     17  C   UNL     1       1.330  17.463  17.495  0.00  0.00    +0.000 A 
ATOM     18  C   UNL     1       0.598  18.445  16.773  0.00  0.00    +0.000 A 
ATOM     19  C   UNL     1      -0.696  18.428  17.238  0.00  0.00    +0.000 A 
ATOM     20  N   UNL     1      -0.779  17.469  18.211  0.00  0.00    +0.000 N 
ATOM     21  C   UNL     1       0.445  16.856  18.392  0.00  0.00    +0.000 A 
ATOM     22  H   UNL     1      -1.595  17.259  18.773  0.00  0.00    +0.000 HD
ENDBRANCH  11  13
BRANCH   1  24
ATOM     23  N   UNL     1      -3.272  14.502  20.275  0.00  0.00    +0.000 N 
ATOM     24  C   UNL     1      -2.846  13.371  20.920  0.00  0.00    +0.000 C 
ATOM     25  O   UNL     1      -3.687  12.555  21.297  0.00  0.00    +0.000 OA
ATOM     26  H   UNL     1      -4.275  14.619  20.224  0.00  0.00    +0.000 HD
ATOM     27  H   UNL     1      -2.713  15.340  20.386  0.00  0.00    +0.000 HD
ENDBRANCH   1  24
TORSDOF 2
ENDMDL
