MODEL 1
REMARK VINA RESULT:      -7.2      0.000      0.000
REMARK  Name = 
REMARK  4 active torsions:
REMARK  status: ('A' for Active; 'I' for Inactive)
REMARK    1  A    between atoms: C_2  and  C_4
REMARK    2  A    between atoms: C_4  and  N_5
REMARK    3  A    between atoms: N_5  and  C_6
REMARK    4  A    between atoms: C_6  and  C_7
REMARK                            x       y       z     vdW  Elec       q    Type
REMARK                         _______ _______ _______ _____ _____    ______ ____
ROOT
ATOM      1  C   UNL     1       3.012   7.201  17.740  0.00  0.00    +0.000 C 
ATOM      2  O   UNL     1       3.346   8.107  16.966  0.00  0.00    +0.000 OA
ATOM      3  N   UNL     1       3.544   5.902  17.753  0.00  0.00    +0.000 N 
ATOM      4  C   UNL     1       4.733   5.537  17.045  0.00  0.00    +0.000 A 
ATOM      5  C   UNL     1       4.904   5.995  15.724  0.00  0.00    +0.000 A 
ATOM      6  C   UNL     1       6.031   5.654  14.970  0.00  0.00    +0.000 A 
ATOM      7  C   UNL     1       7.022   4.861  15.529  0.00  0.00    +0.000 A 
ATOM      8  C   UNL     1       6.879   4.405  16.835  0.00  0.00    +0.000 A 
ATOM      9  C   UNL     1       5.743   4.725  17.614  0.00  0.00    +0.000 A 
ATOM     10  C   UNL     1       5.768   4.178  19.031  0.00  0.00    +0.000 C 
ATOM     11  C   UNL     1       4.663   4.588  19.998  0.00  0.00    +0.000 C 
ATOM     12  C   UNL     1       3.328   4.166  19.455  0.00  0.00    +0.000 A 
ATOM     13  C   UNL     1       2.583   3.138  20.044  0.00  0.00    +0.000 A 
ATOM     14  C   UNL     1       1.350   2.765  19.506  0.00  0.00    +0.000 A 
ATOM     15  C   UNL     1       0.851   3.416  18.377  0.00  0.00    +0.000 A 
ATOM     16  C   UNL     1       1.584   4.447  17.791  0.00  0.00    +0.000 A 
ATOM     17  C   UNL     1       2.826   4.821  18.330  0.00  0.00    +0.000 A 
ENDROOT
BRANCH   1  18
ATOM     18  C   UNL     1       2.081   7.550  18.924  0.00  0.00    +0.000 C 
BRANCH  18  19
ATOM     19  N   UNL     1       1.977   9.015  19.099  0.00  0.00    +0.000 NA
ATOM     20  H   UNL     1       2.820   9.340  19.573  0.00  0.00    +0.000 HD
BRANCH  19  21
ATOM     21  C   UNL     1       0.802   9.468  19.900  0.00  0.00    +0.000 C 
ATOM     22  C   UNL     1       0.541  10.963  19.914  0.00  0.00    +0.000 C 
ATOM     23  C   UNL     1      -0.403  10.052  19.195  0.00  0.00    +0.000 C 
BRANCH  21  25
ATOM     24  N   UNL     1       1.709   8.783  22.045  0.00  0.00    +0.000 N 
ATOM     25  C   UNL     1       0.631   8.732  21.209  0.00  0.00    +0.000 C 
ATOM     26  O   UNL     1      -0.426   8.195  21.512  0.00  0.00    +0.000 OA
ATOM     27  H   UNL     1       1.604   8.415  22.978  0.00  0.00    +0.000 HD
ATOM     28  H   UNL     1       2.497   9.391  21.835  0.00  0.00    +0.000 HD
ENDBRANCH  21  25
ENDBRANCH  19  21
ENDBRANCH  18  19
ENDBRANCH   1  18
TORSDOF 4
ENDMDL
MODEL 2
REMARK VINA RESULT:      -7.1      2.804      5.997
REMARK  Name = 
REMARK  4 active torsions:
REMARK  status: ('A' for Active; 'I' for Inactive)
REMARK    1  A    between atoms: C_2  and  C_4
REMARK    2  A    between atoms: C_4  and  N_5
REMARK    3  A    between atoms: N_5  and  C_6
REMARK    4  A    between atoms: C_6  and  C_7
REMARK                            x       y       z     vdW  Elec       q    Type
REMARK                         _______ _______ _______ _____ _____    ______ ____
ROOT
ATOM      1  C   UNL     1       5.033   4.717  18.935  0.00  0.00    +0.000 C 
ATOM      2  O   UNL     1       5.608   3.646  18.701  0.00  0.00    +0.000 OA
ATOM      3  N   UNL     1       3.644   4.921  18.902  0.00  0.00    +0.000 N 
ATOM      4  C   UNL     1       2.697   3.850  18.851  0.00  0.00    +0.000 A 
ATOM      5  C   UNL     1       2.935   2.773  17.974  0.00  0.00    +0.000 A 
ATOM      6  C   UNL     1       2.038   1.708  17.860  0.00  0.00    +0.000 A 
ATOM      7  C   UNL     1       0.888   1.687  18.636  0.00  0.00    +0.000 A 
ATOM      8  C   UNL     1       0.637   2.734  19.516  0.00  0.00    +0.000 A 
ATOM      9  C   UNL     1       1.523   3.829  19.641  0.00  0.00    +0.000 A 
ATOM     10  C   UNL     1       1.115   4.863  20.677  0.00  0.00    +0.000 C 
ATOM     11  C   UNL     1       2.074   6.005  20.994  0.00  0.00    +0.000 C 
ATOM     12  C   UNL     1       2.344   6.803  19.752  0.00  0.00    +0.000 A 
ATOM     13  C   UNL     1       1.858   8.106  19.591  0.00  0.00    +0.000 A 
ATOM     14  C   UNL     1       2.119   8.815  18.417  0.00  0.00    +0.000 A 
ATOM     15  C   UNL     1       2.869   8.231  17.396  0.00  0.00    +0.000 A 
ATOM     16  C   UNL     1       3.363   6.937  17.554  0.00  0.00    +0.000 A 
ATOM     17  C   UNL     1       3.098   6.221  18.732  0.00  0.00    +0.000 A 
ENDROOT
BRANCH   1  18
ATOM     18  C   UNL     1       5.863   5.889  19.506  0.00  0.00    +0.000 C 
BRANCH  18  19
ATOM     19  N   UNL     1       7.243   5.866  18.974  0.00  0.00    +0.000 NA
ATOM     20  H   UNL     1       7.849   6.351  19.638  0.00  0.00    +0.000 HD
BRANCH  19  21
ATOM     21  C   UNL     1       7.414   6.518  17.644  0.00  0.00    +0.000 C 
ATOM     22  C   UNL     1       6.598   7.777  17.408  0.00  0.00    +0.000 C 
ATOM     23  C   UNL     1       8.085   7.871  17.555  0.00  0.00    +0.000 C 
BRANCH  21  25
ATOM     24  N   UNL     1       7.858   4.271  16.840  0.00  0.00    +0.000 N 
ATOM     25  C   UNL     1       7.516   5.545  16.491  0.00  0.00    +0.000 C 
ATOM     26  O   UNL     1       7.240   5.874  15.345  0.00  0.00    +0.000 OA
ATOM     27  H   UNL     1       7.820   3.557  16.128  0.00  0.00    +0.000 HD
ATOM     28  H   UNL     1       7.900   3.997  17.818  0.00  0.00    +0.000 HD
ENDBRANCH  21  25
ENDBRANCH  19  21
ENDBRANCH  18  19
ENDBRANCH   1  18
TORSDOF 4
ENDMDL
MODEL 3
REMARK VINA RESULT:      -7.1      1.114      1.206
REMARK  Name = 
REMARK  4 active torsions:
REMARK  status: ('A' for Active; 'I' for Inactive)
REMARK    1  A    between atoms: C_2  and  C_4
REMARK    2  A    between atoms: C_4  and  N_5
REMARK    3  A    between atoms: N_5  and  C_6
REMARK    4  A    between atoms: C_6  and  C_7
REMARK                            x       y       z     vdW  Elec       q    Type
REMARK                         _______ _______ _______ _____ _____    ______ ____
ROOT
ATOM      1  C   UNL     1       2.617   7.049  18.745  0.00  0.00    +0.000 C 
ATOM      2  O   UNL     1       2.842   8.144  18.215  0.00  0.00    +0.000 OA
ATOM      3  N   UNL     1       3.232   5.834  18.402  0.00  0.00    +0.000 N 
ATOM      4  C   UNL     1       4.394   5.754  17.571  0.00  0.00    +0.000 A 
ATOM      5  C   UNL     1       4.452   6.541  16.405  0.00  0.00    +0.000 A 
ATOM      6  C   UNL     1       5.548   6.491  15.540  0.00  0.00    +0.000 A 
ATOM      7  C   UNL     1       6.622   5.663  15.832  0.00  0.00    +0.000 A 
ATOM      8  C   UNL     1       6.591   4.883  16.983  0.00  0.00    +0.000 A 
ATOM      9  C   UNL     1       5.489   4.907  17.868  0.00  0.00    +0.000 A 
ATOM     10  C   UNL     1       5.639   4.024  19.095  0.00  0.00    +0.000 C 
ATOM     11  C   UNL     1       4.574   4.090  20.184  0.00  0.00    +0.000 C 
ATOM     12  C   UNL     1       3.237   3.715  19.612  0.00  0.00    +0.000 A 
ATOM     13  C   UNL     1       2.599   2.516  19.951  0.00  0.00    +0.000 A 
ATOM     14  C   UNL     1       1.361   2.195  19.392  0.00  0.00    +0.000 A 
ATOM     15  C   UNL     1       0.750   3.068  18.491  0.00  0.00    +0.000 A 
ATOM     16  C   UNL     1       1.377   4.267  18.155  0.00  0.00    +0.000 A 
ATOM     17  C   UNL     1       2.623   4.590  18.715  0.00  0.00    +0.000 A 
ENDROOT
BRANCH   1  18
ATOM     18  C   UNL     1       1.743   7.014  20.020  0.00  0.00    +0.000 C 
BRANCH  18  19
ATOM     19  N   UNL     1       2.063   8.151  20.910  0.00  0.00    +0.000 NA
ATOM     20  H   UNL     1       2.333   7.777  21.821  0.00  0.00    +0.000 HD
BRANCH  19  21
ATOM     21  C   UNL     1       0.943   9.111  21.128  0.00  0.00    +0.000 C 
ATOM     22  C   UNL     1       0.983  10.384  20.300  0.00  0.00    +0.000 C 
ATOM     23  C   UNL     1      -0.063   9.350  20.022  0.00  0.00    +0.000 C 
BRANCH  21  25
ATOM     24  N   UNL     1      -0.766   8.899  22.839  0.00  0.00    +0.000 N 
ATOM     25  C   UNL     1       0.525   9.251  22.574  0.00  0.00    +0.000 C 
ATOM     26  O   UNL     1       1.318   9.588  23.443  0.00  0.00    +0.000 OA
ATOM     27  H   UNL     1      -1.058   8.856  23.803  0.00  0.00    +0.000 HD
ATOM     28  H   UNL     1      -1.336   8.451  22.125  0.00  0.00    +0.000 HD
ENDBRANCH  21  25
ENDBRANCH  19  21
ENDBRANCH  18  19
ENDBRANCH   1  18
TORSDOF 4
ENDMDL
MODEL 4
REMARK VINA RESULT:      -7.1      2.432      6.025
REMARK  Name = 
REMARK  4 active torsions:
REMARK  status: ('A' for Active; 'I' for Inactive)
REMARK    1  A    between atoms: C_2  and  C_4
REMARK    2  A    between atoms: C_4  and  N_5
REMARK    3  A    between atoms: N_5  and  C_6
REMARK    4  A    between atoms: C_6  and  C_7
REMARK                            x       y       z     vdW  Elec       q    Type
REMARK                         _______ _______ _______ _____ _____    ______ ____
ROOT
ATOM      1  C   UNL     1       4.005   6.045  17.470  0.00  0.00    +0.000 C 
ATOM      2  O   UNL     1       4.458   5.105  16.806  0.00  0.00    +0.000 OA
ATOM      3  N   UNL     1       2.813   6.019  18.214  0.00  0.00    +0.000 N 
ATOM      4  C   UNL     1       2.105   4.811  18.512  0.00  0.00    +0.000 A 
ATOM      5  C   UNL     1       1.926   3.858  17.491  0.00  0.00    +0.000 A 
ATOM      6  C   UNL     1       1.223   2.671  17.711  0.00  0.00    +0.000 A 
ATOM      7  C   UNL     1       0.698   2.401  18.967  0.00  0.00    +0.000 A 
ATOM      8  C   UNL     1       0.869   3.324  19.993  0.00  0.00    +0.000 A 
ATOM      9  C   UNL     1       1.566   4.538  19.792  0.00  0.00    +0.000 A 
ATOM     10  C   UNL     1       1.695   5.410  21.029  0.00  0.00    +0.000 C 
ATOM     11  C   UNL     1       2.553   6.668  20.957  0.00  0.00    +0.000 C 
ATOM     12  C   UNL     1       2.016   7.591  19.902  0.00  0.00    +0.000 A 
ATOM     13  C   UNL     1       1.397   8.803  20.225  0.00  0.00    +0.000 A 
ATOM     14  C   UNL     1       0.900   9.632  19.218  0.00  0.00    +0.000 A 
ATOM     15  C   UNL     1       1.018   9.257  17.879  0.00  0.00    +0.000 A 
ATOM     16  C   UNL     1       1.642   8.054  17.549  0.00  0.00    +0.000 A 
ATOM     17  C   UNL     1       2.140   7.219  18.562  0.00  0.00    +0.000 A 
ENDROOT
BRANCH   1  18
ATOM     18  C   UNL     1       4.892   7.293  17.682  0.00  0.00    +0.000 C 
BRANCH  18  19
ATOM     19  N   UNL     1       6.198   7.131  17.008  0.00  0.00    +0.000 NA
ATOM     20  H   UNL     1       6.027   6.801  16.056  0.00  0.00    +0.000 HD
BRANCH  19  21
ATOM     21  C   UNL     1       7.126   6.164  17.663  0.00  0.00    +0.000 C 
ATOM     22  C   UNL     1       8.156   6.760  18.605  0.00  0.00    +0.000 C 
ATOM     23  C   UNL     1       7.035   5.935  19.156  0.00  0.00    +0.000 C 
BRANCH  21  25
ATOM     24  N   UNL     1       7.369   5.258  15.424  0.00  0.00    +0.000 N 
ATOM     25  C   UNL     1       7.596   5.052  16.753  0.00  0.00    +0.000 C 
ATOM     26  O   UNL     1       8.197   4.077  17.186  0.00  0.00    +0.000 OA
ATOM     27  H   UNL     1       7.772   4.608  14.766  0.00  0.00    +0.000 HD
ATOM     28  H   UNL     1       7.035   6.160  15.091  0.00  0.00    +0.000 HD
ENDBRANCH  21  25
ENDBRANCH  19  21
ENDBRANCH  18  19
ENDBRANCH   1  18
TORSDOF 4
ENDMDL
MODEL 5
REMARK VINA RESULT:      -7.1      1.280      1.642
REMARK  Name = 
REMARK  4 active torsions:
REMARK  status: ('A' for Active; 'I' for Inactive)
REMARK    1  A    between atoms: C_2  and  C_4
REMARK    2  A    between atoms: C_4  and  N_5
REMARK    3  A    between atoms: N_5  and  C_6
REMARK    4  A    between atoms: C_6  and  C_7
REMARK                            x       y       z     vdW  Elec       q    Type
REMARK                         _______ _______ _______ _____ _____    ______ ____
ROOT
ATOM      1  C   UNL     1       3.134   7.302  17.723  0.00  0.00    +0.000 C 
ATOM      2  O   UNL     1       3.463   8.210  16.949  0.00  0.00    +0.000 OA
ATOM      3  N   UNL     1       3.649   5.996  17.715  0.00  0.00    +0.000 N 
ATOM      4  C   UNL     1       4.817   5.621  16.976  0.00  0.00    +0.000 A 
ATOM      5  C   UNL     1       4.964   6.087  15.655  0.00  0.00    +0.000 A 
ATOM      6  C   UNL     1       6.068   5.738  14.873  0.00  0.00    +0.000 A 
ATOM      7  C   UNL     1       7.062   4.927  15.403  0.00  0.00    +0.000 A 
ATOM      8  C   UNL     1       6.942   4.462  16.709  0.00  0.00    +0.000 A 
ATOM      9  C   UNL     1       5.829   4.792  17.516  0.00  0.00    +0.000 A 
ATOM     10  C   UNL     1       5.879   4.233  18.928  0.00  0.00    +0.000 C 
ATOM     11  C   UNL     1       4.802   4.650  19.923  0.00  0.00    +0.000 C 
ATOM     12  C   UNL     1       3.450   4.250  19.408  0.00  0.00    +0.000 A 
ATOM     13  C   UNL     1       2.704   3.227  20.006  0.00  0.00    +0.000 A 
ATOM     14  C   UNL     1       1.455   2.875  19.493  0.00  0.00    +0.000 A 
ATOM     15  C   UNL     1       0.939   3.541  18.382  0.00  0.00    +0.000 A 
ATOM     16  C   UNL     1       1.672   4.566  17.787  0.00  0.00    +0.000 A 
ATOM     17  C   UNL     1       2.930   4.920  18.299  0.00  0.00    +0.000 A 
ENDROOT
BRANCH   1  18
ATOM     18  C   UNL     1       2.236   7.654  18.931  0.00  0.00    +0.000 C 
BRANCH  18  19
ATOM     19  N   UNL     1       1.177   8.609  18.540  0.00  0.00    +0.000 NA
ATOM     20  H   UNL     1       1.406   8.977  17.616  0.00  0.00    +0.000 HD
BRANCH  19  21
ATOM     21  C   UNL     1       1.007   9.769  19.462  0.00  0.00    +0.000 C 
ATOM     22  C   UNL     1      -0.326   9.860  20.183  0.00  0.00    +0.000 C 
ATOM     23  C   UNL     1       0.915   9.531  20.954  0.00  0.00    +0.000 C 
BRANCH  21  25
ATOM     24  N   UNL     1       2.110  10.990  17.677  0.00  0.00    +0.000 N 
ATOM     25  C   UNL     1       1.588  11.061  18.936  0.00  0.00    +0.000 C 
ATOM     26  O   UNL     1       1.525  12.103  19.576  0.00  0.00    +0.000 OA
ATOM     27  H   UNL     1       2.397  11.848  17.233  0.00  0.00    +0.000 HD
ATOM     28  H   UNL     1       1.978  10.155  17.111  0.00  0.00    +0.000 HD
ENDBRANCH  21  25
ENDBRANCH  19  21
ENDBRANCH  18  19
ENDBRANCH   1  18
TORSDOF 4
ENDMDL
MODEL 6
REMARK VINA RESULT:      -6.9      6.640      9.119
REMARK  Name = 
REMARK  4 active torsions:
REMARK  status: ('A' for Active; 'I' for Inactive)
REMARK    1  A    between atoms: C_2  and  C_4
REMARK    2  A    between atoms: C_4  and  N_5
REMARK    3  A    between atoms: N_5  and  C_6
REMARK    4  A    between atoms: C_6  and  C_7
REMARK                            x       y       z     vdW  Elec       q    Type
REMARK                         _______ _______ _______ _____ _____    ______ ____
ROOT
ATOM      1  C   UNL     1      -0.328  12.926  19.117  0.00  0.00    +0.000 C 
ATOM      2  O   UNL     1       0.024  13.747  18.260  0.00  0.00    +0.000 OA
ATOM      3  N   UNL     1      -0.040  13.004  20.489  0.00  0.00    +0.000 N 
ATOM      4  C   UNL     1       0.473  14.185  21.114  0.00  0.00    +0.000 A 
ATOM      5  C   UNL     1       1.508  14.897  20.476  0.00  0.00    +0.000 A 
ATOM      6  C   UNL     1       2.069  16.043  21.045  0.00  0.00    +0.000 A 
ATOM      7  C   UNL     1       1.592  16.515  22.260  0.00  0.00    +0.000 A 
ATOM      8  C   UNL     1       0.565  15.834  22.904  0.00  0.00    +0.000 A 
ATOM      9  C   UNL     1      -0.010  14.665  22.354  0.00  0.00    +0.000 A 
ATOM     10  C   UNL     1      -1.148  14.073  23.169  0.00  0.00    +0.000 C 
ATOM     11  C   UNL     1      -1.932  12.899  22.592  0.00  0.00    +0.000 C 
ATOM     12  C   UNL     1      -1.008  11.743  22.340  0.00  0.00    +0.000 A 
ATOM     13  C   UNL     1      -1.061  10.574  23.108  0.00  0.00    +0.000 A 
ATOM     14  C   UNL     1      -0.179   9.523  22.852  0.00  0.00    +0.000 A 
ATOM     15  C   UNL     1       0.761   9.630  21.828  0.00  0.00    +0.000 A 
ATOM     16  C   UNL     1       0.814  10.788  21.054  0.00  0.00    +0.000 A 
ATOM     17  C   UNL     1      -0.071  11.847  21.312  0.00  0.00    +0.000 A 
ENDROOT
BRANCH   1  18
ATOM     18  C   UNL     1      -1.331  11.822  18.711  0.00  0.00    +0.000 C 
BRANCH  18  19
ATOM     19  N   UNL     1      -1.917  12.105  17.383  0.00  0.00    +0.000 NA
ATOM     20  H   UNL     1      -2.393  13.007  17.430  0.00  0.00    +0.000 HD
BRANCH  19  21
ATOM     21  C   UNL     1      -2.906  11.095  16.906  0.00  0.00    +0.000 C 
ATOM     22  C   UNL     1      -2.778  10.668  15.455  0.00  0.00    +0.000 C 
ATOM     23  C   UNL     1      -2.437   9.701  16.547  0.00  0.00    +0.000 C 
BRANCH  21  25
ATOM     24  N   UNL     1      -4.923  12.443  16.986  0.00  0.00    +0.000 N 
ATOM     25  C   UNL     1      -4.306  11.310  17.433  0.00  0.00    +0.000 C 
ATOM     26  O   UNL     1      -4.858  10.487  18.150  0.00  0.00    +0.000 OA
ATOM     27  H   UNL     1      -5.899  12.571  17.208  0.00  0.00    +0.000 HD
ATOM     28  H   UNL     1      -4.501  13.004  16.251  0.00  0.00    +0.000 HD
ENDBRANCH  21  25
ENDBRANCH  19  21
ENDBRANCH  18  19
ENDBRANCH   1  18
TORSDOF 4
ENDMDL
MODEL 7
REMARK VINA RESULT:      -6.8      5.984      7.983
REMARK  Name = 
REMARK  4 active torsions:
REMARK  status: ('A' for Active; 'I' for Inactive)
REMARK    1  A    between atoms: C_2  and  C_4
REMARK    2  A    between atoms: C_4  and  N_5
REMARK    3  A    between atoms: N_5  and  C_6
REMARK    4  A    between atoms: C_6  and  C_7
REMARK                            x       y       z     vdW  Elec       q    Type
REMARK                         _______ _______ _______ _____ _____    ______ ____
ROOT
ATOM      1  C   UNL     1      -0.772  13.319  20.414  0.00  0.00    +0.000 C 
ATOM      2  O   UNL     1      -1.450  14.209  19.886  0.00  0.00    +0.000 OA
ATOM      3  N   UNL     1      -0.875  11.945  20.141  0.00  0.00    +0.000 N 
ATOM      4  C   UNL     1      -1.595  11.423  19.019  0.00  0.00    +0.000 A 
ATOM      5  C   UNL     1      -2.862  11.957  18.717  0.00  0.00    +0.000 A 
ATOM      6  C   UNL     1      -3.626  11.475  17.651  0.00  0.00    +0.000 A 
ATOM      7  C   UNL     1      -3.129  10.458  16.849  0.00  0.00    +0.000 A 
ATOM      8  C   UNL     1      -1.875   9.921  17.123  0.00  0.00    +0.000 A 
ATOM      9  C   UNL     1      -1.089  10.383  18.203  0.00  0.00    +0.000 A 
ATOM     10  C   UNL     1       0.269   9.714  18.334  0.00  0.00    +0.000 C 
ATOM     11  C   UNL     1       1.252  10.241  19.373  0.00  0.00    +0.000 C 
ATOM     12  C   UNL     1       0.649  10.137  20.744  0.00  0.00    +0.000 A 
ATOM     13  C   UNL     1       1.123   9.223  21.692  0.00  0.00    +0.000 A 
ATOM     14  C   UNL     1       0.531   9.146  22.954  0.00  0.00    +0.000 A 
ATOM     15  C   UNL     1      -0.538   9.981  23.279  0.00  0.00    +0.000 A 
ATOM     16  C   UNL     1      -1.010  10.899  22.342  0.00  0.00    +0.000 A 
ATOM     17  C   UNL     1      -0.417  10.975  21.072  0.00  0.00    +0.000 A 
ENDROOT
BRANCH   1  18
ATOM     18  C   UNL     1       0.424  13.731  21.302  0.00  0.00    +0.000 C 
BRANCH  18  19
ATOM     19  N   UNL     1       1.707  13.449  20.622  0.00  0.00    +0.000 NA
ATOM     20  H   UNL     1       2.465  13.658  21.274  0.00  0.00    +0.000 HD
BRANCH  19  21
ATOM     21  C   UNL     1       1.945  14.238  19.379  0.00  0.00    +0.000 C 
ATOM     22  C   UNL     1       3.118  13.798  18.522  0.00  0.00    +0.000 C 
ATOM     23  C   UNL     1       1.719  13.593  18.029  0.00  0.00    +0.000 C 
BRANCH  21  25
ATOM     24  N   UNL     1       0.721  16.260  18.824  0.00  0.00    +0.000 N 
ATOM     25  C   UNL     1       1.745  15.727  19.550  0.00  0.00    +0.000 C 
ATOM     26  O   UNL     1       2.416  16.380  20.339  0.00  0.00    +0.000 OA
ATOM     27  H   UNL     1       0.467  17.221  18.994  0.00  0.00    +0.000 HD
ATOM     28  H   UNL     1       0.073  15.655  18.324  0.00  0.00    +0.000 HD
ENDBRANCH  21  25
ENDBRANCH  19  21
ENDBRANCH  18  19
ENDBRANCH   1  18
TORSDOF 4
ENDMDL
MODEL 8
REMARK VINA RESULT:      -6.8      1.146      1.572
REMARK  Name = 
REMARK  4 active torsions:
REMARK  status: ('A' for Active; 'I' for Inactive)
REMARK    1  A    between atoms: C_2  and  C_4
REMARK    2  A    between atoms: C_4  and  N_5
REMARK    3  A    between atoms: N_5  and  C_6
REMARK    4  A    between atoms: C_6  and  C_7
REMARK                            x       y       z     vdW  Elec       q    Type
REMARK                         _______ _______ _______ _____ _____    ______ ____
ROOT
ATOM      1  C   UNL     1       2.657   6.998  18.734  0.00  0.00    +0.000 C 
ATOM      2  O   UNL     1       2.905   8.092  18.212  0.00  0.00    +0.000 OA
ATOM      3  N   UNL     1       3.259   5.776  18.393  0.00  0.00    +0.000 N 
ATOM      4  C   UNL     1       4.430   5.683  17.576  0.00  0.00    +0.000 A 
ATOM      5  C   UNL     1       4.513   6.475  16.414  0.00  0.00    +0.000 A 
ATOM      6  C   UNL     1       5.619   6.413  15.562  0.00  0.00    +0.000 A 
ATOM      7  C   UNL     1       6.678   5.568  15.863  0.00  0.00    +0.000 A 
ATOM      8  C   UNL     1       6.621   4.783  17.010  0.00  0.00    +0.000 A 
ATOM      9  C   UNL     1       5.509   4.819  17.881  0.00  0.00    +0.000 A 
ATOM     10  C   UNL     1       5.631   3.928  19.106  0.00  0.00    +0.000 C 
ATOM     11  C   UNL     1       4.553   4.004  20.182  0.00  0.00    +0.000 C 
ATOM     12  C   UNL     1       3.219   3.651  19.592  0.00  0.00    +0.000 A 
ATOM     13  C   UNL     1       2.559   2.460  19.918  0.00  0.00    +0.000 A 
ATOM     14  C   UNL     1       1.324   2.159  19.342  0.00  0.00    +0.000 A 
ATOM     15  C   UNL     1       0.737   3.045  18.438  0.00  0.00    +0.000 A 
ATOM     16  C   UNL     1       1.385   4.236  18.115  0.00  0.00    +0.000 A 
ATOM     17  C   UNL     1       2.628   4.539  18.692  0.00  0.00    +0.000 A 
ENDROOT
BRANCH   1  18
ATOM     18  C   UNL     1       1.767   6.969  19.998  0.00  0.00    +0.000 C 
BRANCH  18  19
ATOM     19  N   UNL     1       2.050   8.132  20.868  0.00  0.00    +0.000 NA
ATOM     20  H   UNL     1       2.381   7.783  21.769  0.00  0.00    +0.000 HD
BRANCH  19  21
ATOM     21  C   UNL     1       0.879   9.019  21.128  0.00  0.00    +0.000 C 
ATOM     22  C   UNL     1      -0.355   8.346  21.701  0.00  0.00    +0.000 C 
ATOM     23  C   UNL     1       0.443   9.283  22.553  0.00  0.00    +0.000 C 
BRANCH  21  25
ATOM     24  N   UNL     1       1.096  11.316  20.374  0.00  0.00    +0.000 N 
ATOM     25  C   UNL     1       0.652  10.065  20.060  0.00  0.00    +0.000 C 
ATOM     26  O   UNL     1       0.169   9.780  18.972  0.00  0.00    +0.000 OA
ATOM     27  H   UNL     1       1.081  12.021  19.652  0.00  0.00    +0.000 HD
ATOM     28  H   UNL     1       1.655  11.471  21.209  0.00  0.00    +0.000 HD
ENDBRANCH  21  25
ENDBRANCH  19  21
ENDBRANCH  18  19
ENDBRANCH   1  18
TORSDOF 4
ENDMDL
MODEL 9
REMARK VINA RESULT:      -6.7      6.336      9.183
REMARK  Name = 
REMARK  4 active torsions:
REMARK  status: ('A' for Active; 'I' for Inactive)
REMARK    1  A    between atoms: C_2  and  C_4
REMARK    2  A    between atoms: C_4  and  N_5
REMARK    3  A    between atoms: N_5  and  C_6
REMARK    4  A    between atoms: C_6  and  C_7
REMARK                            x       y       z     vdW  Elec       q    Type
REMARK                         _______ _______ _______ _____ _____    ______ ____
ROOT
ATOM      1  C   UNL     1       0.134  12.579  19.088  0.00  0.00    +0.000 C 
ATOM      2  O   UNL     1       1.348  12.337  19.109  0.00  0.00    +0.000 OA
ATOM      3  N   UNL     1      -0.838  11.941  19.875  0.00  0.00    +0.000 N 
ATOM      4  C   UNL     1      -0.516  11.112  20.996  0.00  0.00    +0.000 A 
ATOM      5  C   UNL     1       0.532  10.179  20.873  0.00  0.00    +0.000 A 
ATOM      6  C   UNL     1       0.881   9.325  21.922  0.00  0.00    +0.000 A 
ATOM      7  C   UNL     1       0.199   9.397  23.128  0.00  0.00    +0.000 A 
ATOM      8  C   UNL     1      -0.834  10.317  23.276  0.00  0.00    +0.000 A 
ATOM      9  C   UNL     1      -1.213  11.184  22.225  0.00  0.00    +0.000 A 
ATOM     10  C   UNL     1      -2.333  12.151  22.571  0.00  0.00    +0.000 C 
ATOM     11  C   UNL     1      -2.716  13.225  21.559  0.00  0.00    +0.000 C 
ATOM     12  C   UNL     1      -3.158  12.583  20.277  0.00  0.00    +0.000 A 
ATOM     13  C   UNL     1      -4.493  12.614  19.856  0.00  0.00    +0.000 A 
ATOM     14  C   UNL     1      -4.869  11.996  18.662  0.00  0.00    +0.000 A 
ATOM     15  C   UNL     1      -3.917  11.344  17.879  0.00  0.00    +0.000 A 
ATOM     16  C   UNL     1      -2.585  11.316  18.288  0.00  0.00    +0.000 A 
ATOM     17  C   UNL     1      -2.205  11.935  19.490  0.00  0.00    +0.000 A 
ENDROOT
BRANCH   1  18
ATOM     18  C   UNL     1      -0.359  13.807  18.290  0.00  0.00    +0.000 C 
BRANCH  18  19
ATOM     19  N   UNL     1      -0.599  14.957  19.188  0.00  0.00    +0.000 NA
ATOM     20  H   UNL     1      -1.599  15.165  19.179  0.00  0.00    +0.000 HD
BRANCH  19  21
ATOM     21  C   UNL     1       0.127  16.206  18.815  0.00  0.00    +0.000 C 
ATOM     22  C   UNL     1       1.136  16.719  19.827  0.00  0.00    +0.000 C 
ATOM     23  C   UNL     1       1.612  16.149  18.527  0.00  0.00    +0.000 C 
BRANCH  21  25
ATOM     24  N   UNL     1      -1.928  17.496  18.749  0.00  0.00    +0.000 N 
ATOM     25  C   UNL     1      -0.739  17.239  18.131  0.00  0.00    +0.000 C 
ATOM     26  O   UNL     1      -0.357  17.842  17.137  0.00  0.00    +0.000 OA
ATOM     27  H   UNL     1      -2.486  18.262  18.404  0.00  0.00    +0.000 HD
ATOM     28  H   UNL     1      -2.126  17.110  19.669  0.00  0.00    +0.000 HD
ENDBRANCH  21  25
ENDBRANCH  19  21
ENDBRANCH  18  19
ENDBRANCH   1  18
TORSDOF 4
ENDMDL
