MODEL 1
REMARK VINA RESULT:      -8.2      0.000      0.000
REMARK  Name = 
REMARK  7 active torsions:
REMARK  status: ('A' for Active; 'I' for Inactive)
REMARK    1  A    between atoms: C_1  and  C_2
REMARK    2  A    between atoms: C_5  and  N_6
REMARK    3  A    between atoms: C_7  and  C_9
REMARK    4  A    between atoms: C_11  and  C_12
REMARK    5  A    between atoms: C_18  and  S_19
REMARK    6  A    between atoms: S_19  and  N_22
REMARK    7  A    between atoms: N_22  and  C_23
REMARK                            x       y       z     vdW  Elec       q    Type
REMARK                         _______ _______ _______ _____ _____    ______ ____
ROOT
ATOM      1  C   UNL     1       3.203   2.081  19.067  0.00  0.00    +0.000 C 
ATOM      2  C   UNL     1       2.764   3.402  19.631  0.00  0.00    +0.000 A 
ATOM      3  C   UNL     1       1.470   3.465  20.165  0.00  0.00    +0.000 A 
ATOM      4  C   UNL     1       0.957   4.646  20.704  0.00  0.00    +0.000 A 
ATOM      5  C   UNL     1       1.716   5.813  20.729  0.00  0.00    +0.000 A 
ATOM      6  C   UNL     1       3.006   5.776  20.183  0.00  0.00    +0.000 A 
ATOM      7  C   UNL     1       3.538   4.578  19.644  0.00  0.00    +0.000 A 
ENDROOT
BRANCH   5   8
ATOM      8  N   UNL     1       1.240   7.027  21.279  0.00  0.00    +0.000 N 
ATOM      9  C   UNL     1       1.194   8.267  20.651  0.00  0.00    +0.000 C 
ATOM     10  O   UNL     1       1.598   8.516  19.519  0.00  0.00    +0.000 OA
ATOM     11  H   UNL     1       0.883   7.012  22.232  0.00  0.00    +0.000 HD
BRANCH   9  12
ATOM     12  C   UNL     1       0.598   9.334  21.459  0.00  0.00    +0.000 A 
ATOM     13  C   UNL     1      -0.204  10.403  20.974  0.00  0.00    +0.000 A 
ATOM     14  C   UNL     1      -0.558  11.109  22.093  0.00  0.00    +0.000 A 
ATOM     15  O   UNL     1       0.003  10.519  23.184  0.00  0.00    +0.000 OA
ATOM     16  N   UNL     1       0.734   9.404  22.793  0.00  0.00    +0.000 NA
BRANCH  14  17
ATOM     17  C   UNL     1      -1.443  12.343  22.111  0.00  0.00    +0.000 C 
ATOM     18  C   UNL     1      -1.286  13.325  23.252  0.00  0.00    +0.000 C 
ATOM     19  C   UNL     1      -2.484  12.441  23.205  0.00  0.00    +0.000 C 
ENDBRANCH  14  17
ENDBRANCH   9  12
ENDBRANCH   5   8
BRANCH   7  20
ATOM     20  S   UNL     1       5.148   4.697  18.857  0.00  0.00    +0.000 S 
ATOM     21  O   UNL     1       6.004   5.530  19.674  0.00  0.00    +0.000 OA
ATOM     22  O   UNL     1       5.561   3.357  18.498  0.00  0.00    +0.000 OA
BRANCH  20  23
ATOM     23  N   UNL     1       4.857   5.598  17.445  0.00  0.00    +0.000 N 
ATOM     24  H   UNL     1       4.924   6.589  17.690  0.00  0.00    +0.000 HD
BRANCH  23  25
ATOM     25  C   UNL     1       5.588   5.225  16.267  0.00  0.00    +0.000 A 
ATOM     26  C   UNL     1       4.995   4.323  15.382  0.00  0.00    +0.000 A 
ATOM     27  C   UNL     1       5.678   3.915  14.232  0.00  0.00    +0.000 A 
ATOM     28  C   UNL     1       6.956   4.404  13.965  0.00  0.00    +0.000 A 
ATOM     29  C   UNL     1       7.560   5.302  14.848  0.00  0.00    +0.000 A 
ATOM     30  C   UNL     1       6.879   5.713  15.998  0.00  0.00    +0.000 A 
ATOM     31 CL   UNL     1       7.647   6.857  17.039  0.00  0.00    +0.000 Cl
ENDBRANCH  23  25
ENDBRANCH  20  23
ENDBRANCH   7  20
TORSDOF 6
ENDMDL
MODEL 2
REMARK VINA RESULT:      -8.1      3.408      9.809
REMARK  Name = 
REMARK  7 active torsions:
REMARK  status: ('A' for Active; 'I' for Inactive)
REMARK    1  A    between atoms: C_1  and  C_2
REMARK    2  A    between atoms: C_5  and  N_6
REMARK    3  A    between atoms: C_7  and  C_9
REMARK    4  A    between atoms: C_11  and  C_12
REMARK    5  A    between atoms: C_18  and  S_19
REMARK    6  A    between atoms: S_19  and  N_22
REMARK    7  A    between atoms: N_22  and  C_23
REMARK                            x       y       z     vdW  Elec       q    Type
REMARK                         _______ _______ _______ _____ _____    ______ ____
ROOT
ATOM      1  C   UNL     1       0.564   8.347  21.303  0.00  0.00    +0.000 C 
ATOM      2  C   UNL     1       1.476   7.882  20.204  0.00  0.00    +0.000 A 
ATOM      3  C   UNL     1       2.104   6.642  20.382  0.00  0.00    +0.000 A 
ATOM      4  C   UNL     1       2.980   6.120  19.428  0.00  0.00    +0.000 A 
ATOM      5  C   UNL     1       3.266   6.818  18.259  0.00  0.00    +0.000 A 
ATOM      6  C   UNL     1       2.663   8.068  18.069  0.00  0.00    +0.000 A 
ATOM      7  C   UNL     1       1.764   8.600  19.027  0.00  0.00    +0.000 A 
ENDROOT
BRANCH   5   8
ATOM      8  N   UNL     1       4.136   6.318  17.260  0.00  0.00    +0.000 N 
ATOM      9  C   UNL     1       5.498   6.068  17.389  0.00  0.00    +0.000 C 
ATOM     10  O   UNL     1       6.178   6.277  18.389  0.00  0.00    +0.000 OA
ATOM     11  H   UNL     1       3.742   6.107  16.346  0.00  0.00    +0.000 HD
BRANCH   9  12
ATOM     12  C   UNL     1       6.126   5.500  16.192  0.00  0.00    +0.000 A 
ATOM     13  C   UNL     1       5.590   4.469  15.375  0.00  0.00    +0.000 A 
ATOM     14  C   UNL     1       6.506   4.312  14.368  0.00  0.00    +0.000 A 
ATOM     15  O   UNL     1       7.535   5.179  14.567  0.00  0.00    +0.000 OA
ATOM     16  N   UNL     1       7.306   5.928  15.714  0.00  0.00    +0.000 NA
BRANCH  14  17
ATOM     17  C   UNL     1       6.381   3.336  13.212  0.00  0.00    +0.000 C 
ATOM     18  C   UNL     1       6.657   3.840  11.811  0.00  0.00    +0.000 C 
ATOM     19  C   UNL     1       5.254   3.559  12.226  0.00  0.00    +0.000 C 
ENDBRANCH  14  17
ENDBRANCH   9  12
ENDBRANCH   5   8
BRANCH   7  20
ATOM     20  S   UNL     1       1.165  10.266  18.728  0.00  0.00    +0.000 S 
ATOM     21  O   UNL     1       2.165  10.992  17.975  0.00  0.00    +0.000 OA
ATOM     22  O   UNL     1      -0.190  10.162  18.230  0.00  0.00    +0.000 OA
BRANCH  20  23
ATOM     23  N   UNL     1       1.149  10.987  20.267  0.00  0.00    +0.000 N 
ATOM     24  H   UNL     1       1.951  10.622  20.789  0.00  0.00    +0.000 HD
BRANCH  23  25
ATOM     25  C   UNL     1       1.004  12.414  20.322  0.00  0.00    +0.000 A 
ATOM     26  C   UNL     1       2.163  13.193  20.339  0.00  0.00    +0.000 A 
ATOM     27  C   UNL     1       2.072  14.587  20.413  0.00  0.00    +0.000 A 
ATOM     28  C   UNL     1       0.825  15.205  20.474  0.00  0.00    +0.000 A 
ATOM     29  C   UNL     1      -0.341  14.435  20.464  0.00  0.00    +0.000 A 
ATOM     30  C   UNL     1      -0.252  13.041  20.389  0.00  0.00    +0.000 A 
ATOM     31 CL   UNL     1      -1.719  12.130  20.336  0.00  0.00    +0.000 Cl
ENDBRANCH  23  25
ENDBRANCH  20  23
ENDBRANCH   7  20
TORSDOF 6
ENDMDL
MODEL 3
REMARK VINA RESULT:      -7.9      3.088      8.860
REMARK  Name = 
REMARK  7 active torsions:
REMARK  status: ('A' for Active; 'I' for Inactive)
REMARK    1  A    between atoms: C_1  and  C_2
REMARK    2  A    between atoms: C_5  and  N_6
REMARK    3  A    between atoms: C_7  and  C_9
REMARK    4  A    between atoms: C_11  and  C_12
REMARK    5  A    between atoms: C_18  and  S_19
REMARK    6  A    between atoms: S_19  and  N_22
REMARK    7  A    between atoms: N_22  and  C_23
REMARK                            x       y       z     vdW  Elec       q    Type
REMARK                         _______ _______ _______ _____ _____    ______ ____
ROOT
ATOM      1  C   UNL     1       1.550   2.156  21.249  0.00  0.00    +0.000 C 
ATOM      2  C   UNL     1       2.362   2.637  20.081  0.00  0.00    +0.000 A 
ATOM      3  C   UNL     1       2.971   1.657  19.284  0.00  0.00    +0.000 A 
ATOM      4  C   UNL     1       3.757   1.995  18.181  0.00  0.00    +0.000 A 
ATOM      5  C   UNL     1       3.970   3.325  17.831  0.00  0.00    +0.000 A 
ATOM      6  C   UNL     1       3.385   4.320  18.625  0.00  0.00    +0.000 A 
ATOM      7  C   UNL     1       2.576   3.986  19.740  0.00  0.00    +0.000 A 
ENDROOT
BRANCH   5   8
ATOM      8  N   UNL     1       4.746   3.709  16.712  0.00  0.00    +0.000 N 
ATOM      9  C   UNL     1       6.033   4.237  16.732  0.00  0.00    +0.000 C 
ATOM     10  O   UNL     1       6.693   4.491  17.735  0.00  0.00    +0.000 OA
ATOM     11  H   UNL     1       4.343   3.589  15.786  0.00  0.00    +0.000 HD
BRANCH   9  12
ATOM     12  C   UNL     1       6.604   4.492  15.406  0.00  0.00    +0.000 A 
ATOM     13  C   UNL     1       6.292   3.789  14.211  0.00  0.00    +0.000 A 
ATOM     14  C   UNL     1       7.035   4.407  13.240  0.00  0.00    +0.000 A 
ATOM     15  O   UNL     1       7.762   5.408  13.808  0.00  0.00    +0.000 OA
ATOM     16  N   UNL     1       7.499   5.465  15.171  0.00  0.00    +0.000 NA
BRANCH  14  17
ATOM     17  C   UNL     1       7.036   4.038  11.767  0.00  0.00    +0.000 C 
ATOM     18  C   UNL     1       5.832   3.310  11.206  0.00  0.00    +0.000 C 
ATOM     19  C   UNL     1       7.108   2.568  11.413  0.00  0.00    +0.000 C 
ENDBRANCH  14  17
ENDBRANCH   9  12
ENDBRANCH   5   8
BRANCH   7  20
ATOM     20  S   UNL     1       1.997   5.352  20.751  0.00  0.00    +0.000 S 
ATOM     21  O   UNL     1       0.617   5.626  20.416  0.00  0.00    +0.000 OA
ATOM     22  O   UNL     1       2.376   5.076  22.120  0.00  0.00    +0.000 OA
BRANCH  20  23
ATOM     23  N   UNL     1       2.873   6.694  20.181  0.00  0.00    +0.000 N 
ATOM     24  H   UNL     1       3.649   6.340  19.615  0.00  0.00    +0.000 HD
BRANCH  23  25
ATOM     25  C   UNL     1       2.124   7.753  19.566  0.00  0.00    +0.000 A 
ATOM     26  C   UNL     1       2.149   7.855  18.174  0.00  0.00    +0.000 A 
ATOM     27  C   UNL     1       1.453   8.883  17.530  0.00  0.00    +0.000 A 
ATOM     28  C   UNL     1       0.732   9.813  18.277  0.00  0.00    +0.000 A 
ATOM     29  C   UNL     1       0.705   9.724  19.671  0.00  0.00    +0.000 A 
ATOM     30  C   UNL     1       1.400   8.697  20.316  0.00  0.00    +0.000 A 
ATOM     31 CL   UNL     1       1.305   8.599  22.038  0.00  0.00    +0.000 Cl
ENDBRANCH  23  25
ENDBRANCH  20  23
ENDBRANCH   7  20
TORSDOF 6
ENDMDL
MODEL 4
REMARK VINA RESULT:      -7.9      2.417      2.714
REMARK  Name = 
REMARK  7 active torsions:
REMARK  status: ('A' for Active; 'I' for Inactive)
REMARK    1  A    between atoms: C_1  and  C_2
REMARK    2  A    between atoms: C_5  and  N_6
REMARK    3  A    between atoms: C_7  and  C_9
REMARK    4  A    between atoms: C_11  and  C_12
REMARK    5  A    between atoms: C_18  and  S_19
REMARK    6  A    between atoms: S_19  and  N_22
REMARK    7  A    between atoms: N_22  and  C_23
REMARK                            x       y       z     vdW  Elec       q    Type
REMARK                         _______ _______ _______ _____ _____    ______ ____
ROOT
ATOM      1  C   UNL     1       4.501   2.674  19.971  0.00  0.00    +0.000 C 
ATOM      2  C   UNL     1       3.844   4.023  19.897  0.00  0.00    +0.000 A 
ATOM      3  C   UNL     1       2.476   4.081  20.201  0.00  0.00    +0.000 A 
ATOM      4  C   UNL     1       1.765   5.281  20.153  0.00  0.00    +0.000 A 
ATOM      5  C   UNL     1       2.390   6.472  19.796  0.00  0.00    +0.000 A 
ATOM      6  C   UNL     1       3.753   6.433  19.472  0.00  0.00    +0.000 A 
ATOM      7  C   UNL     1       4.485   5.221  19.529  0.00  0.00    +0.000 A 
ENDROOT
BRANCH   5   8
ATOM      8  N   UNL     1       1.710   7.712  19.750  0.00  0.00    +0.000 N 
ATOM      9  C   UNL     1       1.664   8.599  18.679  0.00  0.00    +0.000 C 
ATOM     10  O   UNL     1       2.242   8.462  17.605  0.00  0.00    +0.000 OA
ATOM     11  H   UNL     1       1.189   8.002  20.574  0.00  0.00    +0.000 HD
BRANCH   9  12
ATOM     12  C   UNL     1       0.832   9.784  18.909  0.00  0.00    +0.000 A 
ATOM     13  C   UNL     1      -0.287  10.185  18.130  0.00  0.00    +0.000 A 
ATOM     14  C   UNL     1      -0.756  11.313  18.750  0.00  0.00    +0.000 A 
ATOM     15  O   UNL     1       0.033  11.588  19.824  0.00  0.00    +0.000 OA
ATOM     16  N   UNL     1       1.036  10.633  19.929  0.00  0.00    +0.000 NA
BRANCH  14  17
ATOM     17  C   UNL     1      -1.968  12.116  18.313  0.00  0.00    +0.000 C 
ATOM     18  C   UNL     1      -3.280  11.890  19.034  0.00  0.00    +0.000 C 
ATOM     19  C   UNL     1      -3.104  11.364  17.652  0.00  0.00    +0.000 C 
ENDBRANCH  14  17
ENDBRANCH   9  12
ENDBRANCH   5   8
BRANCH   7  20
ATOM     20  S   UNL     1       6.187   5.283  18.961  0.00  0.00    +0.000 S 
ATOM     21  O   UNL     1       6.349   6.436  18.102  0.00  0.00    +0.000 OA
ATOM     22  O   UNL     1       7.042   5.108  20.115  0.00  0.00    +0.000 OA
BRANCH  20  23
ATOM     23  N   UNL     1       6.335   3.934  17.937  0.00  0.00    +0.000 N 
ATOM     24  H   UNL     1       5.700   3.211  18.283  0.00  0.00    +0.000 HD
BRANCH  23  25
ATOM     25  C   UNL     1       6.252   4.171  16.523  0.00  0.00    +0.000 A 
ATOM     26  C   UNL     1       7.418   4.534  15.847  0.00  0.00    +0.000 A 
ATOM     27  C   UNL     1       7.382   4.795  14.473  0.00  0.00    +0.000 A 
ATOM     28  C   UNL     1       6.181   4.699  13.774  0.00  0.00    +0.000 A 
ATOM     29  C   UNL     1       5.007   4.343  14.442  0.00  0.00    +0.000 A 
ATOM     30  C   UNL     1       5.041   4.080  15.815  0.00  0.00    +0.000 A 
ATOM     31 CL   UNL     1       3.575   3.602  16.593  0.00  0.00    +0.000 Cl
ENDBRANCH  23  25
ENDBRANCH  20  23
ENDBRANCH   7  20
TORSDOF 6
ENDMDL
MODEL 5
REMARK VINA RESULT:      -7.9      4.498      9.073
REMARK  Name = 
REMARK  7 active torsions:
REMARK  status: ('A' for Active; 'I' for Inactive)
REMARK    1  A    between atoms: C_1  and  C_2
REMARK    2  A    between atoms: C_5  and  N_6
REMARK    3  A    between atoms: C_7  and  C_9
REMARK    4  A    between atoms: C_11  and  C_12
REMARK    5  A    between atoms: C_18  and  S_19
REMARK    6  A    between atoms: S_19  and  N_22
REMARK    7  A    between atoms: N_22  and  C_23
REMARK                            x       y       z     vdW  Elec       q    Type
REMARK                         _______ _______ _______ _____ _____    ______ ____
ROOT
ATOM      1  C   UNL     1      -1.613  12.962  22.633  0.00  0.00    +0.000 C 
ATOM      2  C   UNL     1      -0.915  11.715  22.172  0.00  0.00    +0.000 A 
ATOM      3  C   UNL     1      -0.970  10.603  23.025  0.00  0.00    +0.000 A 
ATOM      4  C   UNL     1      -0.346   9.398  22.699  0.00  0.00    +0.000 A 
ATOM      5  C   UNL     1       0.361   9.254  21.508  0.00  0.00    +0.000 A 
ATOM      6  C   UNL     1       0.443  10.358  20.650  0.00  0.00    +0.000 A 
ATOM      7  C   UNL     1      -0.197  11.582  20.968  0.00  0.00    +0.000 A 
ENDROOT
BRANCH   5   8
ATOM      8  N   UNL     1       0.994   8.045  21.133  0.00  0.00    +0.000 N 
ATOM      9  C   UNL     1       1.680   7.796  19.949  0.00  0.00    +0.000 C 
ATOM     10  O   UNL     1       1.815   8.582  19.015  0.00  0.00    +0.000 OA
ATOM     11  H   UNL     1       0.962   7.266  21.786  0.00  0.00    +0.000 HD
BRANCH   9  12
ATOM     12  C   UNL     1       2.277   6.461  19.864  0.00  0.00    +0.000 A 
ATOM     13  C   UNL     1       2.003   5.365  20.726  0.00  0.00    +0.000 A 
ATOM     14  C   UNL     1       2.759   4.334  20.231  0.00  0.00    +0.000 A 
ATOM     15  O   UNL     1       3.456   4.777  19.149  0.00  0.00    +0.000 OA
ATOM     16  N   UNL     1       3.161   6.114  18.914  0.00  0.00    +0.000 NA
BRANCH  14  17
ATOM     17  C   UNL     1       2.798   2.925  20.793  0.00  0.00    +0.000 C 
ATOM     18  C   UNL     1       1.724   1.948  20.364  0.00  0.00    +0.000 C 
ATOM     19  C   UNL     1       1.689   2.518  21.740  0.00  0.00    +0.000 C 
ENDBRANCH  14  17
ENDBRANCH   9  12
ENDBRANCH   5   8
BRANCH   7  20
ATOM     20  S   UNL     1       0.097  12.956  19.850  0.00  0.00    +0.000 S 
ATOM     21  O   UNL     1       0.340  14.149  20.633  0.00  0.00    +0.000 OA
ATOM     22  O   UNL     1       1.062  12.521  18.864  0.00  0.00    +0.000 OA
BRANCH  20  23
ATOM     23  N   UNL     1      -1.406  13.211  19.097  0.00  0.00    +0.000 N 
ATOM     24  H   UNL     1      -1.298  13.995  18.448  0.00  0.00    +0.000 HD
BRANCH  23  25
ATOM     25  C   UNL     1      -2.064  12.063  18.540  0.00  0.00    +0.000 A 
ATOM     26  C   UNL     1      -1.341  11.252  17.664  0.00  0.00    +0.000 A 
ATOM     27  C   UNL     1      -1.946  10.134  17.079  0.00  0.00    +0.000 A 
ATOM     28  C   UNL     1      -3.275   9.828  17.366  0.00  0.00    +0.000 A 
ATOM     29  C   UNL     1      -4.009  10.637  18.237  0.00  0.00    +0.000 A 
ATOM     30  C   UNL     1      -3.406  11.754  18.823  0.00  0.00    +0.000 A 
ATOM     31 CL   UNL     1      -4.337  12.702  19.926  0.00  0.00    +0.000 Cl
ENDBRANCH  23  25
ENDBRANCH  20  23
ENDBRANCH   7  20
TORSDOF 6
ENDMDL
MODEL 6
REMARK VINA RESULT:      -7.8      2.727      8.792
REMARK  Name = 
REMARK  7 active torsions:
REMARK  status: ('A' for Active; 'I' for Inactive)
REMARK    1  A    between atoms: C_1  and  C_2
REMARK    2  A    between atoms: C_5  and  N_6
REMARK    3  A    between atoms: C_7  and  C_9
REMARK    4  A    between atoms: C_11  and  C_12
REMARK    5  A    between atoms: C_18  and  S_19
REMARK    6  A    between atoms: S_19  and  N_22
REMARK    7  A    between atoms: N_22  and  C_23
REMARK                            x       y       z     vdW  Elec       q    Type
REMARK                         _______ _______ _______ _____ _____    ______ ____
ROOT
ATOM      1  C   UNL     1       1.288   2.116  21.100  0.00  0.00    +0.000 C 
ATOM      2  C   UNL     1       2.149   2.585  19.963  0.00  0.00    +0.000 A 
ATOM      3  C   UNL     1       2.689   1.598  19.126  0.00  0.00    +0.000 A 
ATOM      4  C   UNL     1       3.511   1.923  18.046  0.00  0.00    +0.000 A 
ATOM      5  C   UNL     1       3.832   3.247  17.760  0.00  0.00    +0.000 A 
ATOM      6  C   UNL     1       3.317   4.248  18.595  0.00  0.00    +0.000 A 
ATOM      7  C   UNL     1       2.472   3.927  19.687  0.00  0.00    +0.000 A 
ENDROOT
BRANCH   5   8
ATOM      8  N   UNL     1       4.649   3.620  16.667  0.00  0.00    +0.000 N 
ATOM      9  C   UNL     1       5.822   4.367  16.719  0.00  0.00    +0.000 C 
ATOM     10  O   UNL     1       6.319   4.858  17.728  0.00  0.00    +0.000 OA
ATOM     11  H   UNL     1       4.372   3.315  15.738  0.00  0.00    +0.000 HD
BRANCH   9  12
ATOM     12  C   UNL     1       6.481   4.551  15.423  0.00  0.00    +0.000 A 
ATOM     13  C   UNL     1       6.166   3.866  14.219  0.00  0.00    +0.000 A 
ATOM     14  C   UNL     1       7.012   4.399  13.283  0.00  0.00    +0.000 A 
ATOM     15  O   UNL     1       7.800   5.335  13.880  0.00  0.00    +0.000 OA
ATOM     16  N   UNL     1       7.474   5.434  15.227  0.00  0.00    +0.000 NA
BRANCH  14  17
ATOM     17  C   UNL     1       7.054   4.014  11.815  0.00  0.00    +0.000 C 
ATOM     18  C   UNL     1       5.887   3.238  11.241  0.00  0.00    +0.000 C 
ATOM     19  C   UNL     1       7.183   2.544  11.480  0.00  0.00    +0.000 C 
ENDBRANCH  14  17
ENDBRANCH   9  12
ENDBRANCH   5   8
BRANCH   7  20
ATOM     20  S   UNL     1       1.990   5.287  20.756  0.00  0.00    +0.000 S 
ATOM     21  O   UNL     1       0.605   5.615  20.496  0.00  0.00    +0.000 OA
ATOM     22  O   UNL     1       2.424   4.965  22.098  0.00  0.00    +0.000 OA
BRANCH  20  23
ATOM     23  N   UNL     1       2.883   6.612  20.175  0.00  0.00    +0.000 N 
ATOM     24  H   UNL     1       3.569   6.254  19.505  0.00  0.00    +0.000 HD
BRANCH  23  25
ATOM     25  C   UNL     1       2.142   7.752  19.714  0.00  0.00    +0.000 A 
ATOM     26  C   UNL     1       1.292   8.393  20.617  0.00  0.00    +0.000 A 
ATOM     27  C   UNL     1       0.533   9.495  20.208  0.00  0.00    +0.000 A 
ATOM     28  C   UNL     1       0.620   9.956  18.896  0.00  0.00    +0.000 A 
ATOM     29  C   UNL     1       1.463   9.318  17.983  0.00  0.00    +0.000 A 
ATOM     30  C   UNL     1       2.223   8.217  18.389  0.00  0.00    +0.000 A 
ATOM     31 CL   UNL     1       3.283   7.484  17.240  0.00  0.00    +0.000 Cl
ENDBRANCH  23  25
ENDBRANCH  20  23
ENDBRANCH   7  20
TORSDOF 6
ENDMDL
MODEL 7
REMARK VINA RESULT:      -7.7      3.859      9.002
REMARK  Name = 
REMARK  7 active torsions:
REMARK  status: ('A' for Active; 'I' for Inactive)
REMARK    1  A    between atoms: C_1  and  C_2
REMARK    2  A    between atoms: C_5  and  N_6
REMARK    3  A    between atoms: C_7  and  C_9
REMARK    4  A    between atoms: C_11  and  C_12
REMARK    5  A    between atoms: C_18  and  S_19
REMARK    6  A    between atoms: S_19  and  N_22
REMARK    7  A    between atoms: N_22  and  C_23
REMARK                            x       y       z     vdW  Elec       q    Type
REMARK                         _______ _______ _______ _____ _____    ______ ____
ROOT
ATOM      1  C   UNL     1      -1.291  11.292  22.717  0.00  0.00    +0.000 C 
ATOM      2  C   UNL     1      -0.378  10.358  21.975  0.00  0.00    +0.000 A 
ATOM      3  C   UNL     1      -0.379   9.016  22.379  0.00  0.00    +0.000 A 
ATOM      4  C   UNL     1       0.439   8.066  21.765  0.00  0.00    +0.000 A 
ATOM      5  C   UNL     1       1.294   8.419  20.725  0.00  0.00    +0.000 A 
ATOM      6  C   UNL     1       1.324   9.759  20.319  0.00  0.00    +0.000 A 
ATOM      7  C   UNL     1       0.488  10.728  20.929  0.00  0.00    +0.000 A 
ENDROOT
BRANCH   5   8
ATOM      8  N   UNL     1       2.128   7.484  20.066  0.00  0.00    +0.000 N 
ATOM      9  C   UNL     1       2.042   6.098  20.132  0.00  0.00    +0.000 C 
ATOM     10  O   UNL     1       1.244   5.456  20.809  0.00  0.00    +0.000 OA
ATOM     11  H   UNL     1       2.871   7.843  19.471  0.00  0.00    +0.000 HD
BRANCH   9  12
ATOM     12  C   UNL     1       3.016   5.389  19.296  0.00  0.00    +0.000 A 
ATOM     13  C   UNL     1       3.386   5.734  17.968  0.00  0.00    +0.000 A 
ATOM     14  C   UNL     1       4.344   4.817  17.625  0.00  0.00    +0.000 A 
ATOM     15  O   UNL     1       4.535   3.964  18.668  0.00  0.00    +0.000 OA
ATOM     16  N   UNL     1       3.700   4.315  19.721  0.00  0.00    +0.000 NA
BRANCH  14  17
ATOM     17  C   UNL     1       5.082   4.772  16.298  0.00  0.00    +0.000 C 
ATOM     18  C   UNL     1       6.460   5.395  16.219  0.00  0.00    +0.000 C 
ATOM     19  C   UNL     1       5.306   6.084  15.578  0.00  0.00    +0.000 C 
ENDBRANCH  14  17
ENDBRANCH   9  12
ENDBRANCH   5   8
BRANCH   7  20
ATOM     20  S   UNL     1       0.719  12.430  20.407  0.00  0.00    +0.000 S 
ATOM     21  O   UNL     1       0.926  13.252  21.580  0.00  0.00    +0.000 OA
ATOM     22  O   UNL     1       1.690  12.433  19.334  0.00  0.00    +0.000 OA
BRANCH  20  23
ATOM     23  N   UNL     1      -0.800  12.890  19.798  0.00  0.00    +0.000 N 
ATOM     24  H   UNL     1      -0.687  13.796  19.334  0.00  0.00    +0.000 HD
BRANCH  23  25
ATOM     25  C   UNL     1      -1.521  11.916  19.029  0.00  0.00    +0.000 A 
ATOM     26  C   UNL     1      -0.796  11.085  18.173  0.00  0.00    +0.000 A 
ATOM     27  C   UNL     1      -1.457  10.134  17.388  0.00  0.00    +0.000 A 
ATOM     28  C   UNL     1      -2.844  10.014  17.455  0.00  0.00    +0.000 A 
ATOM     29  C   UNL     1      -3.580  10.844  18.304  0.00  0.00    +0.000 A 
ATOM     30  C   UNL     1      -2.921  11.795  19.090  0.00  0.00    +0.000 A 
ATOM     31 CL   UNL     1      -3.865  12.771  20.157  0.00  0.00    +0.000 Cl
ENDBRANCH  23  25
ENDBRANCH  20  23
ENDBRANCH   7  20
TORSDOF 6
ENDMDL
MODEL 8
REMARK VINA RESULT:      -7.7      3.573      9.246
REMARK  Name = 
REMARK  7 active torsions:
REMARK  status: ('A' for Active; 'I' for Inactive)
REMARK    1  A    between atoms: C_1  and  C_2
REMARK    2  A    between atoms: C_5  and  N_6
REMARK    3  A    between atoms: C_7  and  C_9
REMARK    4  A    between atoms: C_11  and  C_12
REMARK    5  A    between atoms: C_18  and  S_19
REMARK    6  A    between atoms: S_19  and  N_22
REMARK    7  A    between atoms: N_22  and  C_23
REMARK                            x       y       z     vdW  Elec       q    Type
REMARK                         _______ _______ _______ _____ _____    ______ ____
ROOT
ATOM      1  C   UNL     1       0.045   8.447  22.058  0.00  0.00    +0.000 C 
ATOM      2  C   UNL     1       0.903   8.043  20.893  0.00  0.00    +0.000 A 
ATOM      3  C   UNL     1       1.355   6.716  20.867  0.00  0.00    +0.000 A 
ATOM      4  C   UNL     1       2.167   6.239  19.836  0.00  0.00    +0.000 A 
ATOM      5  C   UNL     1       2.564   7.069  18.792  0.00  0.00    +0.000 A 
ATOM      6  C   UNL     1       2.138   8.404  18.808  0.00  0.00    +0.000 A 
ATOM      7  C   UNL     1       1.304   8.893  19.844  0.00  0.00    +0.000 A 
ENDROOT
BRANCH   5   8
ATOM      8  N   UNL     1       3.373   6.621  17.721  0.00  0.00    +0.000 N 
ATOM      9  C   UNL     1       4.659   6.098  17.809  0.00  0.00    +0.000 C 
ATOM     10  O   UNL     1       5.318   5.975  18.837  0.00  0.00    +0.000 OA
ATOM     11  H   UNL     1       2.991   6.672  16.780  0.00  0.00    +0.000 HD
BRANCH   9  12
ATOM     12  C   UNL     1       5.229   5.670  16.528  0.00  0.00    +0.000 A 
ATOM     13  C   UNL     1       5.020   4.414  15.898  0.00  0.00    +0.000 A 
ATOM     14  C   UNL     1       5.714   4.496  14.719  0.00  0.00    +0.000 A 
ATOM     15  O   UNL     1       6.315   5.715  14.644  0.00  0.00    +0.000 OA
ATOM     16  N   UNL     1       6.018   6.458  15.779  0.00  0.00    +0.000 NA
BRANCH  14  17
ATOM     17  C   UNL     1       5.787   3.407  13.664  0.00  0.00    +0.000 C 
ATOM     18  C   UNL     1       6.502   3.709  12.364  0.00  0.00    +0.000 C 
ATOM     19  C   UNL     1       5.015   3.623  12.380  0.00  0.00    +0.000 C 
ENDBRANCH  14  17
ENDBRANCH   9  12
ENDBRANCH   5   8
BRANCH   7  20
ATOM     20  S   UNL     1       0.940  10.651  19.820  0.00  0.00    +0.000 S 
ATOM     21  O   UNL     1       1.375  11.234  21.071  0.00  0.00    +0.000 OA
ATOM     22  O   UNL     1       1.421  11.181  18.562  0.00  0.00    +0.000 OA
BRANCH  20  23
ATOM     23  N   UNL     1      -0.758  10.728  19.854  0.00  0.00    +0.000 N 
ATOM     24  H   UNL     1      -1.021  11.480  20.495  0.00  0.00    +0.000 HD
BRANCH  23  25
ATOM     25  C   UNL     1      -1.439  10.758  18.590  0.00  0.00    +0.000 A 
ATOM     26  C   UNL     1      -1.962   9.562  18.095  0.00  0.00    +0.000 A 
ATOM     27  C   UNL     1      -2.615   9.538  16.859  0.00  0.00    +0.000 A 
ATOM     28  C   UNL     1      -2.744  10.709  16.113  0.00  0.00    +0.000 A 
ATOM     29  C   UNL     1      -2.219  11.909  16.596  0.00  0.00    +0.000 A 
ATOM     30  C   UNL     1      -1.566  11.936  17.832  0.00  0.00    +0.000 A 
ATOM     31 CL   UNL     1      -0.969  13.450  18.411  0.00  0.00    +0.000 Cl
ENDBRANCH  23  25
ENDBRANCH  20  23
ENDBRANCH   7  20
TORSDOF 6
ENDMDL
MODEL 9
REMARK VINA RESULT:      -7.6      3.684      9.423
REMARK  Name = 
REMARK  7 active torsions:
REMARK  status: ('A' for Active; 'I' for Inactive)
REMARK    1  A    between atoms: C_1  and  C_2
REMARK    2  A    between atoms: C_5  and  N_6
REMARK    3  A    between atoms: C_7  and  C_9
REMARK    4  A    between atoms: C_11  and  C_12
REMARK    5  A    between atoms: C_18  and  S_19
REMARK    6  A    between atoms: S_19  and  N_22
REMARK    7  A    between atoms: N_22  and  C_23
REMARK                            x       y       z     vdW  Elec       q    Type
REMARK                         _______ _______ _______ _____ _____    ______ ____
ROOT
ATOM      1  C   UNL     1      -1.721  11.993  21.793  0.00  0.00    +0.000 C 
ATOM      2  C   UNL     1      -0.802  11.058  21.059  0.00  0.00    +0.000 A 
ATOM      3  C   UNL     1       0.135  10.355  21.829  0.00  0.00    +0.000 A 
ATOM      4  C   UNL     1       1.044   9.469  21.248  0.00  0.00    +0.000 A 
ATOM      5  C   UNL     1       1.056   9.252  19.873  0.00  0.00    +0.000 A 
ATOM      6  C   UNL     1       0.139   9.958  19.084  0.00  0.00    +0.000 A 
ATOM      7  C   UNL     1      -0.795  10.851  19.667  0.00  0.00    +0.000 A 
ENDROOT
BRANCH   5   8
ATOM      8  N   UNL     1       1.950   8.352  19.246  0.00  0.00    +0.000 N 
ATOM      9  C   UNL     1       2.252   7.056  19.652  0.00  0.00    +0.000 C 
ATOM     10  O   UNL     1       1.814   6.495  20.652  0.00  0.00    +0.000 OA
ATOM     11  H   UNL     1       2.428   8.663  18.404  0.00  0.00    +0.000 HD
BRANCH   9  12
ATOM     12  C   UNL     1       3.179   6.344  18.769  0.00  0.00    +0.000 A 
ATOM     13  C   UNL     1       3.701   6.827  17.539  0.00  0.00    +0.000 A 
ATOM     14  C   UNL     1       4.544   5.838  17.106  0.00  0.00    +0.000 A 
ATOM     15  O   UNL     1       4.526   4.816  18.004  0.00  0.00    +0.000 OA
ATOM     16  N   UNL     1       3.667   5.125  19.052  0.00  0.00    +0.000 NA
BRANCH  14  17
ATOM     17  C   UNL     1       5.373   5.884  15.835  0.00  0.00    +0.000 C 
ATOM     18  C   UNL     1       5.527   4.612  15.029  0.00  0.00    +0.000 C 
ATOM     19  C   UNL     1       6.680   5.120  15.824  0.00  0.00    +0.000 C 
ENDBRANCH  14  17
ENDBRANCH   9  12
ENDBRANCH   5   8
BRANCH   7  20
ATOM     20  S   UNL     1      -1.822  11.791  18.534  0.00  0.00    +0.000 S 
ATOM     21  O   UNL     1      -2.178  10.944  17.416  0.00  0.00    +0.000 OA
ATOM     22  O   UNL     1      -2.853  12.442  19.314  0.00  0.00    +0.000 OA
BRANCH  20  23
ATOM     23  N   UNL     1      -0.772  12.964  17.893  0.00  0.00    +0.000 N 
ATOM     24  H   UNL     1      -1.300  13.513  17.210  0.00  0.00    +0.000 HD
BRANCH  23  25
ATOM     25  C   UNL     1      -0.016  13.749  18.828  0.00  0.00    +0.000 A 
ATOM     26  C   UNL     1      -0.688  14.726  19.563  0.00  0.00    +0.000 A 
ATOM     27  C   UNL     1       0.010  15.530  20.471  0.00  0.00    +0.000 A 
ATOM     28  C   UNL     1       1.382  15.360  20.643  0.00  0.00    +0.000 A 
ATOM     29  C   UNL     1       2.067  14.389  19.908  0.00  0.00    +0.000 A 
ATOM     30  C   UNL     1       1.370  13.584  19.001  0.00  0.00    +0.000 A 
ATOM     31 CL   UNL     1       2.247  12.367  18.144  0.00  0.00    +0.000 Cl
ENDBRANCH  23  25
ENDBRANCH  20  23
ENDBRANCH   7  20
TORSDOF 6
ENDMDL
