MODEL 1
REMARK VINA RESULT:      -9.3      0.000      0.000
REMARK  Name = 
REMARK  6 active torsions:
REMARK  status: ('A' for Active; 'I' for Inactive)
REMARK    1  A    between atoms: S_2  and  N_4
REMARK    2  A    between atoms: S_2  and  C_19
REMARK    3  A    between atoms: N_4  and  C_5
REMARK    4  A    between atoms: C_9  and  C_10
REMARK    5  A    between atoms: N_14  and  C_15
REMARK    6  A    between atoms: C_24  and  C_25
REMARK                            x       y       z     vdW  Elec       q    Type
REMARK                         _______ _______ _______ _____ _____    ______ ____
ROOT
ATOM      1  N   UNL     1       4.081   2.659  17.696  0.00  0.00    +0.000 N 
ATOM      2  H   UNL     1       4.269   2.011  18.463  0.00  0.00    +0.000 HD
ENDROOT
BRANCH   1   3
ATOM      3  C   UNL     1       5.087   3.613  17.409  0.00  0.00    +0.000 A 
ATOM      4  C   UNL     1       5.754   4.272  18.439  0.00  0.00    +0.000 A 
ATOM      5  C   UNL     1       6.750   5.192  18.127  0.00  0.00    +0.000 A 
ATOM      6  C   UNL     1       7.084   5.431  16.791  0.00  0.00    +0.000 A 
ATOM      7  C   UNL     1       6.433   4.757  15.741  0.00  0.00    +0.000 A 
ATOM      8  C   UNL     1       5.422   3.843  16.070  0.00  0.00    +0.000 A 
BRANCH   7   9
ATOM      9  C   UNL     1       6.949   4.923  14.379  0.00  0.00    +0.000 A 
ATOM     10  N   UNL     1       7.928   5.759  14.060  0.00  0.00    +0.000 NA
ATOM     11  N   UNL     1       8.257   5.519  12.755  0.00  0.00    +0.000 NA
ATOM     12  N   UNL     1       7.496   4.566  12.245  0.00  0.00    +0.000 NA
ATOM     13  N   UNL     1       6.629   4.241  13.221  0.00  0.00    +0.000 N 
BRANCH  13  14
ATOM     14  C   UNL     1       5.519   3.340  12.986  0.00  0.00    +0.000 C 
ATOM     15  C   UNL     1       5.488   2.446  11.756  0.00  0.00    +0.000 C 
ATOM     16  C   UNL     1       4.530   3.582  11.851  0.00  0.00    +0.000 C 
ENDBRANCH  13  14
ENDBRANCH   7   9
ENDBRANCH   1   3
BRANCH   1  18
ATOM     17  O   UNL     1       2.175   3.508  16.342  0.00  0.00    +0.000 OA
ATOM     18  S   UNL     1       2.458   3.108  17.704  0.00  0.00    +0.000 S 
ATOM     19  O   UNL     1       1.635   2.099  18.328  0.00  0.00    +0.000 OA
BRANCH  18  20
ATOM     20  C   UNL     1       2.433   4.595  18.695  0.00  0.00    +0.000 A 
ATOM     21  C   UNL     1       2.497   5.810  17.982  0.00  0.00    +0.000 A 
ATOM     22  C   UNL     1       2.299   7.031  18.625  0.00  0.00    +0.000 A 
ATOM     23  C   UNL     1       2.014   7.053  19.982  0.00  0.00    +0.000 A 
ATOM     24  C   UNL     1       1.981   5.858  20.701  0.00  0.00    +0.000 A 
ATOM     25  C   UNL     1       2.219   4.606  20.085  0.00  0.00    +0.000 A 
BRANCH  25  26
ATOM     26  C   UNL     1       2.236   3.418  21.022  0.00  0.00    +0.000 C 
ATOM     27  F   UNL     1       3.234   2.525  20.871  0.00  0.00    +0.000 F 
ATOM     28  F   UNL     1       2.380   3.850  22.318  0.00  0.00    +0.000 F 
ATOM     29  F   UNL     1       1.071   2.721  21.003  0.00  0.00    +0.000 F 
ENDBRANCH  25  26
ENDBRANCH  18  20
ENDBRANCH   1  18
TORSDOF 6
ENDMDL
MODEL 2
REMARK VINA RESULT:      -8.2      5.172      7.854
REMARK  Name = 
REMARK  6 active torsions:
REMARK  status: ('A' for Active; 'I' for Inactive)
REMARK    1  A    between atoms: S_2  and  N_4
REMARK    2  A    between atoms: S_2  and  C_19
REMARK    3  A    between atoms: N_4  and  C_5
REMARK    4  A    between atoms: C_9  and  C_10
REMARK    5  A    between atoms: N_14  and  C_15
REMARK    6  A    between atoms: C_24  and  C_25
REMARK                            x       y       z     vdW  Elec       q    Type
REMARK                         _______ _______ _______ _____ _____    ______ ____
ROOT
ATOM      1  N   UNL     1       2.880   7.298  18.936  0.00  0.00    +0.000 N 
ATOM      2  H   UNL     1       3.837   7.655  18.971  0.00  0.00    +0.000 HD
ENDROOT
BRANCH   1   3
ATOM      3  C   UNL     1       1.905   8.023  19.663  0.00  0.00    +0.000 A 
ATOM      4  C   UNL     1       1.666   7.742  21.005  0.00  0.00    +0.000 A 
ATOM      5  C   UNL     1       0.713   8.482  21.698  0.00  0.00    +0.000 A 
ATOM      6  C   UNL     1       0.021   9.509  21.048  0.00  0.00    +0.000 A 
ATOM      7  C   UNL     1       0.267   9.817  19.698  0.00  0.00    +0.000 A 
ATOM      8  C   UNL     1       1.220   9.054  19.009  0.00  0.00    +0.000 A 
BRANCH   7   9
ATOM      9  C   UNL     1      -0.363  11.013  19.130  0.00  0.00    +0.000 A 
ATOM     10  N   UNL     1      -0.151  12.242  19.581  0.00  0.00    +0.000 NA
ATOM     11  N   UNL     1      -0.756  13.104  18.710  0.00  0.00    +0.000 NA
ATOM     12  N   UNL     1      -1.356  12.444  17.735  0.00  0.00    +0.000 NA
ATOM     13  N   UNL     1      -1.184  11.142  18.026  0.00  0.00    +0.000 N 
BRANCH  13  14
ATOM     14  C   UNL     1      -1.846  10.097  17.271  0.00  0.00    +0.000 C 
ATOM     15  C   UNL     1      -2.930  10.435  16.259  0.00  0.00    +0.000 C 
ATOM     16  C   UNL     1      -3.308   9.744  17.523  0.00  0.00    +0.000 C 
ENDBRANCH  13  14
ENDBRANCH   7   9
ENDBRANCH   1   3
BRANCH   1  18
ATOM     17  O   UNL     1       3.667   5.268  20.140  0.00  0.00    +0.000 OA
ATOM     18  S   UNL     1       2.890   5.615  18.969  0.00  0.00    +0.000 S 
ATOM     19  O   UNL     1       1.557   5.077  18.823  0.00  0.00    +0.000 OA
BRANCH  18  20
ATOM     20  C   UNL     1       3.873   5.167  17.545  0.00  0.00    +0.000 A 
ATOM     21  C   UNL     1       4.451   6.241  16.836  0.00  0.00    +0.000 A 
ATOM     22  C   UNL     1       5.384   6.014  15.825  0.00  0.00    +0.000 A 
ATOM     23  C   UNL     1       5.767   4.715  15.525  0.00  0.00    +0.000 A 
ATOM     24  C   UNL     1       5.176   3.647  16.199  0.00  0.00    +0.000 A 
ATOM     25  C   UNL     1       4.195   3.842  17.201  0.00  0.00    +0.000 A 
BRANCH  25  26
ATOM     26  C   UNL     1       3.591   2.577  17.769  0.00  0.00    +0.000 C 
ATOM     27  F   UNL     1       2.280   2.363  17.543  0.00  0.00    +0.000 F 
ATOM     28  F   UNL     1       4.201   1.480  17.212  0.00  0.00    +0.000 F 
ATOM     29  F   UNL     1       3.791   2.458  19.108  0.00  0.00    +0.000 F 
ENDBRANCH  25  26
ENDBRANCH  18  20
ENDBRANCH   1  18
TORSDOF 6
ENDMDL
MODEL 3
REMARK VINA RESULT:      -8.1      4.525      5.961
REMARK  Name = 
REMARK  6 active torsions:
REMARK  status: ('A' for Active; 'I' for Inactive)
REMARK    1  A    between atoms: S_2  and  N_4
REMARK    2  A    between atoms: S_2  and  C_19
REMARK    3  A    between atoms: N_4  and  C_5
REMARK    4  A    between atoms: C_9  and  C_10
REMARK    5  A    between atoms: N_14  and  C_15
REMARK    6  A    between atoms: C_24  and  C_25
REMARK                            x       y       z     vdW  Elec       q    Type
REMARK                         _______ _______ _______ _____ _____    ______ ____
ROOT
ATOM      1  N   UNL     1       2.553   7.815  19.245  0.00  0.00    +0.000 N 
ATOM      2  H   UNL     1       3.339   8.265  19.717  0.00  0.00    +0.000 HD
ENDROOT
BRANCH   1   3
ATOM      3  C   UNL     1       2.836   6.617  18.544  0.00  0.00    +0.000 A 
ATOM      4  C   UNL     1       1.912   5.575  18.519  0.00  0.00    +0.000 A 
ATOM      5  C   UNL     1       2.211   4.416  17.809  0.00  0.00    +0.000 A 
ATOM      6  C   UNL     1       3.419   4.317  17.115  0.00  0.00    +0.000 A 
ATOM      7  C   UNL     1       4.353   5.369  17.114  0.00  0.00    +0.000 A 
ATOM      8  C   UNL     1       4.045   6.525  17.846  0.00  0.00    +0.000 A 
BRANCH   7   9
ATOM      9  C   UNL     1       5.516   5.270  16.228  0.00  0.00    +0.000 A 
ATOM     10  N   UNL     1       5.436   5.280  14.905  0.00  0.00    +0.000 NA
ATOM     11  N   UNL     1       6.713   5.348  14.421  0.00  0.00    +0.000 NA
ATOM     12  N   UNL     1       7.591   5.362  15.410  0.00  0.00    +0.000 NA
ATOM     13  N   UNL     1       6.863   5.237  16.535  0.00  0.00    +0.000 N 
BRANCH  13  14
ATOM     14  C   UNL     1       7.486   5.045  17.829  0.00  0.00    +0.000 C 
ATOM     15  C   UNL     1       6.719   5.325  19.112  0.00  0.00    +0.000 C 
ATOM     16  C   UNL     1       7.835   6.231  18.722  0.00  0.00    +0.000 C 
ENDBRANCH  13  14
ENDBRANCH   7   9
ENDBRANCH   1   3
BRANCH   1  18
ATOM     17  O   UNL     1       2.415  10.072  18.210  0.00  0.00    +0.000 OA
ATOM     18  S   UNL     1       1.540   8.977  18.570  0.00  0.00    +0.000 S 
ATOM     19  O   UNL     1       0.678   8.404  17.562  0.00  0.00    +0.000 OA
BRANCH  18  20
ATOM     20  C   UNL     1       0.553   9.535  19.952  0.00  0.00    +0.000 A 
ATOM     21  C   UNL     1       0.757   8.850  21.168  0.00  0.00    +0.000 A 
ATOM     22  C   UNL     1       0.187   9.311  22.354  0.00  0.00    +0.000 A 
ATOM     23  C   UNL     1      -0.574  10.470  22.345  0.00  0.00    +0.000 A 
ATOM     24  C   UNL     1      -0.807  11.134  21.141  0.00  0.00    +0.000 A 
ATOM     25  C   UNL     1      -0.277  10.670  19.913  0.00  0.00    +0.000 A 
BRANCH  25  26
ATOM     26  C   UNL     1      -0.698  11.454  18.690  0.00  0.00    +0.000 C 
ATOM     27  F   UNL     1      -1.160  10.754  17.635  0.00  0.00    +0.000 F 
ATOM     28  F   UNL     1      -1.742  12.287  19.008  0.00  0.00    +0.000 F 
ATOM     29  F   UNL     1       0.285  12.270  18.229  0.00  0.00    +0.000 F 
ENDBRANCH  25  26
ENDBRANCH  18  20
ENDBRANCH   1  18
TORSDOF 6
ENDMDL
MODEL 4
REMARK VINA RESULT:      -8.0      2.737      4.335
REMARK  Name = 
REMARK  6 active torsions:
REMARK  status: ('A' for Active; 'I' for Inactive)
REMARK    1  A    between atoms: S_2  and  N_4
REMARK    2  A    between atoms: S_2  and  C_19
REMARK    3  A    between atoms: N_4  and  C_5
REMARK    4  A    between atoms: C_9  and  C_10
REMARK    5  A    between atoms: N_14  and  C_15
REMARK    6  A    between atoms: C_24  and  C_25
REMARK                            x       y       z     vdW  Elec       q    Type
REMARK                         _______ _______ _______ _____ _____    ______ ____
ROOT
ATOM      1  N   UNL     1       2.814   5.479  20.982  0.00  0.00    +0.000 N 
ATOM      2  H   UNL     1       2.570   6.010  21.820  0.00  0.00    +0.000 HD
ENDROOT
BRANCH   1   3
ATOM      3  C   UNL     1       2.995   6.221  19.790  0.00  0.00    +0.000 A 
ATOM      4  C   UNL     1       2.027   7.128  19.365  0.00  0.00    +0.000 A 
ATOM      5  C   UNL     1       2.240   7.855  18.198  0.00  0.00    +0.000 A 
ATOM      6  C   UNL     1       3.425   7.684  17.477  0.00  0.00    +0.000 A 
ATOM      7  C   UNL     1       4.420   6.787  17.905  0.00  0.00    +0.000 A 
ATOM      8  C   UNL     1       4.186   6.051  19.075  0.00  0.00    +0.000 A 
BRANCH   7   9
ATOM      9  C   UNL     1       5.706   6.784  17.203  0.00  0.00    +0.000 A 
ATOM     10  N   UNL     1       6.721   7.576  17.522  0.00  0.00    +0.000 NA
ATOM     11  N   UNL     1       7.797   7.177  16.779  0.00  0.00    +0.000 NA
ATOM     12  N   UNL     1       7.475   6.167  15.990  0.00  0.00    +0.000 NA
ATOM     13  N   UNL     1       6.160   5.963  16.188  0.00  0.00    +0.000 N 
BRANCH  13  14
ATOM     14  C   UNL     1       5.400   5.037  15.373  0.00  0.00    +0.000 C 
ATOM     15  C   UNL     1       5.189   3.598  15.819  0.00  0.00    +0.000 C 
ATOM     16  C   UNL     1       6.077   3.874  14.656  0.00  0.00    +0.000 C 
ENDBRANCH  13  14
ENDBRANCH   7   9
ENDBRANCH   1   3
BRANCH   1  18
ATOM     17  O   UNL     1       2.049   3.524  22.317  0.00  0.00    +0.000 OA
ATOM     18  S   UNL     1       1.975   4.019  20.959  0.00  0.00    +0.000 S 
ATOM     19  O   UNL     1       0.682   4.165  20.331  0.00  0.00    +0.000 OA
BRANCH  18  20
ATOM     20  C   UNL     1       3.005   2.952  19.961  0.00  0.00    +0.000 A 
ATOM     21  C   UNL     1       4.060   2.307  20.641  0.00  0.00    +0.000 A 
ATOM     22  C   UNL     1       4.813   1.314  20.017  0.00  0.00    +0.000 A 
ATOM     23  C   UNL     1       4.509   0.937  18.717  0.00  0.00    +0.000 A 
ATOM     24  C   UNL     1       3.489   1.592  18.028  0.00  0.00    +0.000 A 
ATOM     25  C   UNL     1       2.734   2.634  18.619  0.00  0.00    +0.000 A 
BRANCH  25  26
ATOM     26  C   UNL     1       1.727   3.299  17.706  0.00  0.00    +0.000 C 
ATOM     27  F   UNL     1       1.712   4.646  17.679  0.00  0.00    +0.000 F 
ATOM     28  F   UNL     1       1.980   2.950  16.403  0.00  0.00    +0.000 F 
ATOM     29  F   UNL     1       0.454   2.890  17.947  0.00  0.00    +0.000 F 
ENDBRANCH  25  26
ENDBRANCH  18  20
ENDBRANCH   1  18
TORSDOF 6
ENDMDL
MODEL 5
REMARK VINA RESULT:      -8.0      5.131      7.913
REMARK  Name = 
REMARK  6 active torsions:
REMARK  status: ('A' for Active; 'I' for Inactive)
REMARK    1  A    between atoms: S_2  and  N_4
REMARK    2  A    between atoms: S_2  and  C_19
REMARK    3  A    between atoms: N_4  and  C_5
REMARK    4  A    between atoms: C_9  and  C_10
REMARK    5  A    between atoms: N_14  and  C_15
REMARK    6  A    between atoms: C_24  and  C_25
REMARK                            x       y       z     vdW  Elec       q    Type
REMARK                         _______ _______ _______ _____ _____    ______ ____
ROOT
ATOM      1  N   UNL     1       2.954   7.231  19.141  0.00  0.00    +0.000 N 
ATOM      2  H   UNL     1       3.906   7.501  19.396  0.00  0.00    +0.000 HD
ENDROOT
BRANCH   1   3
ATOM      3  C   UNL     1       1.905   7.991  19.714  0.00  0.00    +0.000 A 
ATOM      4  C   UNL     1       1.537   7.802  21.043  0.00  0.00    +0.000 A 
ATOM      5  C   UNL     1       0.512   8.574  21.583  0.00  0.00    +0.000 A 
ATOM      6  C   UNL     1      -0.120   9.540  20.797  0.00  0.00    +0.000 A 
ATOM      7  C   UNL     1       0.256   9.757  19.458  0.00  0.00    +0.000 A 
ATOM      8  C   UNL     1       1.279   8.961  18.923  0.00  0.00    +0.000 A 
BRANCH   7   9
ATOM      9  C   UNL     1      -0.325  10.898  18.746  0.00  0.00    +0.000 A 
ATOM     10  N   UNL     1      -1.469  10.844  18.077  0.00  0.00    +0.000 NA
ATOM     11  N   UNL     1      -1.779  12.120  17.699  0.00  0.00    +0.000 NA
ATOM     12  N   UNL     1      -0.849  12.969  18.100  0.00  0.00    +0.000 NA
ATOM     13  N   UNL     1       0.097  12.213  18.685  0.00  0.00    +0.000 N 
BRANCH  13  14
ATOM     14  C   UNL     1       1.366  12.770  19.109  0.00  0.00    +0.000 C 
ATOM     15  C   UNL     1       1.940  14.003  18.429  0.00  0.00    +0.000 C 
ATOM     16  C   UNL     1       2.603  12.686  18.222  0.00  0.00    +0.000 C 
ENDBRANCH  13  14
ENDBRANCH   7   9
ENDBRANCH   1   3
BRANCH   1  18
ATOM     17  O   UNL     1       3.551   5.058  20.194  0.00  0.00    +0.000 OA
ATOM     18  S   UNL     1       2.835   5.555  19.039  0.00  0.00    +0.000 S 
ATOM     19  O   UNL     1       1.470   5.136  18.822  0.00  0.00    +0.000 OA
BRANCH  18  20
ATOM     20  C   UNL     1       3.820   5.146  17.604  0.00  0.00    +0.000 A 
ATOM     21  C   UNL     1       4.400   6.238  16.925  0.00  0.00    +0.000 A 
ATOM     22  C   UNL     1       5.334   6.038  15.910  0.00  0.00    +0.000 A 
ATOM     23  C   UNL     1       5.716   4.747  15.575  0.00  0.00    +0.000 A 
ATOM     24  C   UNL     1       5.123   3.662  16.219  0.00  0.00    +0.000 A 
ATOM     25  C   UNL     1       4.141   3.830  17.225  0.00  0.00    +0.000 A 
BRANCH  25  26
ATOM     26  C   UNL     1       3.535   2.551  17.758  0.00  0.00    +0.000 C 
ATOM     27  F   UNL     1       4.055   1.389  17.316  0.00  0.00    +0.000 F 
ATOM     28  F   UNL     1       3.707   2.487  19.119  0.00  0.00    +0.000 F 
ATOM     29  F   UNL     1       2.192   2.488  17.562  0.00  0.00    +0.000 F 
ENDBRANCH  25  26
ENDBRANCH  18  20
ENDBRANCH   1  18
TORSDOF 6
ENDMDL
MODEL 6
REMARK VINA RESULT:      -7.8      5.215      7.820
REMARK  Name = 
REMARK  6 active torsions:
REMARK  status: ('A' for Active; 'I' for Inactive)
REMARK    1  A    between atoms: S_2  and  N_4
REMARK    2  A    between atoms: S_2  and  C_19
REMARK    3  A    between atoms: N_4  and  C_5
REMARK    4  A    between atoms: C_9  and  C_10
REMARK    5  A    between atoms: N_14  and  C_15
REMARK    6  A    between atoms: C_24  and  C_25
REMARK                            x       y       z     vdW  Elec       q    Type
REMARK                         _______ _______ _______ _____ _____    ______ ____
ROOT
ATOM      1  N   UNL     1       2.745   7.238  19.687  0.00  0.00    +0.000 N 
ATOM      2  H   UNL     1       3.647   7.387  20.144  0.00  0.00    +0.000 HD
ENDROOT
BRANCH   1   3
ATOM      3  C   UNL     1       1.667   8.041  20.131  0.00  0.00    +0.000 A 
ATOM      4  C   UNL     1       0.945   7.693  21.269  0.00  0.00    +0.000 A 
ATOM      5  C   UNL     1      -0.099   8.511  21.691  0.00  0.00    +0.000 A 
ATOM      6  C   UNL     1      -0.399   9.678  20.984  0.00  0.00    +0.000 A 
ATOM      7  C   UNL     1       0.336  10.053  19.844  0.00  0.00    +0.000 A 
ATOM      8  C   UNL     1       1.375   9.213  19.423  0.00  0.00    +0.000 A 
BRANCH   7   9
ATOM      9  C   UNL     1       0.084  11.371  19.255  0.00  0.00    +0.000 A 
ATOM     10  N   UNL     1       0.907  12.404  19.382  0.00  0.00    +0.000 NA
ATOM     11  N   UNL     1       0.441  13.396  18.565  0.00  0.00    +0.000 NA
ATOM     12  N   UNL     1      -0.661  13.017  17.944  0.00  0.00    +0.000 NA
ATOM     13  N   UNL     1      -0.936  11.789  18.421  0.00  0.00    +0.000 N 
BRANCH  13  14
ATOM     14  C   UNL     1      -2.171  11.103  18.098  0.00  0.00    +0.000 C 
ATOM     15  C   UNL     1      -2.160   9.828  17.269  0.00  0.00    +0.000 C 
ATOM     16  C   UNL     1      -2.712  11.076  16.673  0.00  0.00    +0.000 C 
ENDBRANCH  13  14
ENDBRANCH   7   9
ENDBRANCH   1   3
BRANCH   1  18
ATOM     17  O   UNL     1       3.136   4.919  20.499  0.00  0.00    +0.000 OA
ATOM     18  S   UNL     1       2.516   5.598  19.381  0.00  0.00    +0.000 S 
ATOM     19  O   UNL     1       1.138   5.310  19.057  0.00  0.00    +0.000 OA
BRANCH  18  20
ATOM     20  C   UNL     1       3.543   5.285  17.951  0.00  0.00    +0.000 A 
ATOM     21  C   UNL     1       4.139   6.420  17.362  0.00  0.00    +0.000 A 
ATOM     22  C   UNL     1       5.102   6.288  16.363  0.00  0.00    +0.000 A 
ATOM     23  C   UNL     1       5.497   5.023  15.955  0.00  0.00    +0.000 A 
ATOM     24  C   UNL     1       4.890   3.897  16.509  0.00  0.00    +0.000 A 
ATOM     25  C   UNL     1       3.879   3.998  17.495  0.00  0.00    +0.000 A 
BRANCH  25  26
ATOM     26  C   UNL     1       3.261   2.685  17.926  0.00  0.00    +0.000 C 
ATOM     27  F   UNL     1       3.819   1.555  17.450  0.00  0.00    +0.000 F 
ATOM     28  F   UNL     1       3.362   2.549  19.288  0.00  0.00    +0.000 F 
ATOM     29  F   UNL     1       1.932   2.620  17.655  0.00  0.00    +0.000 F 
ENDBRANCH  25  26
ENDBRANCH  18  20
ENDBRANCH   1  18
TORSDOF 6
ENDMDL
MODEL 7
REMARK VINA RESULT:      -7.8      4.505      5.601
REMARK  Name = 
REMARK  6 active torsions:
REMARK  status: ('A' for Active; 'I' for Inactive)
REMARK    1  A    between atoms: S_2  and  N_4
REMARK    2  A    between atoms: S_2  and  C_19
REMARK    3  A    between atoms: N_4  and  C_5
REMARK    4  A    between atoms: C_9  and  C_10
REMARK    5  A    between atoms: N_14  and  C_15
REMARK    6  A    between atoms: C_24  and  C_25
REMARK                            x       y       z     vdW  Elec       q    Type
REMARK                         _______ _______ _______ _____ _____    ______ ____
ROOT
ATOM      1  N   UNL     1       2.412   7.358  19.678  0.00  0.00    +0.000 N 
ATOM      2  H   UNL     1       3.059   7.712  20.385  0.00  0.00    +0.000 HD
ENDROOT
BRANCH   1   3
ATOM      3  C   UNL     1       2.838   6.228  18.937  0.00  0.00    +0.000 A 
ATOM      4  C   UNL     1       1.908   5.370  18.357  0.00  0.00    +0.000 A 
ATOM      5  C   UNL     1       2.355   4.277  17.621  0.00  0.00    +0.000 A 
ATOM      6  C   UNL     1       3.726   4.063  17.455  0.00  0.00    +0.000 A 
ATOM      7  C   UNL     1       4.677   4.934  18.018  0.00  0.00    +0.000 A 
ATOM      8  C   UNL     1       4.212   6.022  18.769  0.00  0.00    +0.000 A 
BRANCH   7   9
ATOM      9  C   UNL     1       6.087   4.752  17.662  0.00  0.00    +0.000 A 
ATOM     10  N   UNL     1       7.040   4.482  18.544  0.00  0.00    +0.000 NA
ATOM     11  N   UNL     1       8.179   4.208  17.839  0.00  0.00    +0.000 NA
ATOM     12  N   UNL     1       7.966   4.317  16.539  0.00  0.00    +0.000 NA
ATOM     13  N   UNL     1       6.691   4.729  16.419  0.00  0.00    +0.000 N 
BRANCH  13  14
ATOM     14  C   UNL     1       6.133   5.123  15.141  0.00  0.00    +0.000 C 
ATOM     15  C   UNL     1       5.558   4.085  14.189  0.00  0.00    +0.000 C 
ATOM     16  C   UNL     1       6.830   4.771  13.832  0.00  0.00    +0.000 C 
ENDBRANCH  13  14
ENDBRANCH   7   9
ENDBRANCH   1   3
BRANCH   1  18
ATOM     17  O   UNL     1       2.688   9.596  18.628  0.00  0.00    +0.000 OA
ATOM     18  S   UNL     1       1.638   8.639  18.908  0.00  0.00    +0.000 S 
ATOM     19  O   UNL     1       0.801   8.176  17.826  0.00  0.00    +0.000 OA
BRANCH  18  20
ATOM     20  C   UNL     1       0.617   9.352  20.191  0.00  0.00    +0.000 A 
ATOM     21  C   UNL     1       0.689   8.724  21.452  0.00  0.00    +0.000 A 
ATOM     22  C   UNL     1       0.087   9.296  22.572  0.00  0.00    +0.000 A 
ATOM     23  C   UNL     1      -0.575  10.509  22.452  0.00  0.00    +0.000 A 
ATOM     24  C   UNL     1      -0.677  11.119  21.202  0.00  0.00    +0.000 A 
ATOM     25  C   UNL     1      -0.113  10.544  20.038  0.00  0.00    +0.000 A 
BRANCH  25  26
ATOM     26  C   UNL     1      -0.392  11.287  18.750  0.00  0.00    +0.000 C 
ATOM     27  F   UNL     1      -0.940  10.586  17.738  0.00  0.00    +0.000 F 
ATOM     28  F   UNL     1      -1.301  12.290  18.980  0.00  0.00    +0.000 F 
ATOM     29  F   UNL     1       0.711  11.907  18.255  0.00  0.00    +0.000 F 
ENDBRANCH  25  26
ENDBRANCH  18  20
ENDBRANCH   1  18
TORSDOF 6
ENDMDL
MODEL 8
REMARK VINA RESULT:      -7.7      4.362      5.850
REMARK  Name = 
REMARK  6 active torsions:
REMARK  status: ('A' for Active; 'I' for Inactive)
REMARK    1  A    between atoms: S_2  and  N_4
REMARK    2  A    between atoms: S_2  and  C_19
REMARK    3  A    between atoms: N_4  and  C_5
REMARK    4  A    between atoms: C_9  and  C_10
REMARK    5  A    between atoms: N_14  and  C_15
REMARK    6  A    between atoms: C_24  and  C_25
REMARK                            x       y       z     vdW  Elec       q    Type
REMARK                         _______ _______ _______ _____ _____    ______ ____
ROOT
ATOM      1  N   UNL     1       2.246   7.044  19.463  0.00  0.00    +0.000 N 
ATOM      2  H   UNL     1       2.828   7.267  20.272  0.00  0.00    +0.000 HD
ENDROOT
BRANCH   1   3
ATOM      3  C   UNL     1       2.682   5.976  18.641  0.00  0.00    +0.000 A 
ATOM      4  C   UNL     1       1.830   4.916  18.345  0.00  0.00    +0.000 A 
ATOM      5  C   UNL     1       2.281   3.888  17.522  0.00  0.00    +0.000 A 
ATOM      6  C   UNL     1       3.571   3.940  16.987  0.00  0.00    +0.000 A 
ATOM      7  C   UNL     1       4.435   5.016  17.261  0.00  0.00    +0.000 A 
ATOM      8  C   UNL     1       3.973   6.036  18.103  0.00  0.00    +0.000 A 
BRANCH   7   9
ATOM      9  C   UNL     1       5.704   5.094  16.532  0.00  0.00    +0.000 A 
ATOM     10  N   UNL     1       6.056   4.247  15.574  0.00  0.00    +0.000 NA
ATOM     11  N   UNL     1       7.205   4.727  15.009  0.00  0.00    +0.000 NA
ATOM     12  N   UNL     1       7.589   5.844  15.602  0.00  0.00    +0.000 NA
ATOM     13  N   UNL     1       6.708   6.042  16.599  0.00  0.00    +0.000 N 
BRANCH  13  14
ATOM     14  C   UNL     1       6.893   7.087  17.585  0.00  0.00    +0.000 C 
ATOM     15  C   UNL     1       8.048   8.070  17.471  0.00  0.00    +0.000 C 
ATOM     16  C   UNL     1       8.064   7.055  18.561  0.00  0.00    +0.000 C 
ENDBRANCH  13  14
ENDBRANCH   7   9
ENDBRANCH   1   3
BRANCH   1  18
ATOM     17  O   UNL     1       2.813   9.280  18.532  0.00  0.00    +0.000 OA
ATOM     18  S   UNL     1       1.646   8.459  18.774  0.00  0.00    +0.000 S 
ATOM     19  O   UNL     1       0.747   8.172  17.680  0.00  0.00    +0.000 OA
BRANCH  18  20
ATOM     20  C   UNL     1       0.737   9.228  20.107  0.00  0.00    +0.000 A 
ATOM     21  C   UNL     1       0.775   8.554  21.346  0.00  0.00    +0.000 A 
ATOM     22  C   UNL     1       0.264   9.146  22.500  0.00  0.00    +0.000 A 
ATOM     23  C   UNL     1      -0.270  10.425  22.437  0.00  0.00    +0.000 A 
ATOM     24  C   UNL     1      -0.339  11.084  21.210  0.00  0.00    +0.000 A 
ATOM     25  C   UNL     1       0.132  10.495  20.013  0.00  0.00    +0.000 A 
BRANCH  25  26
ATOM     26  C   UNL     1      -0.100  11.306  18.758  0.00  0.00    +0.000 C 
ATOM     27  F   UNL     1      -0.804  10.725  17.766  0.00  0.00    +0.000 F 
ATOM     28  F   UNL     1      -0.829  12.430  19.059  0.00  0.00    +0.000 F 
ATOM     29  F   UNL     1       1.056  11.765  18.211  0.00  0.00    +0.000 F 
ENDBRANCH  25  26
ENDBRANCH  18  20
ENDBRANCH   1  18
TORSDOF 6
ENDMDL
MODEL 9
REMARK VINA RESULT:      -7.7      5.386      6.460
REMARK  Name = 
REMARK  6 active torsions:
REMARK  status: ('A' for Active; 'I' for Inactive)
REMARK    1  A    between atoms: S_2  and  N_4
REMARK    2  A    between atoms: S_2  and  C_19
REMARK    3  A    between atoms: N_4  and  C_5
REMARK    4  A    between atoms: C_9  and  C_10
REMARK    5  A    between atoms: N_14  and  C_15
REMARK    6  A    between atoms: C_24  and  C_25
REMARK                            x       y       z     vdW  Elec       q    Type
REMARK                         _______ _______ _______ _____ _____    ______ ____
ROOT
ATOM      1  N   UNL     1       1.323   8.861  17.689  0.00  0.00    +0.000 N 
ATOM      2  H   UNL     1       0.432   8.556  17.293  0.00  0.00    +0.000 HD
ENDROOT
BRANCH   1   3
ATOM      3  C   UNL     1       2.253   7.845  18.017  0.00  0.00    +0.000 A 
ATOM      4  C   UNL     1       1.881   6.782  18.836  0.00  0.00    +0.000 A 
ATOM      5  C   UNL     1       2.812   5.789  19.128  0.00  0.00    +0.000 A 
ATOM      6  C   UNL     1       4.097   5.857  18.584  0.00  0.00    +0.000 A 
ATOM      7  C   UNL     1       4.480   6.915  17.738  0.00  0.00    +0.000 A 
ATOM      8  C   UNL     1       3.537   7.915  17.464  0.00  0.00    +0.000 A 
BRANCH   7   9
ATOM      9  C   UNL     1       5.779   6.834  17.065  0.00  0.00    +0.000 A 
ATOM     10  N   UNL     1       6.809   7.617  17.357  0.00  0.00    +0.000 NA
ATOM     11  N   UNL     1       7.888   7.144  16.663  0.00  0.00    +0.000 NA
ATOM     12  N   UNL     1       7.554   6.096  15.930  0.00  0.00    +0.000 NA
ATOM     13  N   UNL     1       6.230   5.940  16.112  0.00  0.00    +0.000 N 
BRANCH  13  14
ATOM     14  C   UNL     1       5.460   4.986  15.339  0.00  0.00    +0.000 C 
ATOM     15  C   UNL     1       5.395   3.523  15.748  0.00  0.00    +0.000 C 
ATOM     16  C   UNL     1       6.144   3.899  14.517  0.00  0.00    +0.000 C 
ENDBRANCH  13  14
ENDBRANCH   7   9
ENDBRANCH   1   3
BRANCH   1  18
ATOM     17  O   UNL     1       1.094   9.584  20.057  0.00  0.00    +0.000 OA
ATOM     18  S   UNL     1       1.078  10.161  18.730  0.00  0.00    +0.000 S 
ATOM     19  O   UNL     1       1.973  11.255  18.427  0.00  0.00    +0.000 OA
BRANCH  18  20
ATOM     20  C   UNL     1      -0.606  10.659  18.401  0.00  0.00    +0.000 A 
ATOM     21  C   UNL     1      -1.309   9.869  17.466  0.00  0.00    +0.000 A 
ATOM     22  C   UNL     1      -2.677  10.043  17.266  0.00  0.00    +0.000 A 
ATOM     23  C   UNL     1      -3.365  10.990  18.010  0.00  0.00    +0.000 A 
ATOM     24  C   UNL     1      -2.672  11.796  18.912  0.00  0.00    +0.000 A 
ATOM     25  C   UNL     1      -1.275  11.674  19.108  0.00  0.00    +0.000 A 
BRANCH  25  26
ATOM     26  C   UNL     1      -0.664  12.684  20.055  0.00  0.00    +0.000 C 
ATOM     27  F   UNL     1       0.032  12.206  21.105  0.00  0.00    +0.000 F 
ATOM     28  F   UNL     1       0.251  13.456  19.383  0.00  0.00    +0.000 F 
ATOM     29  F   UNL     1      -1.580  13.558  20.547  0.00  0.00    +0.000 F 
ENDBRANCH  25  26
ENDBRANCH  18  20
ENDBRANCH   1  18
TORSDOF 6
ENDMDL
