MODEL 1
REMARK VINA RESULT:      -7.7      0.000      0.000
REMARK  Name = 
REMARK  8 active torsions:
REMARK  status: ('A' for Active; 'I' for Inactive)
REMARK    1  A    between atoms: C_1  and  C_2
REMARK    2  A    between atoms: N_6  and  C_7
REMARK    3  A    between atoms: C_7  and  C_8
REMARK    4  A    between atoms: C_12  and  N_13
REMARK    5  A    between atoms: C_18  and  C_19
REMARK    6  A    between atoms: C_19  and  C_20
REMARK    7  A    between atoms: C_19  and  O_21
REMARK    8  A    between atoms: C_23  and  C_24
REMARK                            x       y       z     vdW  Elec       q    Type
REMARK                         _______ _______ _______ _____ _____    ______ ____
ROOT
ATOM      1  N   UNL     1      -0.383  11.375  18.419  0.00  0.00    +0.000 N 
ATOM      2  C   UNL     1       0.376  10.571  19.404  0.00  0.00    +0.000 C 
ATOM      3  C   UNL     1      -0.041  11.188  20.706  0.00  0.00    +0.000 A 
ATOM      4  C   UNL     1      -0.369  12.519  20.436  0.00  0.00    +0.000 A 
ATOM      5  C   UNL     1      -0.935  13.359  21.375  0.00  0.00    +0.000 A 
ATOM      6  C   UNL     1      -1.193  12.838  22.652  0.00  0.00    +0.000 A 
ATOM      7  C   UNL     1      -0.888  11.480  22.918  0.00  0.00    +0.000 A 
ATOM      8  C   UNL     1      -0.308  10.631  21.951  0.00  0.00    +0.000 A 
ATOM      9  C   UNL     1      -0.422  12.690  18.969  0.00  0.00    +0.000 C 
ATOM     10  O   UNL     1      -0.669  13.741  18.405  0.00  0.00    +0.000 OA
ENDROOT
BRANCH   1  15
ATOM     11  C   UNL     1      -3.954  11.493  17.741  0.00  0.00    +0.000 A 
ATOM     12  C   UNL     1      -3.953  10.710  16.579  0.00  0.00    +0.000 A 
ATOM     13  C   UNL     1      -2.922   9.807  16.350  0.00  0.00    +0.000 A 
ATOM     14  C   UNL     1      -1.827   9.777  17.205  0.00  0.00    +0.000 A 
ATOM     15  C   UNL     1      -1.692  10.773  18.186  0.00  0.00    +0.000 A 
ATOM     16  C   UNL     1      -2.817  11.510  18.561  0.00  0.00    +0.000 A 
BRANCH  11  17
ATOM     17  C   UNL     1      -5.179  12.276  18.120  0.00  0.00    +0.000 C 
BRANCH  17  23
ATOM     18  C   UNL     1      -5.183  13.352  20.986  0.00  0.00    +0.000 C 
ATOM     19  C   UNL     1      -5.909  12.155  20.526  0.00  0.00    +0.000 A 
ATOM     20  N   UNL     1      -6.680  11.373  21.253  0.00  0.00    +0.000 NA
ATOM     21  N   UNL     1      -7.150  10.363  20.454  0.00  0.00    +0.000 NA
ATOM     22  C   UNL     1      -6.651  10.545  19.245  0.00  0.00    +0.000 A 
ATOM     23  N   UNL     1      -5.886  11.670  19.239  0.00  0.00    +0.000 N 
ENDBRANCH  17  23
ENDBRANCH  11  17
ENDBRANCH   1  15
BRANCH   8  24
ATOM     24  C   UNL     1      -0.108   9.171  22.277  0.00  0.00    +0.000 C 
ATOM     25  F   UNL     1      -0.891   8.327  21.553  0.00  0.00    +0.000 F 
ATOM     26  F   UNL     1       1.172   8.768  22.055  0.00  0.00    +0.000 F 
ATOM     27  F   UNL     1      -0.369   8.888  23.582  0.00  0.00    +0.000 F 
ENDBRANCH   8  24
BRANCH   6  28
ATOM     28  C   UNL     1      -1.826  13.693  23.729  0.00  0.00    +0.000 C 
ATOM     29  C   UNL     1      -1.589  15.176  23.474  0.00  0.00    +0.000 C 
BRANCH  28  30
ATOM     30  O   UNL     1      -3.220  13.414  23.807  0.00  0.00    +0.000 OA
ATOM     31  H   UNL     1      -3.391  12.941  24.637  0.00  0.00    +0.000 HD
ENDBRANCH  28  30
ENDBRANCH   6  28
TORSDOF 6
ENDMDL
MODEL 2
REMARK VINA RESULT:      -7.7      7.362     10.002
REMARK  Name = 
REMARK  8 active torsions:
REMARK  status: ('A' for Active; 'I' for Inactive)
REMARK    1  A    between atoms: C_1  and  C_2
REMARK    2  A    between atoms: N_6  and  C_7
REMARK    3  A    between atoms: C_7  and  C_8
REMARK    4  A    between atoms: C_12  and  N_13
REMARK    5  A    between atoms: C_18  and  C_19
REMARK    6  A    between atoms: C_19  and  C_20
REMARK    7  A    between atoms: C_19  and  O_21
REMARK    8  A    between atoms: C_23  and  C_24
REMARK                            x       y       z     vdW  Elec       q    Type
REMARK                         _______ _______ _______ _____ _____    ______ ____
ROOT
ATOM      1  N   UNL     1       4.038   4.391  19.024  0.00  0.00    +0.000 N 
ATOM      2  C   UNL     1       5.395   4.963  19.184  0.00  0.00    +0.000 C 
ATOM      3  C   UNL     1       5.915   4.944  17.777  0.00  0.00    +0.000 A 
ATOM      4  C   UNL     1       5.268   3.896  17.121  0.00  0.00    +0.000 A 
ATOM      5  C   UNL     1       5.391   3.668  15.764  0.00  0.00    +0.000 A 
ATOM      6  C   UNL     1       6.202   4.540  15.023  0.00  0.00    +0.000 A 
ATOM      7  C   UNL     1       6.836   5.621  15.683  0.00  0.00    +0.000 A 
ATOM      8  C   UNL     1       6.704   5.844  17.070  0.00  0.00    +0.000 A 
ATOM      9  C   UNL     1       4.169   3.420  17.988  0.00  0.00    +0.000 C 
ATOM     10  O   UNL     1       3.419   2.501  17.709  0.00  0.00    +0.000 OA
ENDROOT
BRANCH   1  15
ATOM     11  C   UNL     1       2.170   7.398  19.853  0.00  0.00    +0.000 A 
ATOM     12  C   UNL     1       2.583   8.184  18.768  0.00  0.00    +0.000 A 
ATOM     13  C   UNL     1       3.033   7.577  17.603  0.00  0.00    +0.000 A 
ATOM     14  C   UNL     1       3.199   6.198  17.561  0.00  0.00    +0.000 A 
ATOM     15  C   UNL     1       3.078   5.453  18.746  0.00  0.00    +0.000 A 
ATOM     16  C   UNL     1       2.406   6.016  19.832  0.00  0.00    +0.000 A 
BRANCH  11  17
ATOM     17  C   UNL     1       1.449   8.031  21.009  0.00  0.00    +0.000 C 
BRANCH  17  23
ATOM     18  C   UNL     1      -0.413   9.633  22.837  0.00  0.00    +0.000 C 
ATOM     19  C   UNL     1      -0.198   9.894  21.403  0.00  0.00    +0.000 A 
ATOM     20  N   UNL     1      -0.747  10.852  20.685  0.00  0.00    +0.000 NA
ATOM     21  N   UNL     1      -0.302  10.737  19.394  0.00  0.00    +0.000 NA
ATOM     22  C   UNL     1       0.515   9.700  19.345  0.00  0.00    +0.000 A 
ATOM     23  N   UNL     1       0.628   9.156  20.586  0.00  0.00    +0.000 N 
ENDBRANCH  17  23
ENDBRANCH  11  17
ENDBRANCH   1  15
BRANCH   8  24
ATOM     24  C   UNL     1       7.326   7.076  17.682  0.00  0.00    +0.000 C 
ATOM     25  F   UNL     1       8.211   7.714  16.872  0.00  0.00    +0.000 F 
ATOM     26  F   UNL     1       6.392   8.008  18.016  0.00  0.00    +0.000 F 
ATOM     27  F   UNL     1       8.006   6.801  18.828  0.00  0.00    +0.000 F 
ENDBRANCH   8  24
BRANCH   6  28
ATOM     28  C   UNL     1       6.374   4.363  13.529  0.00  0.00    +0.000 C 
ATOM     29  C   UNL     1       7.652   5.028  13.034  0.00  0.00    +0.000 C 
BRANCH  28  30
ATOM     30  O   UNL     1       6.372   2.976  13.206  0.00  0.00    +0.000 OA
ATOM     31  H   UNL     1       7.110   2.803  12.600  0.00  0.00    +0.000 HD
ENDBRANCH  28  30
ENDBRANCH   6  28
TORSDOF 6
ENDMDL
MODEL 3
REMARK VINA RESULT:      -7.5      0.889      1.137
REMARK  Name = 
REMARK  8 active torsions:
REMARK  status: ('A' for Active; 'I' for Inactive)
REMARK    1  A    between atoms: C_1  and  C_2
REMARK    2  A    between atoms: N_6  and  C_7
REMARK    3  A    between atoms: C_7  and  C_8
REMARK    4  A    between atoms: C_12  and  N_13
REMARK    5  A    between atoms: C_18  and  C_19
REMARK    6  A    between atoms: C_19  and  C_20
REMARK    7  A    between atoms: C_19  and  O_21
REMARK    8  A    between atoms: C_23  and  C_24
REMARK                            x       y       z     vdW  Elec       q    Type
REMARK                         _______ _______ _______ _____ _____    ______ ____
ROOT
ATOM      1  N   UNL     1      -0.678  11.985  19.030  0.00  0.00    +0.000 N 
ATOM      2  C   UNL     1       0.173  11.275  20.012  0.00  0.00    +0.000 C 
ATOM      3  C   UNL     1      -0.522  11.575  21.308  0.00  0.00    +0.000 A 
ATOM      4  C   UNL     1      -1.173  12.799  21.144  0.00  0.00    +0.000 A 
ATOM      5  C   UNL     1      -2.035  13.323  22.087  0.00  0.00    +0.000 A 
ATOM      6  C   UNL     1      -2.264  12.580  23.254  0.00  0.00    +0.000 A 
ATOM      7  C   UNL     1      -1.626  11.324  23.408  0.00  0.00    +0.000 A 
ATOM      8  C   UNL     1      -0.746  10.797  22.439  0.00  0.00    +0.000 A 
ATOM      9  C   UNL     1      -1.128  13.155  19.710  0.00  0.00    +0.000 C 
ATOM     10  O   UNL     1      -1.598  14.175  19.237  0.00  0.00    +0.000 OA
ENDROOT
BRANCH   1  15
ATOM     11  C   UNL     1      -3.980  11.294  17.672  0.00  0.00    +0.000 A 
ATOM     12  C   UNL     1      -3.575  10.557  16.551  0.00  0.00    +0.000 A 
ATOM     13  C   UNL     1      -2.340   9.921  16.548  0.00  0.00    +0.000 A 
ATOM     14  C   UNL     1      -1.455  10.125  17.599  0.00  0.00    +0.000 A 
ATOM     15  C   UNL     1      -1.743  11.104  18.563  0.00  0.00    +0.000 A 
ATOM     16  C   UNL     1      -3.058  11.555  18.695  0.00  0.00    +0.000 A 
BRANCH  11  17
ATOM     17  C   UNL     1      -5.401  11.767  17.787  0.00  0.00    +0.000 C 
BRANCH  17  23
ATOM     18  C   UNL     1      -5.559  13.129  20.524  0.00  0.00    +0.000 C 
ATOM     19  C   UNL     1      -6.156  11.825  20.188  0.00  0.00    +0.000 A 
ATOM     20  N   UNL     1      -6.859  11.050  20.988  0.00  0.00    +0.000 NA
ATOM     21  N   UNL     1      -7.213   9.920  20.297  0.00  0.00    +0.000 NA
ATOM     22  C   UNL     1      -6.714  10.025  19.079  0.00  0.00    +0.000 A 
ATOM     23  N   UNL     1      -6.064  11.214  18.959  0.00  0.00    +0.000 N 
ENDBRANCH  17  23
ENDBRANCH  11  17
ENDBRANCH   1  15
BRANCH   8  24
ATOM     24  C   UNL     1      -0.187   9.409  22.626  0.00  0.00    +0.000 C 
ATOM     25  F   UNL     1       1.070   9.243  22.135  0.00  0.00    +0.000 F 
ATOM     26  F   UNL     1      -0.118   9.057  23.939  0.00  0.00    +0.000 F 
ATOM     27  F   UNL     1      -0.947   8.456  22.023  0.00  0.00    +0.000 F 
ENDBRANCH   8  24
BRANCH   6  28
ATOM     28  C   UNL     1      -3.207  13.082  24.326  0.00  0.00    +0.000 C 
ATOM     29  C   UNL     1      -3.618  14.527  24.074  0.00  0.00    +0.000 C 
BRANCH  28  30
ATOM     30  O   UNL     1      -4.353  12.239  24.391  0.00  0.00    +0.000 OA
ATOM     31  H   UNL     1      -4.498  11.853  23.511  0.00  0.00    +0.000 HD
ENDBRANCH  28  30
ENDBRANCH   6  28
TORSDOF 6
ENDMDL
MODEL 4
REMARK VINA RESULT:      -7.5      7.247      9.902
REMARK  Name = 
REMARK  8 active torsions:
REMARK  status: ('A' for Active; 'I' for Inactive)
REMARK    1  A    between atoms: C_1  and  C_2
REMARK    2  A    between atoms: N_6  and  C_7
REMARK    3  A    between atoms: C_7  and  C_8
REMARK    4  A    between atoms: C_12  and  N_13
REMARK    5  A    between atoms: C_18  and  C_19
REMARK    6  A    between atoms: C_19  and  C_20
REMARK    7  A    between atoms: C_19  and  O_21
REMARK    8  A    between atoms: C_23  and  C_24
REMARK                            x       y       z     vdW  Elec       q    Type
REMARK                         _______ _______ _______ _____ _____    ______ ____
ROOT
ATOM      1  N   UNL     1       3.105   3.928  18.828  0.00  0.00    +0.000 N 
ATOM      2  C   UNL     1       4.475   4.039  19.379  0.00  0.00    +0.000 C 
ATOM      3  C   UNL     1       5.312   4.100  18.136  0.00  0.00    +0.000 A 
ATOM      4  C   UNL     1       4.612   3.413  17.142  0.00  0.00    +0.000 A 
ATOM      5  C   UNL     1       5.014   3.387  15.821  0.00  0.00    +0.000 A 
ATOM      6  C   UNL     1       6.177   4.090  15.474  0.00  0.00    +0.000 A 
ATOM      7  C   UNL     1       6.872   4.811  16.476  0.00  0.00    +0.000 A 
ATOM      8  C   UNL     1       6.453   4.831  17.824  0.00  0.00    +0.000 A 
ATOM      9  C   UNL     1       3.247   3.147  17.643  0.00  0.00    +0.000 C 
ATOM     10  O   UNL     1       2.387   2.551  17.019  0.00  0.00    +0.000 OA
ENDROOT
BRANCH   1  15
ATOM     11  C   UNL     1       2.164   7.277  19.887  0.00  0.00    +0.000 A 
ATOM     12  C   UNL     1       2.897   7.992  18.931  0.00  0.00    +0.000 A 
ATOM     13  C   UNL     1       3.252   7.386  17.732  0.00  0.00    +0.000 A 
ATOM     14  C   UNL     1       2.996   6.034  17.539  0.00  0.00    +0.000 A 
ATOM     15  C   UNL     1       2.542   5.258  18.617  0.00  0.00    +0.000 A 
ATOM     16  C   UNL     1       1.971   5.898  19.718  0.00  0.00    +0.000 A 
BRANCH  11  17
ATOM     17  C   UNL     1       1.561   7.993  21.062  0.00  0.00    +0.000 C 
BRANCH  17  23
ATOM     18  C   UNL     1      -0.312   9.560  22.908  0.00  0.00    +0.000 C 
ATOM     19  C   UNL     1      -0.121   9.821  21.471  0.00  0.00    +0.000 A 
ATOM     20  N   UNL     1      -0.699  10.765  20.757  0.00  0.00    +0.000 NA
ATOM     21  N   UNL     1      -0.267  10.655  19.461  0.00  0.00    +0.000 NA
ATOM     22  C   UNL     1       0.572   9.636  19.405  0.00  0.00    +0.000 A 
ATOM     23  N   UNL     1       0.711   9.099  20.647  0.00  0.00    +0.000 N 
ENDBRANCH  17  23
ENDBRANCH  11  17
ENDBRANCH   1  15
BRANCH   8  24
ATOM     24  C   UNL     1       7.186   5.704  18.812  0.00  0.00    +0.000 C 
ATOM     25  F   UNL     1       8.415   5.239  19.161  0.00  0.00    +0.000 F 
ATOM     26  F   UNL     1       7.390   6.961  18.331  0.00  0.00    +0.000 F 
ATOM     27  F   UNL     1       6.503   5.856  19.978  0.00  0.00    +0.000 F 
ENDBRANCH   8  24
BRANCH   6  28
ATOM     28  C   UNL     1       6.672   4.120  14.044  0.00  0.00    +0.000 C 
ATOM     29  C   UNL     1       5.550   3.814  13.059  0.00  0.00    +0.000 C 
BRANCH  28  30
ATOM     30  O   UNL     1       7.253   5.390  13.763  0.00  0.00    +0.000 OA
ATOM     31  H   UNL     1       6.541   6.007  13.529  0.00  0.00    +0.000 HD
ENDBRANCH  28  30
ENDBRANCH   6  28
TORSDOF 6
ENDMDL
MODEL 5
REMARK VINA RESULT:      -7.4      0.589      1.354
REMARK  Name = 
REMARK  8 active torsions:
REMARK  status: ('A' for Active; 'I' for Inactive)
REMARK    1  A    between atoms: C_1  and  C_2
REMARK    2  A    between atoms: N_6  and  C_7
REMARK    3  A    between atoms: C_7  and  C_8
REMARK    4  A    between atoms: C_12  and  N_13
REMARK    5  A    between atoms: C_18  and  C_19
REMARK    6  A    between atoms: C_19  and  C_20
REMARK    7  A    between atoms: C_19  and  O_21
REMARK    8  A    between atoms: C_23  and  C_24
REMARK                            x       y       z     vdW  Elec       q    Type
REMARK                         _______ _______ _______ _____ _____    ______ ____
ROOT
ATOM      1  N   UNL     1      -0.297  11.422  18.460  0.00  0.00    +0.000 N 
ATOM      2  C   UNL     1       0.445  10.644  19.479  0.00  0.00    +0.000 C 
ATOM      3  C   UNL     1      -0.033  11.262  20.760  0.00  0.00    +0.000 A 
ATOM      4  C   UNL     1      -0.380  12.582  20.467  0.00  0.00    +0.000 A 
ATOM      5  C   UNL     1      -0.999  13.415  21.378  0.00  0.00    +0.000 A 
ATOM      6  C   UNL     1      -1.290  12.899  22.649  0.00  0.00    +0.000 A 
ATOM      7  C   UNL     1      -0.964  11.551  22.938  0.00  0.00    +0.000 A 
ATOM      8  C   UNL     1      -0.331  10.707  21.999  0.00  0.00    +0.000 A 
ATOM      9  C   UNL     1      -0.385  12.740  18.997  0.00  0.00    +0.000 C 
ATOM     10  O   UNL     1      -0.637  13.781  18.417  0.00  0.00    +0.000 OA
ENDROOT
BRANCH   1  15
ATOM     11  C   UNL     1      -3.853  11.452  17.698  0.00  0.00    +0.000 A 
ATOM     12  C   UNL     1      -3.802  10.688  16.524  0.00  0.00    +0.000 A 
ATOM     13  C   UNL     1      -2.741   9.818  16.306  0.00  0.00    +0.000 A 
ATOM     14  C   UNL     1      -1.667   9.805  17.188  0.00  0.00    +0.000 A 
ATOM     15  C   UNL     1      -1.582  10.788  18.187  0.00  0.00    +0.000 A 
ATOM     16  C   UNL     1      -2.736  11.488  18.545  0.00  0.00    +0.000 A 
BRANCH  11  17
ATOM     17  C   UNL     1      -5.107  12.195  18.058  0.00  0.00    +0.000 C 
BRANCH  17  23
ATOM     18  C   UNL     1      -7.036  10.624  19.842  0.00  0.00    +0.000 C 
ATOM     19  C   UNL     1      -6.093  11.654  20.310  0.00  0.00    +0.000 A 
ATOM     20  N   UNL     1      -5.913  12.052  21.553  0.00  0.00    +0.000 NA
ATOM     21  N   UNL     1      -4.962  13.038  21.559  0.00  0.00    +0.000 NA
ATOM     22  C   UNL     1      -4.577  13.229  20.311  0.00  0.00    +0.000 A 
ATOM     23  N   UNL     1      -5.243  12.367  19.497  0.00  0.00    +0.000 N 
ENDBRANCH  17  23
ENDBRANCH  11  17
ENDBRANCH   1  15
BRANCH   8  24
ATOM     24  C   UNL     1      -0.109   9.255  22.344  0.00  0.00    +0.000 C 
ATOM     25  F   UNL     1       1.150   8.809  22.091  0.00  0.00    +0.000 F 
ATOM     26  F   UNL     1      -0.332   9.003  23.663  0.00  0.00    +0.000 F 
ATOM     27  F   UNL     1      -0.940   8.425  21.658  0.00  0.00    +0.000 F 
ENDBRANCH   8  24
BRANCH   6  28
ATOM     28  C   UNL     1      -1.980  13.747  23.696  0.00  0.00    +0.000 C 
ATOM     29  C   UNL     1      -2.145  15.187  23.226  0.00  0.00    +0.000 C 
BRANCH  28  30
ATOM     30  O   UNL     1      -3.244  13.177  24.020  0.00  0.00    +0.000 OA
ATOM     31  H   UNL     1      -3.155  12.691  24.855  0.00  0.00    +0.000 HD
ENDBRANCH  28  30
ENDBRANCH   6  28
TORSDOF 6
ENDMDL
MODEL 6
REMARK VINA RESULT:      -7.4      4.432      7.078
REMARK  Name = 
REMARK  8 active torsions:
REMARK  status: ('A' for Active; 'I' for Inactive)
REMARK    1  A    between atoms: C_1  and  C_2
REMARK    2  A    between atoms: N_6  and  C_7
REMARK    3  A    between atoms: C_7  and  C_8
REMARK    4  A    between atoms: C_12  and  N_13
REMARK    5  A    between atoms: C_18  and  C_19
REMARK    6  A    between atoms: C_19  and  C_20
REMARK    7  A    between atoms: C_19  and  O_21
REMARK    8  A    between atoms: C_23  and  C_24
REMARK                            x       y       z     vdW  Elec       q    Type
REMARK                         _______ _______ _______ _____ _____    ______ ____
ROOT
ATOM      1  N   UNL     1       0.184   8.773  21.160  0.00  0.00    +0.000 N 
ATOM      2  C   UNL     1      -1.007   8.918  20.292  0.00  0.00    +0.000 C 
ATOM      3  C   UNL     1      -1.044  10.398  20.050  0.00  0.00    +0.000 A 
ATOM      4  C   UNL     1      -0.447  11.004  21.158  0.00  0.00    +0.000 A 
ATOM      5  C   UNL     1      -0.174  12.357  21.218  0.00  0.00    +0.000 A 
ATOM      6  C   UNL     1      -0.513  13.146  20.109  0.00  0.00    +0.000 A 
ATOM      7  C   UNL     1      -1.092  12.527  18.973  0.00  0.00    +0.000 A 
ATOM      8  C   UNL     1      -1.367  11.144  18.922  0.00  0.00    +0.000 A 
ATOM      9  C   UNL     1       0.197   9.948  21.967  0.00  0.00    +0.000 C 
ATOM     10  O   UNL     1       0.796  10.146  23.009  0.00  0.00    +0.000 OA
ENDROOT
BRANCH   1  15
ATOM     11  C   UNL     1       2.604   6.758  19.341  0.00  0.00    +0.000 A 
ATOM     12  C   UNL     1       2.466   7.377  18.091  0.00  0.00    +0.000 A 
ATOM     13  C   UNL     1       1.987   8.679  18.010  0.00  0.00    +0.000 A 
ATOM     14  C   UNL     1       1.521   9.316  19.153  0.00  0.00    +0.000 A 
ATOM     15  C   UNL     1       1.377   8.582  20.342  0.00  0.00    +0.000 A 
ATOM     16  C   UNL     1       2.068   7.377  20.479  0.00  0.00    +0.000 A 
BRANCH  11  17
ATOM     17  C   UNL     1       3.352   5.461  19.459  0.00  0.00    +0.000 C 
BRANCH  17  23
ATOM     18  C   UNL     1       0.915   3.830  20.336  0.00  0.00    +0.000 C 
ATOM     19  C   UNL     1       1.624   3.675  19.055  0.00  0.00    +0.000 A 
ATOM     20  N   UNL     1       1.325   2.837  18.084  0.00  0.00    +0.000 NA
ATOM     21  N   UNL     1       2.241   2.995  17.077  0.00  0.00    +0.000 NA
ATOM     22  C   UNL     1       3.092   3.931  17.455  0.00  0.00    +0.000 A 
ATOM     23  N   UNL     1       2.730   4.402  18.678  0.00  0.00    +0.000 N 
ENDBRANCH  17  23
ENDBRANCH  11  17
ENDBRANCH   1  15
BRANCH   8  24
ATOM     24  C   UNL     1      -1.889  10.542  17.641  0.00  0.00    +0.000 C 
ATOM     25  F   UNL     1      -1.046   9.646  17.062  0.00  0.00    +0.000 F 
ATOM     26  F   UNL     1      -3.062   9.877  17.828  0.00  0.00    +0.000 F 
ATOM     27  F   UNL     1      -2.139  11.481  16.689  0.00  0.00    +0.000 F 
ENDBRANCH   8  24
BRANCH   6  28
ATOM     28  C   UNL     1      -0.232  14.633  20.095  0.00  0.00    +0.000 C 
ATOM     29  C   UNL     1       1.080  14.945  19.387  0.00  0.00    +0.000 C 
BRANCH  28  30
ATOM     30  O   UNL     1      -1.313  15.320  19.474  0.00  0.00    +0.000 OA
ATOM     31  H   UNL     1      -1.478  14.912  18.609  0.00  0.00    +0.000 HD
ENDBRANCH  28  30
ENDBRANCH   6  28
TORSDOF 6
ENDMDL
MODEL 7
REMARK VINA RESULT:      -7.3      4.367      7.033
REMARK  Name = 
REMARK  8 active torsions:
REMARK  status: ('A' for Active; 'I' for Inactive)
REMARK    1  A    between atoms: C_1  and  C_2
REMARK    2  A    between atoms: N_6  and  C_7
REMARK    3  A    between atoms: C_7  and  C_8
REMARK    4  A    between atoms: C_12  and  N_13
REMARK    5  A    between atoms: C_18  and  C_19
REMARK    6  A    between atoms: C_19  and  C_20
REMARK    7  A    between atoms: C_19  and  O_21
REMARK    8  A    between atoms: C_23  and  C_24
REMARK                            x       y       z     vdW  Elec       q    Type
REMARK                         _______ _______ _______ _____ _____    ______ ____
ROOT
ATOM      1  N   UNL     1       0.102   9.084  20.935  0.00  0.00    +0.000 N 
ATOM      2  C   UNL     1      -1.084   9.084  20.048  0.00  0.00    +0.000 C 
ATOM      3  C   UNL     1      -1.158  10.520  19.620  0.00  0.00    +0.000 A 
ATOM      4  C   UNL     1      -0.589  11.278  20.645  0.00  0.00    +0.000 A 
ATOM      5  C   UNL     1      -0.354  12.635  20.535  0.00  0.00    +0.000 A 
ATOM      6  C   UNL     1      -0.702  13.266  19.332  0.00  0.00    +0.000 A 
ATOM      7  C   UNL     1      -1.253  12.493  18.280  0.00  0.00    +0.000 A 
ATOM      8  C   UNL     1      -1.490  11.107  18.403  0.00  0.00    +0.000 A 
ATOM      9  C   UNL     1       0.075  10.352  21.586  0.00  0.00    +0.000 C 
ATOM     10  O   UNL     1       0.657  10.698  22.599  0.00  0.00    +0.000 OA
ENDROOT
BRANCH   1  15
ATOM     11  C   UNL     1       2.521   6.923  19.290  0.00  0.00    +0.000 A 
ATOM     12  C   UNL     1       2.422   7.471  18.004  0.00  0.00    +0.000 A 
ATOM     13  C   UNL     1       1.970   8.774  17.837  0.00  0.00    +0.000 A 
ATOM     14  C   UNL     1       1.492   9.485  18.931  0.00  0.00    +0.000 A 
ATOM     15  C   UNL     1       1.308   8.824  20.156  0.00  0.00    +0.000 A 
ATOM     16  C   UNL     1       1.972   7.617  20.378  0.00  0.00    +0.000 A 
BRANCH  11  17
ATOM     17  C   UNL     1       3.241   5.622  19.500  0.00  0.00    +0.000 C 
BRANCH  17  23
ATOM     18  C   UNL     1       0.833   3.937  20.356  0.00  0.00    +0.000 C 
ATOM     19  C   UNL     1       1.562   3.793  19.084  0.00  0.00    +0.000 A 
ATOM     20  N   UNL     1       1.295   2.943  18.113  0.00  0.00    +0.000 NA
ATOM     21  N   UNL     1       2.220   3.118  17.117  0.00  0.00    +0.000 NA
ATOM     22  C   UNL     1       3.043   4.076  17.500  0.00  0.00    +0.000 A 
ATOM     23  N   UNL     1       2.655   4.544  18.717  0.00  0.00    +0.000 N 
ENDBRANCH  17  23
ENDBRANCH  11  17
ENDBRANCH   1  15
BRANCH   8  24
ATOM     24  C   UNL     1      -1.982  10.333  17.205  0.00  0.00    +0.000 C 
ATOM     25  F   UNL     1      -2.253  11.103  16.118  0.00  0.00    +0.000 F 
ATOM     26  F   UNL     1      -1.075   9.408  16.786  0.00  0.00    +0.000 F 
ATOM     27  F   UNL     1      -3.126   9.644  17.465  0.00  0.00    +0.000 F 
ENDBRANCH   8  24
BRANCH   6  28
ATOM     28  C   UNL     1      -0.461  14.747  19.131  0.00  0.00    +0.000 C 
ATOM     29  C   UNL     1      -1.173  15.576  20.192  0.00  0.00    +0.000 C 
BRANCH  28  30
ATOM     30  O   UNL     1       0.938  15.012  19.142  0.00  0.00    +0.000 OA
ATOM     31  H   UNL     1       1.143  15.539  19.932  0.00  0.00    +0.000 HD
ENDBRANCH  28  30
ENDBRANCH   6  28
TORSDOF 6
ENDMDL
MODEL 8
REMARK VINA RESULT:      -7.3      7.061      9.725
REMARK  Name = 
REMARK  8 active torsions:
REMARK  status: ('A' for Active; 'I' for Inactive)
REMARK    1  A    between atoms: C_1  and  C_2
REMARK    2  A    between atoms: N_6  and  C_7
REMARK    3  A    between atoms: C_7  and  C_8
REMARK    4  A    between atoms: C_12  and  N_13
REMARK    5  A    between atoms: C_18  and  C_19
REMARK    6  A    between atoms: C_19  and  C_20
REMARK    7  A    between atoms: C_19  and  O_21
REMARK    8  A    between atoms: C_23  and  C_24
REMARK                            x       y       z     vdW  Elec       q    Type
REMARK                         _______ _______ _______ _____ _____    ______ ____
ROOT
ATOM      1  N   UNL     1       3.819   5.000  19.181  0.00  0.00    +0.000 N 
ATOM      2  C   UNL     1       5.195   5.523  19.347  0.00  0.00    +0.000 C 
ATOM      3  C   UNL     1       5.803   5.247  18.004  0.00  0.00    +0.000 A 
ATOM      4  C   UNL     1       5.137   4.138  17.479  0.00  0.00    +0.000 A 
ATOM      5  C   UNL     1       5.335   3.685  16.189  0.00  0.00    +0.000 A 
ATOM      6  C   UNL     1       6.244   4.381  15.380  0.00  0.00    +0.000 A 
ATOM      7  C   UNL     1       6.899   5.523  15.903  0.00  0.00    +0.000 A 
ATOM      8  C   UNL     1       6.691   5.978  17.223  0.00  0.00    +0.000 A 
ATOM      9  C   UNL     1       3.958   3.867  18.327  0.00  0.00    +0.000 C 
ATOM     10  O   UNL     1       3.172   2.953  18.145  0.00  0.00    +0.000 OA
ENDROOT
BRANCH   1  15
ATOM     11  C   UNL     1       1.993   8.136  19.421  0.00  0.00    +0.000 A 
ATOM     12  C   UNL     1       2.568   8.776  18.314  0.00  0.00    +0.000 A 
ATOM     13  C   UNL     1       3.131   8.023  17.291  0.00  0.00    +0.000 A 
ATOM     14  C   UNL     1       3.242   6.645  17.428  0.00  0.00    +0.000 A 
ATOM     15  C   UNL     1       2.946   6.049  18.665  0.00  0.00    +0.000 A 
ATOM     16  C   UNL     1       2.171   6.755  19.587  0.00  0.00    +0.000 A 
BRANCH  11  17
ATOM     17  C   UNL     1       1.164   8.921  20.397  0.00  0.00    +0.000 C 
BRANCH  17  23
ATOM     18  C   UNL     1       1.449  11.955  20.692  0.00  0.00    +0.000 C 
ATOM     19  C   UNL     1       0.459  11.273  19.841  0.00  0.00    +0.000 A 
ATOM     20  N   UNL     1      -0.442  11.842  19.066  0.00  0.00    +0.000 NA
ATOM     21  N   UNL     1      -1.178  10.859  18.460  0.00  0.00    +0.000 NA
ATOM     22  C   UNL     1      -0.713   9.696  18.880  0.00  0.00    +0.000 A 
ATOM     23  N   UNL     1       0.328   9.907  19.729  0.00  0.00    +0.000 N 
ENDBRANCH  17  23
ENDBRANCH  11  17
ENDBRANCH   1  15
BRANCH   8  24
ATOM     24  C   UNL     1       7.345   7.261  17.673  0.00  0.00    +0.000 C 
ATOM     25  F   UNL     1       8.063   7.147  18.822  0.00  0.00    +0.000 F 
ATOM     26  F   UNL     1       8.212   7.747  16.743  0.00  0.00    +0.000 F 
ATOM     27  F   UNL     1       6.443   8.254  17.899  0.00  0.00    +0.000 F 
ENDBRANCH   8  24
BRANCH   6  28
ATOM     28  C   UNL     1       6.503   3.953  13.951  0.00  0.00    +0.000 C 
ATOM     29  C   UNL     1       5.201   3.770  13.180  0.00  0.00    +0.000 C 
BRANCH  28  30
ATOM     30  O   UNL     1       7.338   4.909  13.306  0.00  0.00    +0.000 OA
ATOM     31  H   UNL     1       6.942   5.788  13.424  0.00  0.00    +0.000 HD
ENDBRANCH  28  30
ENDBRANCH   6  28
TORSDOF 6
ENDMDL
MODEL 9
REMARK VINA RESULT:      -7.3      7.225      9.964
REMARK  Name = 
REMARK  8 active torsions:
REMARK  status: ('A' for Active; 'I' for Inactive)
REMARK    1  A    between atoms: C_1  and  C_2
REMARK    2  A    between atoms: N_6  and  C_7
REMARK    3  A    between atoms: C_7  and  C_8
REMARK    4  A    between atoms: C_12  and  N_13
REMARK    5  A    between atoms: C_18  and  C_19
REMARK    6  A    between atoms: C_19  and  C_20
REMARK    7  A    between atoms: C_19  and  O_21
REMARK    8  A    between atoms: C_23  and  C_24
REMARK                            x       y       z     vdW  Elec       q    Type
REMARK                         _______ _______ _______ _____ _____    ______ ____
ROOT
ATOM      1  N   UNL     1       4.112   4.757  19.196  0.00  0.00    +0.000 N 
ATOM      2  C   UNL     1       5.449   5.377  19.344  0.00  0.00    +0.000 C 
ATOM      3  C   UNL     1       6.033   5.200  17.973  0.00  0.00    +0.000 A 
ATOM      4  C   UNL     1       5.435   4.065  17.422  0.00  0.00    +0.000 A 
ATOM      5  C   UNL     1       5.624   3.678  16.110  0.00  0.00    +0.000 A 
ATOM      6  C   UNL     1       6.452   4.472  15.303  0.00  0.00    +0.000 A 
ATOM      7  C   UNL     1       7.036   5.640  15.853  0.00  0.00    +0.000 A 
ATOM      8  C   UNL     1       6.837   6.026  17.196  0.00  0.00    +0.000 A 
ATOM      9  C   UNL     1       4.307   3.671  18.293  0.00  0.00    +0.000 C 
ATOM     10  O   UNL     1       3.586   2.709  18.096  0.00  0.00    +0.000 OA
ENDROOT
BRANCH   1  15
ATOM     11  C   UNL     1       1.838   7.550  19.700  0.00  0.00    +0.000 A 
ATOM     12  C   UNL     1       2.411   8.432  18.774  0.00  0.00    +0.000 A 
ATOM     13  C   UNL     1       3.167   7.936  17.718  0.00  0.00    +0.000 A 
ATOM     14  C   UNL     1       3.463   6.580  17.658  0.00  0.00    +0.000 A 
ATOM     15  C   UNL     1       3.146   5.756  18.750  0.00  0.00    +0.000 A 
ATOM     16  C   UNL     1       2.198   6.195  19.675  0.00  0.00    +0.000 A 
BRANCH  11  17
ATOM     17  C   UNL     1       0.820   8.051  20.684  0.00  0.00    +0.000 C 
BRANCH  17  23
ATOM     18  C   UNL     1      -0.932   9.834  18.918  0.00  0.00    +0.000 C 
ATOM     19  C   UNL     1      -0.011  10.315  19.962  0.00  0.00    +0.000 A 
ATOM     20  N   UNL     1       0.198  11.567  20.315  0.00  0.00    +0.000 NA
ATOM     21  N   UNL     1       1.143  11.586  21.307  0.00  0.00    +0.000 NA
ATOM     22  C   UNL     1       1.500  10.337  21.543  0.00  0.00    +0.000 A 
ATOM     23  N   UNL     1       0.786   9.505  20.738  0.00  0.00    +0.000 N 
ENDBRANCH  17  23
ENDBRANCH  11  17
ENDBRANCH   1  15
BRANCH   8  24
ATOM     24  C   UNL     1       7.408   7.337  17.680  0.00  0.00    +0.000 C 
ATOM     25  F   UNL     1       6.472   8.287  17.946  0.00  0.00    +0.000 F 
ATOM     26  F   UNL     1       8.122   7.191  18.828  0.00  0.00    +0.000 F 
ATOM     27  F   UNL     1       8.258   7.898  16.778  0.00  0.00    +0.000 F 
ENDBRANCH   8  24
BRANCH   6  28
ATOM     28  C   UNL     1       6.695   4.121  13.851  0.00  0.00    +0.000 C 
ATOM     29  C   UNL     1       5.390   3.827  13.123  0.00  0.00    +0.000 C 
BRANCH  28  30
ATOM     30  O   UNL     1       7.399   5.181  13.212  0.00  0.00    +0.000 OA
ATOM     31  H   UNL     1       8.329   4.917  13.119  0.00  0.00    +0.000 HD
ENDBRANCH  28  30
ENDBRANCH   6  28
TORSDOF 6
ENDMDL
