MODEL 1
REMARK VINA RESULT:      -8.3      0.000      0.000
REMARK  Name = 
REMARK  3 active torsions:
REMARK  status: ('A' for Active; 'I' for Inactive)
REMARK    1  A    between atoms: S_2  and  N_4
REMARK    2  A    between atoms: S_2  and  C_14
REMARK    3  A    between atoms: N_4  and  C_5
REMARK                            x       y       z     vdW  Elec       q    Type
REMARK                         _______ _______ _______ _____ _____    ______ ____
ROOT
ATOM      1  O   UNL     1       2.265   2.964  16.702  0.00  0.00    +0.000 OA
ATOM      2  S   UNL     1       2.730   2.842  18.068  0.00  0.00    +0.000 S 
ATOM      3  O   UNL     1       2.219   1.805  18.943  0.00  0.00    +0.000 OA
ENDROOT
BRANCH   2   4
ATOM      4  C   UNL     1       2.447   4.417  18.857  0.00  0.00    +0.000 A 
ATOM      5  C   UNL     1       2.138   4.471  20.216  0.00  0.00    +0.000 A 
ATOM      6  C   UNL     1       1.835   5.700  20.804  0.00  0.00    +0.000 A 
ATOM      7  C   UNL     1       1.816   6.878  20.038  0.00  0.00    +0.000 A 
ATOM      8  C   UNL     1       2.105   6.818  18.663  0.00  0.00    +0.000 A 
ATOM      9  C   UNL     1       2.433   5.582  18.080  0.00  0.00    +0.000 A 
ATOM     10  C   UNL     1       2.106   8.059  17.801  0.00  0.00    +0.000 C 
ATOM     11  C   UNL     1       1.360   9.235  18.428  0.00  0.00    +0.000 C 
ATOM     12  C   UNL     1       1.767   9.410  19.886  0.00  0.00    +0.000 C 
ATOM     13  C   UNL     1       1.388   8.171  20.694  0.00  0.00    +0.000 C 
ENDBRANCH   2   4
BRANCH   2  14
ATOM     14  N   UNL     1       4.417   2.734  17.978  0.00  0.00    +0.000 N 
ATOM     15  H   UNL     1       4.716   1.850  17.569  0.00  0.00    +0.000 HD
BRANCH  14  16
ATOM     16  C   UNL     1       5.145   3.898  17.604  0.00  0.00    +0.000 A 
ATOM     17  C   UNL     1       5.094   4.324  16.275  0.00  0.00    +0.000 A 
ATOM     18  C   UNL     1       5.841   5.423  15.837  0.00  0.00    +0.000 A 
ATOM     19  C   UNL     1       6.652   6.051  16.786  0.00  0.00    +0.000 A 
ATOM     20  N   UNL     1       7.514   7.112  16.687  0.00  0.00    +0.000 N 
ATOM     21  N   UNL     1       8.131   7.424  17.841  0.00  0.00    +0.000 NA
ATOM     22  C   UNL     1       7.645   6.531  18.706  0.00  0.00    +0.000 A 
ATOM     23  C   UNL     1       6.720   5.645  18.113  0.00  0.00    +0.000 A 
ATOM     24  C   UNL     1       5.946   4.553  18.544  0.00  0.00    +0.000 A 
ATOM     25  H   UNL     1       7.731   7.659  15.862  0.00  0.00    +0.000 HD
ENDBRANCH  14  16
ENDBRANCH   2  14
TORSDOF 3
ENDMDL
MODEL 2
REMARK VINA RESULT:      -8.2      1.094      1.818
REMARK  Name = 
REMARK  3 active torsions:
REMARK  status: ('A' for Active; 'I' for Inactive)
REMARK    1  A    between atoms: S_2  and  N_4
REMARK    2  A    between atoms: S_2  and  C_14
REMARK    3  A    between atoms: N_4  and  C_5
REMARK                            x       y       z     vdW  Elec       q    Type
REMARK                         _______ _______ _______ _____ _____    ______ ____
ROOT
ATOM      1  O   UNL     1       2.626   3.357  17.718  0.00  0.00    +0.000 OA
ATOM      2  S   UNL     1       2.758   3.529  19.150  0.00  0.00    +0.000 S 
ATOM      3  O   UNL     1       2.018   2.693  20.075  0.00  0.00    +0.000 OA
ENDROOT
BRANCH   2   4
ATOM      4  C   UNL     1       2.365   5.232  19.509  0.00  0.00    +0.000 A 
ATOM      5  C   UNL     1       1.789   5.571  20.733  0.00  0.00    +0.000 A 
ATOM      6  C   UNL     1       1.406   6.892  20.970  0.00  0.00    +0.000 A 
ATOM      7  C   UNL     1       1.574   7.878  19.983  0.00  0.00    +0.000 A 
ATOM      8  C   UNL     1       2.134   7.528  18.740  0.00  0.00    +0.000 A 
ATOM      9  C   UNL     1       2.539   6.202  18.515  0.00  0.00    +0.000 A 
ATOM     10  C   UNL     1       2.343   8.554  17.652  0.00  0.00    +0.000 C 
ATOM     11  C   UNL     1       1.517   9.825  17.848  0.00  0.00    +0.000 C 
ATOM     12  C   UNL     1       1.626  10.316  19.285  0.00  0.00    +0.000 C 
ATOM     13  C   UNL     1       1.058   9.273  20.246  0.00  0.00    +0.000 C 
ENDBRANCH   2   4
BRANCH   2  14
ATOM     14  N   UNL     1       4.415   3.420  19.482  0.00  0.00    +0.000 N 
ATOM     15  H   UNL     1       4.683   2.475  19.752  0.00  0.00    +0.000 HD
BRANCH  14  16
ATOM     16  C   UNL     1       5.316   4.131  18.640  0.00  0.00    +0.000 A 
ATOM     17  C   UNL     1       5.991   5.237  19.160  0.00  0.00    +0.000 A 
ATOM     18  C   UNL     1       6.839   6.011  18.361  0.00  0.00    +0.000 A 
ATOM     19  C   UNL     1       6.952   5.637  17.020  0.00  0.00    +0.000 A 
ATOM     20  N   UNL     1       7.658   6.184  15.979  0.00  0.00    +0.000 N 
ATOM     21  N   UNL     1       7.506   5.530  14.812  0.00  0.00    +0.000 NA
ATOM     22  C   UNL     1       6.674   4.533  15.120  0.00  0.00    +0.000 A 
ATOM     23  C   UNL     1       6.290   4.542  16.478  0.00  0.00    +0.000 A 
ATOM     24  C   UNL     1       5.460   3.759  17.300  0.00  0.00    +0.000 A 
ATOM     25  H   UNL     1       8.253   7.003  15.997  0.00  0.00    +0.000 HD
ENDBRANCH  14  16
ENDBRANCH   2  14
TORSDOF 3
ENDMDL
MODEL 3
REMARK VINA RESULT:      -8.1      5.225      7.943
REMARK  Name = 
REMARK  3 active torsions:
REMARK  status: ('A' for Active; 'I' for Inactive)
REMARK    1  A    between atoms: S_2  and  N_4
REMARK    2  A    between atoms: S_2  and  C_14
REMARK    3  A    between atoms: N_4  and  C_5
REMARK                            x       y       z     vdW  Elec       q    Type
REMARK                         _______ _______ _______ _____ _____    ______ ____
ROOT
ATOM      1  O   UNL     1       1.774   9.304  22.402  0.00  0.00    +0.000 OA
ATOM      2  S   UNL     1       0.883   9.026  21.294  0.00  0.00    +0.000 S 
ATOM      3  O   UNL     1      -0.532   8.795  21.511  0.00  0.00    +0.000 OA
ENDROOT
BRANCH   2   4
ATOM      4  C   UNL     1       1.547   7.611  20.434  0.00  0.00    +0.000 A 
ATOM      5  C   UNL     1       2.200   7.780  19.213  0.00  0.00    +0.000 A 
ATOM      6  C   UNL     1       2.640   6.659  18.507  0.00  0.00    +0.000 A 
ATOM      7  C   UNL     1       2.414   5.363  19.002  0.00  0.00    +0.000 A 
ATOM      8  C   UNL     1       1.733   5.194  20.222  0.00  0.00    +0.000 A 
ATOM      9  C   UNL     1       1.314   6.327  20.940  0.00  0.00    +0.000 A 
ATOM     10  C   UNL     1       1.476   3.822  20.798  0.00  0.00    +0.000 C 
ATOM     11  C   UNL     1       1.603   2.698  19.771  0.00  0.00    +0.000 C 
ATOM     12  C   UNL     1       2.873   2.869  18.947  0.00  0.00    +0.000 C 
ATOM     13  C   UNL     1       2.820   4.177  18.159  0.00  0.00    +0.000 C 
ENDBRANCH   2   4
BRANCH   2  14
ATOM     14  N   UNL     1       1.092  10.298  20.197  0.00  0.00    +0.000 N 
ATOM     15  H   UNL     1       1.952  10.193  19.660  0.00  0.00    +0.000 HD
BRANCH  14  16
ATOM     16  C   UNL     1      -0.051  10.777  19.498  0.00  0.00    +0.000 A 
ATOM     17  C   UNL     1      -0.785  11.828  20.050  0.00  0.00    +0.000 A 
ATOM     18  C   UNL     1      -1.954  12.296  19.441  0.00  0.00    +0.000 A 
ATOM     19  C   UNL     1      -2.357  11.643  18.273  0.00  0.00    +0.000 A 
ATOM     20  N   UNL     1      -3.446  11.825  17.458  0.00  0.00    +0.000 N 
ATOM     21  N   UNL     1      -3.492  10.981  16.411  0.00  0.00    +0.000 NA
ATOM     22  C   UNL     1      -2.395  10.235  16.564  0.00  0.00    +0.000 A 
ATOM     23  C   UNL     1      -1.645  10.594  17.704  0.00  0.00    +0.000 A 
ATOM     24  C   UNL     1      -0.459  10.151  18.316  0.00  0.00    +0.000 A 
ATOM     25  H   UNL     1      -4.194  12.500  17.566  0.00  0.00    +0.000 HD
ENDBRANCH  14  16
ENDBRANCH   2  14
TORSDOF 3
ENDMDL
MODEL 4
REMARK VINA RESULT:      -8.1      1.292      2.430
REMARK  Name = 
REMARK  3 active torsions:
REMARK  status: ('A' for Active; 'I' for Inactive)
REMARK    1  A    between atoms: S_2  and  N_4
REMARK    2  A    between atoms: S_2  and  C_14
REMARK    3  A    between atoms: N_4  and  C_5
REMARK                            x       y       z     vdW  Elec       q    Type
REMARK                         _______ _______ _______ _____ _____    ______ ____
ROOT
ATOM      1  O   UNL     1       2.933   2.827  18.342  0.00  0.00    +0.000 OA
ATOM      2  S   UNL     1       3.082   3.534  19.597  0.00  0.00    +0.000 S 
ATOM      3  O   UNL     1       2.424   3.068  20.801  0.00  0.00    +0.000 OA
ENDROOT
BRANCH   2   4
ATOM      4  C   UNL     1       2.575   5.220  19.308  0.00  0.00    +0.000 A 
ATOM      5  C   UNL     1       2.824   5.822  18.075  0.00  0.00    +0.000 A 
ATOM      6  C   UNL     1       2.501   7.167  17.888  0.00  0.00    +0.000 A 
ATOM      7  C   UNL     1       1.948   7.926  18.934  0.00  0.00    +0.000 A 
ATOM      8  C   UNL     1       1.720   7.322  20.185  0.00  0.00    +0.000 A 
ATOM      9  C   UNL     1       2.024   5.962  20.360  0.00  0.00    +0.000 A 
ATOM     10  C   UNL     1       1.119   8.095  21.335  0.00  0.00    +0.000 C 
ATOM     11  C   UNL     1       1.209   9.610  21.164  0.00  0.00    +0.000 C 
ATOM     12  C   UNL     1       0.773  10.016  19.762  0.00  0.00    +0.000 C 
ATOM     13  C   UNL     1       1.704   9.401  18.719  0.00  0.00    +0.000 C 
ENDBRANCH   2   4
BRANCH   2  14
ATOM     14  N   UNL     1       4.749   3.657  19.867  0.00  0.00    +0.000 N 
ATOM     15  H   UNL     1       5.122   2.816  20.306  0.00  0.00    +0.000 HD
BRANCH  14  16
ATOM     16  C   UNL     1       5.549   4.269  18.862  0.00  0.00    +0.000 A 
ATOM     17  C   UNL     1       6.249   5.435  19.177  0.00  0.00    +0.000 A 
ATOM     18  C   UNL     1       6.998   6.115  18.210  0.00  0.00    +0.000 A 
ATOM     19  C   UNL     1       6.989   5.582  16.919  0.00  0.00    +0.000 A 
ATOM     20  N   UNL     1       7.578   6.005  15.755  0.00  0.00    +0.000 N 
ATOM     21  N   UNL     1       7.327   5.214  14.696  0.00  0.00    +0.000 NA
ATOM     22  C   UNL     1       6.550   4.253  15.202  0.00  0.00    +0.000 A 
ATOM     23  C   UNL     1       6.299   4.423  16.581  0.00  0.00    +0.000 A 
ATOM     24  C   UNL     1       5.570   3.738  17.568  0.00  0.00    +0.000 A 
ATOM     25  H   UNL     1       8.155   6.826  15.616  0.00  0.00    +0.000 HD
ENDBRANCH  14  16
ENDBRANCH   2  14
TORSDOF 3
ENDMDL
MODEL 5
REMARK VINA RESULT:      -8.1      3.390      6.216
REMARK  Name = 
REMARK  3 active torsions:
REMARK  status: ('A' for Active; 'I' for Inactive)
REMARK    1  A    between atoms: S_2  and  N_4
REMARK    2  A    between atoms: S_2  and  C_14
REMARK    3  A    between atoms: N_4  and  C_5
REMARK                            x       y       z     vdW  Elec       q    Type
REMARK                         _______ _______ _______ _____ _____    ______ ____
ROOT
ATOM      1  O   UNL     1       2.452   4.353  21.670  0.00  0.00    +0.000 OA
ATOM      2  S   UNL     1       1.943   5.157  20.578  0.00  0.00    +0.000 S 
ATOM      3  O   UNL     1       0.575   5.019  20.122  0.00  0.00    +0.000 OA
ENDROOT
BRANCH   2   4
ATOM      4  C   UNL     1       3.021   4.882  19.183  0.00  0.00    +0.000 A 
ATOM      5  C   UNL     1       2.534   4.249  18.040  0.00  0.00    +0.000 A 
ATOM      6  C   UNL     1       3.406   3.961  16.988  0.00  0.00    +0.000 A 
ATOM      7  C   UNL     1       4.771   4.283  17.078  0.00  0.00    +0.000 A 
ATOM      8  C   UNL     1       5.264   4.900  18.242  0.00  0.00    +0.000 A 
ATOM      9  C   UNL     1       4.378   5.209  19.288  0.00  0.00    +0.000 A 
ATOM     10  C   UNL     1       6.722   5.273  18.380  0.00  0.00    +0.000 C 
ATOM     11  C   UNL     1       7.632   4.545  17.393  0.00  0.00    +0.000 C 
ATOM     12  C   UNL     1       7.042   4.588  15.990  0.00  0.00    +0.000 C 
ATOM     13  C   UNL     1       5.696   3.866  15.958  0.00  0.00    +0.000 C 
ENDBRANCH   2   4
BRANCH   2  14
ATOM     14  N   UNL     1       2.243   6.768  21.006  0.00  0.00    +0.000 N 
ATOM     15  H   UNL     1       3.203   6.901  21.319  0.00  0.00    +0.000 HD
BRANCH  14  16
ATOM     16  C   UNL     1       1.680   7.793  20.196  0.00  0.00    +0.000 A 
ATOM     17  C   UNL     1       2.149   7.952  18.890  0.00  0.00    +0.000 A 
ATOM     18  C   UNL     1       1.679   8.984  18.071  0.00  0.00    +0.000 A 
ATOM     19  C   UNL     1       0.741   9.854  18.632  0.00  0.00    +0.000 A 
ATOM     20  N   UNL     1       0.111  10.963  18.128  0.00  0.00    +0.000 N 
ATOM     21  N   UNL     1      -0.738  11.550  18.991  0.00  0.00    +0.000 NA
ATOM     22  C   UNL     1      -0.645  10.790  20.084  0.00  0.00    +0.000 A 
ATOM     23  C   UNL     1       0.259   9.717  19.929  0.00  0.00    +0.000 A 
ATOM     24  C   UNL     1       0.724   8.661  20.732  0.00  0.00    +0.000 A 
ATOM     25  H   UNL     1       0.222  11.373  17.208  0.00  0.00    +0.000 HD
ENDBRANCH  14  16
ENDBRANCH   2  14
TORSDOF 3
ENDMDL
MODEL 6
REMARK VINA RESULT:      -8.0      1.258      1.747
REMARK  Name = 
REMARK  3 active torsions:
REMARK  status: ('A' for Active; 'I' for Inactive)
REMARK    1  A    between atoms: S_2  and  N_4
REMARK    2  A    between atoms: S_2  and  C_14
REMARK    3  A    between atoms: N_4  and  C_5
REMARK                            x       y       z     vdW  Elec       q    Type
REMARK                         _______ _______ _______ _____ _____    ______ ____
ROOT
ATOM      1  O   UNL     1       2.538   3.477  16.538  0.00  0.00    +0.000 OA
ATOM      2  S   UNL     1       3.622   3.853  17.423  0.00  0.00    +0.000 S 
ATOM      3  O   UNL     1       4.258   2.876  18.284  0.00  0.00    +0.000 OA
ENDROOT
BRANCH   2   4
ATOM      4  C   UNL     1       3.020   5.184  18.448  0.00  0.00    +0.000 A 
ATOM      5  C   UNL     1       2.738   4.954  19.794  0.00  0.00    +0.000 A 
ATOM      6  C   UNL     1       2.186   5.978  20.566  0.00  0.00    +0.000 A 
ATOM      7  C   UNL     1       1.894   7.229  19.997  0.00  0.00    +0.000 A 
ATOM      8  C   UNL     1       2.158   7.451  18.632  0.00  0.00    +0.000 A 
ATOM      9  C   UNL     1       2.735   6.425  17.866  0.00  0.00    +0.000 A 
ATOM     10  C   UNL     1       1.870   8.782  17.979  0.00  0.00    +0.000 C 
ATOM     11  C   UNL     1       0.900   9.652  18.775  0.00  0.00    +0.000 C 
ATOM     12  C   UNL     1       1.291   9.680  20.247  0.00  0.00    +0.000 C 
ATOM     13  C   UNL     1       1.209   8.276  20.843  0.00  0.00    +0.000 C 
ENDBRANCH   2   4
BRANCH   2  14
ATOM     14  N   UNL     1       4.786   4.595  16.443  0.00  0.00    +0.000 N 
ATOM     15  H   UNL     1       4.367   5.020  15.617  0.00  0.00    +0.000 HD
BRANCH  14  16
ATOM     16  C   UNL     1       5.836   5.316  17.077  0.00  0.00    +0.000 A 
ATOM     17  C   UNL     1       6.595   4.674  18.059  0.00  0.00    +0.000 A 
ATOM     18  C   UNL     1       7.596   5.354  18.761  0.00  0.00    +0.000 A 
ATOM     19  C   UNL     1       7.779   6.703  18.447  0.00  0.00    +0.000 A 
ATOM     20  N   UNL     1       8.632   7.648  18.954  0.00  0.00    +0.000 N 
ATOM     21  N   UNL     1       8.503   8.862  18.389  0.00  0.00    +0.000 NA
ATOM     22  C   UNL     1       7.532   8.685  17.490  0.00  0.00    +0.000 A 
ATOM     23  C   UNL     1       7.036   7.363  17.475  0.00  0.00    +0.000 A 
ATOM     24  C   UNL     1       6.049   6.661  16.762  0.00  0.00    +0.000 A 
ATOM     25  H   UNL     1       9.320   7.531  19.689  0.00  0.00    +0.000 HD
ENDBRANCH  14  16
ENDBRANCH   2  14
TORSDOF 3
ENDMDL
MODEL 7
REMARK VINA RESULT:      -8.0      2.983      4.792
REMARK  Name = 
REMARK  3 active torsions:
REMARK  status: ('A' for Active; 'I' for Inactive)
REMARK    1  A    between atoms: S_2  and  N_4
REMARK    2  A    between atoms: S_2  and  C_14
REMARK    3  A    between atoms: N_4  and  C_5
REMARK                            x       y       z     vdW  Elec       q    Type
REMARK                         _______ _______ _______ _____ _____    ______ ____
ROOT
ATOM      1  O   UNL     1       5.673   5.838  18.486  0.00  0.00    +0.000 OA
ATOM      2  S   UNL     1       4.799   6.100  17.361  0.00  0.00    +0.000 S 
ATOM      3  O   UNL     1       5.309   6.693  16.140  0.00  0.00    +0.000 OA
ENDROOT
BRANCH   2   4
ATOM      4  C   UNL     1       3.469   7.126  17.961  0.00  0.00    +0.000 A 
ATOM      5  C   UNL     1       2.981   8.167  17.171  0.00  0.00    +0.000 A 
ATOM      6  C   UNL     1       2.001   9.018  17.683  0.00  0.00    +0.000 A 
ATOM      7  C   UNL     1       1.516   8.850  18.992  0.00  0.00    +0.000 A 
ATOM      8  C   UNL     1       2.027   7.814  19.795  0.00  0.00    +0.000 A 
ATOM      9  C   UNL     1       2.996   6.946  19.266  0.00  0.00    +0.000 A 
ATOM     10  C   UNL     1       1.529   7.588  21.203  0.00  0.00    +0.000 C 
ATOM     11  C   UNL     1       0.805   8.797  21.793  0.00  0.00    +0.000 C 
ATOM     12  C   UNL     1      -0.196   9.361  20.793  0.00  0.00    +0.000 C 
ATOM     13  C   UNL     1       0.526   9.852  19.540  0.00  0.00    +0.000 C 
ENDBRANCH   2   4
BRANCH   2  14
ATOM     14  N   UNL     1       4.042   4.627  17.007  0.00  0.00    +0.000 N 
ATOM     15  H   UNL     1       4.678   3.979  16.544  0.00  0.00    +0.000 HD
BRANCH  14  16
ATOM     16  C   UNL     1       3.154   4.080  17.974  0.00  0.00    +0.000 A 
ATOM     17  C   UNL     1       1.790   4.027  17.682  0.00  0.00    +0.000 A 
ATOM     18  C   UNL     1       0.864   3.559  18.621  0.00  0.00    +0.000 A 
ATOM     19  C   UNL     1       1.371   3.174  19.865  0.00  0.00    +0.000 A 
ATOM     20  N   UNL     1       0.751   2.708  20.995  0.00  0.00    +0.000 N 
ATOM     21  N   UNL     1       1.592   2.446  22.012  0.00  0.00    +0.000 NA
ATOM     22  C   UNL     1       2.790   2.757  21.512  0.00  0.00    +0.000 A 
ATOM     23  C   UNL     1       2.724   3.218  20.180  0.00  0.00    +0.000 A 
ATOM     24  C   UNL     1       3.645   3.668  19.218  0.00  0.00    +0.000 A 
ATOM     25  H   UNL     1      -0.240   2.554  21.139  0.00  0.00    +0.000 HD
ENDBRANCH  14  16
ENDBRANCH   2  14
TORSDOF 3
ENDMDL
MODEL 8
REMARK VINA RESULT:      -7.9      2.674      4.709
REMARK  Name = 
REMARK  3 active torsions:
REMARK  status: ('A' for Active; 'I' for Inactive)
REMARK    1  A    between atoms: S_2  and  N_4
REMARK    2  A    between atoms: S_2  and  C_14
REMARK    3  A    between atoms: N_4  and  C_5
REMARK                            x       y       z     vdW  Elec       q    Type
REMARK                         _______ _______ _______ _____ _____    ______ ____
ROOT
ATOM      1  O   UNL     1       6.510   4.335  18.664  0.00  0.00    +0.000 OA
ATOM      2  S   UNL     1       5.828   4.443  17.391  0.00  0.00    +0.000 S 
ATOM      3  O   UNL     1       6.568   4.649  16.161  0.00  0.00    +0.000 OA
ENDROOT
BRANCH   2   4
ATOM      4  C   UNL     1       4.639   5.764  17.547  0.00  0.00    +0.000 A 
ATOM      5  C   UNL     1       4.568   6.758  16.571  0.00  0.00    +0.000 A 
ATOM      6  C   UNL     1       3.695   7.833  16.746  0.00  0.00    +0.000 A 
ATOM      7  C   UNL     1       2.903   7.935  17.903  0.00  0.00    +0.000 A 
ATOM      8  C   UNL     1       2.994   6.943  18.897  0.00  0.00    +0.000 A 
ATOM      9  C   UNL     1       3.857   5.851  18.705  0.00  0.00    +0.000 A 
ATOM     10  C   UNL     1       2.156   7.005  20.152  0.00  0.00    +0.000 C 
ATOM     11  C   UNL     1       1.584   8.393  20.433  0.00  0.00    +0.000 C 
ATOM     12  C   UNL     1       0.973   8.985  19.170  0.00  0.00    +0.000 C 
ATOM     13  C   UNL     1       2.045   9.163  18.096  0.00  0.00    +0.000 C 
ENDBRANCH   2   4
BRANCH   2  14
ATOM     14  N   UNL     1       4.870   3.054  17.255  0.00  0.00    +0.000 N 
ATOM     15  H   UNL     1       5.437   2.218  17.117  0.00  0.00    +0.000 HD
BRANCH  14  16
ATOM     16  C   UNL     1       3.740   2.932  18.111  0.00  0.00    +0.000 A 
ATOM     17  C   UNL     1       2.464   3.094  17.567  0.00  0.00    +0.000 A 
ATOM     18  C   UNL     1       1.321   3.049  18.372  0.00  0.00    +0.000 A 
ATOM     19  C   UNL     1       1.524   2.861  19.741  0.00  0.00    +0.000 A 
ATOM     20  N   UNL     1       0.645   2.800  20.792  0.00  0.00    +0.000 N 
ATOM     21  N   UNL     1       1.233   2.610  21.987  0.00  0.00    +0.000 NA
ATOM     22  C   UNL     1       2.532   2.548  21.688  0.00  0.00    +0.000 A 
ATOM     23  C   UNL     1       2.783   2.699  20.307  0.00  0.00    +0.000 A 
ATOM     24  C   UNL     1       3.921   2.723  19.482  0.00  0.00    +0.000 A 
ATOM     25  H   UNL     1      -0.364   2.888  20.761  0.00  0.00    +0.000 HD
ENDBRANCH  14  16
ENDBRANCH   2  14
TORSDOF 3
ENDMDL
MODEL 9
REMARK VINA RESULT:      -7.8      5.247      7.752
REMARK  Name = 
REMARK  3 active torsions:
REMARK  status: ('A' for Active; 'I' for Inactive)
REMARK    1  A    between atoms: S_2  and  N_4
REMARK    2  A    between atoms: S_2  and  C_14
REMARK    3  A    between atoms: N_4  and  C_5
REMARK                            x       y       z     vdW  Elec       q    Type
REMARK                         _______ _______ _______ _____ _____    ______ ____
ROOT
ATOM      1  O   UNL     1       1.669   9.280  22.407  0.00  0.00    +0.000 OA
ATOM      2  S   UNL     1       0.826   8.999  21.263  0.00  0.00    +0.000 S 
ATOM      3  O   UNL     1      -0.586   8.713  21.426  0.00  0.00    +0.000 OA
ENDROOT
BRANCH   2   4
ATOM      4  C   UNL     1       1.569   7.630  20.392  0.00  0.00    +0.000 A 
ATOM      5  C   UNL     1       1.508   6.345  20.931  0.00  0.00    +0.000 A 
ATOM      6  C   UNL     1       2.166   5.297  20.286  0.00  0.00    +0.000 A 
ATOM      7  C   UNL     1       2.906   5.526  19.113  0.00  0.00    +0.000 A 
ATOM      8  C   UNL     1       2.985   6.827  18.585  0.00  0.00    +0.000 A 
ATOM      9  C   UNL     1       2.301   7.875  19.224  0.00  0.00    +0.000 A 
ATOM     10  C   UNL     1       3.760   7.120  17.321  0.00  0.00    +0.000 C 
ATOM     11  C   UNL     1       4.764   6.028  16.957  0.00  0.00    +0.000 C 
ATOM     12  C   UNL     1       4.119   4.652  17.063  0.00  0.00    +0.000 C 
ATOM     13  C   UNL     1       3.682   4.382  18.502  0.00  0.00    +0.000 C 
ENDBRANCH   2   4
BRANCH   2  14
ATOM     14  N   UNL     1       1.025  10.305  20.204  0.00  0.00    +0.000 N 
ATOM     15  H   UNL     1       1.897  10.235  19.681  0.00  0.00    +0.000 HD
BRANCH  14  16
ATOM     16  C   UNL     1      -0.116  10.776  19.497  0.00  0.00    +0.000 A 
ATOM     17  C   UNL     1      -0.879  11.802  20.058  0.00  0.00    +0.000 A 
ATOM     18  C   UNL     1      -2.047  12.259  19.439  0.00  0.00    +0.000 A 
ATOM     19  C   UNL     1      -2.420  11.623  18.253  0.00  0.00    +0.000 A 
ATOM     20  N   UNL     1      -3.498  11.800  17.425  0.00  0.00    +0.000 N 
ATOM     21  N   UNL     1      -3.512  10.977  16.361  0.00  0.00    +0.000 NA
ATOM     22  C   UNL     1      -2.404  10.249  16.516  0.00  0.00    +0.000 A 
ATOM     23  C   UNL     1      -1.678  10.599  17.675  0.00  0.00    +0.000 A 
ATOM     24  C   UNL     1      -0.494  10.166  18.296  0.00  0.00    +0.000 A 
ATOM     25  H   UNL     1      -4.261  12.459  17.534  0.00  0.00    +0.000 HD
ENDBRANCH  14  16
ENDBRANCH   2  14
TORSDOF 3
ENDMDL
