MODEL 1
REMARK VINA RESULT:      -7.5      0.000      0.000
REMARK  Name = 
REMARK  5 active torsions:
REMARK  status: ('A' for Active; 'I' for Inactive)
REMARK    1  A    between atoms: C_1  and  C_2
REMARK    2  A    between atoms: C_4  and  N_5
REMARK    3  A    between atoms: C_12  and  C_13
REMARK    4  A    between atoms: C_14  and  C_15
REMARK    5  A    between atoms: C_18  and  C_19
REMARK                            x       y       z     vdW  Elec       q    Type
REMARK                         _______ _______ _______ _____ _____    ______ ____
ROOT
ATOM      1  N   UNL     1       2.241   7.338  20.249  0.00  0.00    +0.000 N 
ATOM      2  C   UNL     1       1.209   8.208  19.934  0.00  0.00    +0.000 C 
ATOM      3  O   UNL     1       0.596   8.172  18.867  0.00  0.00    +0.000 OA
ATOM      4  N   UNL     1       0.853   9.144  20.919  0.00  0.00    +0.000 N 
ATOM      5  C   UNL     1       1.389   9.263  22.265  0.00  0.00    +0.000 C 
ATOM      6  C   UNL     1       0.193   9.723  23.087  0.00  0.00    +0.000 C 
ATOM      7  C   UNL     1      -0.643  10.549  22.120  0.00  0.00    +0.000 C 
ATOM      8  C   UNL     1      -0.299   9.998  20.727  0.00  0.00    +0.000 C 
ATOM      9  H   UNL     1       2.918   7.659  20.926  0.00  0.00    +0.000 HD
ENDROOT
BRANCH   1  13
ATOM     10  C   UNL     1       5.118   6.626  16.297  0.00  0.00    +0.000 C 
ATOM     11  C   UNL     1       4.177   6.094  17.320  0.00  0.00    +0.000 A 
ATOM     12  C   UNL     1       3.708   6.896  18.372  0.00  0.00    +0.000 A 
ATOM     13  C   UNL     1       2.751   6.425  19.271  0.00  0.00    +0.000 A 
ATOM     14  C   UNL     1       2.259   5.103  19.188  0.00  0.00    +0.000 A 
ATOM     15  N   UNL     1       1.342   4.608  20.055  0.00  0.00    +0.000 NA
ATOM     16  C   UNL     1       1.003   3.299  19.953  0.00  0.00    +0.000 A 
ATOM     17  C   UNL     1       1.496   2.424  19.011  0.00  0.00    +0.000 A 
ATOM     18  C   UNL     1       2.410   2.925  18.088  0.00  0.00    +0.000 A 
ATOM     19  C   UNL     1       2.797   4.273  18.169  0.00  0.00    +0.000 A 
ATOM     20  C   UNL     1       3.732   4.765  17.249  0.00  0.00    +0.000 A 
ENDBRANCH   1  13
BRANCH   8  21
ATOM     21  C   UNL     1      -0.041  11.094  19.726  0.00  0.00    +0.000 A 
ATOM     22  C   UNL     1       0.896  12.167  19.860  0.00  0.00    +0.000 A 
ATOM     23  C   UNL     1       1.788  12.503  20.999  0.00  0.00    +0.000 C 
ATOM     24  N   UNL     1       0.927  12.945  18.772  0.00  0.00    +0.000 NA
ATOM     25  N   UNL     1      -0.019  12.434  17.980  0.00  0.00    +0.000 N 
ATOM     26  C   UNL     1      -0.612  11.308  18.477  0.00  0.00    +0.000 A 
ATOM     27  C   UNL     1      -1.659  10.596  17.709  0.00  0.00    +0.000 C 
ATOM     28  H   UNL     1      -0.206  12.902  17.100  0.00  0.00    +0.000 HD
ENDBRANCH   8  21
TORSDOF 2
ENDMDL
MODEL 2
REMARK VINA RESULT:      -7.5      0.155      1.600
REMARK  Name = 
REMARK  5 active torsions:
REMARK  status: ('A' for Active; 'I' for Inactive)
REMARK    1  A    between atoms: C_1  and  C_2
REMARK    2  A    between atoms: C_4  and  N_5
REMARK    3  A    between atoms: C_12  and  C_13
REMARK    4  A    between atoms: C_14  and  C_15
REMARK    5  A    between atoms: C_18  and  C_19
REMARK                            x       y       z     vdW  Elec       q    Type
REMARK                         _______ _______ _______ _____ _____    ______ ____
ROOT
ATOM      1  N   UNL     1       2.184   7.390  20.342  0.00  0.00    +0.000 N 
ATOM      2  C   UNL     1       1.178   8.293  20.033  0.00  0.00    +0.000 C 
ATOM      3  O   UNL     1       0.586   8.303  18.954  0.00  0.00    +0.000 OA
ATOM      4  N   UNL     1       0.822   9.206  21.039  0.00  0.00    +0.000 N 
ATOM      5  C   UNL     1       1.332   9.271  22.399  0.00  0.00    +0.000 C 
ATOM      6  C   UNL     1       0.130   9.732  23.211  0.00  0.00    +0.000 C 
ATOM      7  C   UNL     1      -0.668  10.606  22.254  0.00  0.00    +0.000 C 
ATOM      8  C   UNL     1      -0.307  10.090  20.851  0.00  0.00    +0.000 C 
ATOM      9  H   UNL     1       2.854   7.675  21.042  0.00  0.00    +0.000 HD
ENDROOT
BRANCH   1  13
ATOM     10  C   UNL     1       5.050   6.759  16.368  0.00  0.00    +0.000 C 
ATOM     11  C   UNL     1       4.115   6.206  17.385  0.00  0.00    +0.000 A 
ATOM     12  C   UNL     1       3.646   6.987  18.452  0.00  0.00    +0.000 A 
ATOM     13  C   UNL     1       2.695   6.497  19.347  0.00  0.00    +0.000 A 
ATOM     14  C   UNL     1       2.208   5.174  19.242  0.00  0.00    +0.000 A 
ATOM     15  N   UNL     1       1.296   4.660  20.103  0.00  0.00    +0.000 NA
ATOM     16  C   UNL     1       0.962   3.353  19.980  0.00  0.00    +0.000 A 
ATOM     17  C   UNL     1       1.456   2.496  19.021  0.00  0.00    +0.000 A 
ATOM     18  C   UNL     1       2.364   3.017  18.103  0.00  0.00    +0.000 A 
ATOM     19  C   UNL     1       2.745   4.365  18.207  0.00  0.00    +0.000 A 
ATOM     20  C   UNL     1       3.676   4.877  17.292  0.00  0.00    +0.000 A 
ENDBRANCH   1  13
BRANCH   8  21
ATOM     21  C   UNL     1      -0.005  11.210  19.890  0.00  0.00    +0.000 A 
ATOM     22  C   UNL     1      -0.659  11.463  18.643  0.00  0.00    +0.000 A 
ATOM     23  C   UNL     1      -1.730  10.690  17.967  0.00  0.00    +0.000 C 
ATOM     24  N   UNL     1      -0.195  12.570  18.050  0.00  0.00    +0.000 NA
ATOM     25  N   UNL     1       0.786  12.984  18.854  0.00  0.00    +0.000 N 
ATOM     26  C   UNL     1       0.931  12.235  19.987  0.00  0.00    +0.000 A 
ATOM     27  C   UNL     1       1.952  12.577  21.003  0.00  0.00    +0.000 C 
ATOM     28  H   UNL     1       1.320  13.798  18.571  0.00  0.00    +0.000 HD
ENDBRANCH   8  21
TORSDOF 2
ENDMDL
MODEL 3
REMARK VINA RESULT:      -7.4      4.770      8.317
REMARK  Name = 
REMARK  5 active torsions:
REMARK  status: ('A' for Active; 'I' for Inactive)
REMARK    1  A    between atoms: C_1  and  C_2
REMARK    2  A    between atoms: C_4  and  N_5
REMARK    3  A    between atoms: C_12  and  C_13
REMARK    4  A    between atoms: C_14  and  C_15
REMARK    5  A    between atoms: C_18  and  C_19
REMARK                            x       y       z     vdW  Elec       q    Type
REMARK                         _______ _______ _______ _____ _____    ______ ____
ROOT
ATOM      1  N   UNL     1      -2.767  11.902  18.623  0.00  0.00    +0.000 N 
ATOM      2  C   UNL     1      -3.872  12.289  19.365  0.00  0.00    +0.000 C 
ATOM      3  O   UNL     1      -3.812  12.613  20.551  0.00  0.00    +0.000 OA
ATOM      4  N   UNL     1      -5.101  12.332  18.686  0.00  0.00    +0.000 N 
ATOM      5  C   UNL     1      -5.343  12.090  17.273  0.00  0.00    +0.000 C 
ATOM      6  C   UNL     1      -6.479  13.045  16.935  0.00  0.00    +0.000 C 
ATOM      7  C   UNL     1      -7.283  13.157  18.223  0.00  0.00    +0.000 C 
ATOM      8  C   UNL     1      -6.278  12.854  19.346  0.00  0.00    +0.000 C 
ATOM      9  H   UNL     1      -2.938  11.307  17.826  0.00  0.00    +0.000 HD
ENDROOT
BRANCH   1  13
ATOM     10  C   UNL     1       0.228   8.947  21.213  0.00  0.00    +0.000 C 
ATOM     11  C   UNL     1      -0.030  10.245  20.531  0.00  0.00    +0.000 A 
ATOM     12  C   UNL     1      -1.211  10.470  19.807  0.00  0.00    +0.000 A 
ATOM     13  C   UNL     1      -1.494  11.719  19.252  0.00  0.00    +0.000 A 
ATOM     14  C   UNL     1      -0.575  12.788  19.353  0.00  0.00    +0.000 A 
ATOM     15  N   UNL     1      -0.810  14.007  18.812  0.00  0.00    +0.000 NA
ATOM     16  C   UNL     1       0.172  14.940  18.878  0.00  0.00    +0.000 A 
ATOM     17  C   UNL     1       1.396  14.759  19.484  0.00  0.00    +0.000 A 
ATOM     18  C   UNL     1       1.640  13.525  20.079  0.00  0.00    +0.000 A 
ATOM     19  C   UNL     1       0.652  12.528  20.020  0.00  0.00    +0.000 A 
ATOM     20  C   UNL     1       0.913  11.281  20.604  0.00  0.00    +0.000 A 
ENDBRANCH   1  13
BRANCH   8  21
ATOM     21  C   UNL     1      -6.834  11.898  20.369  0.00  0.00    +0.000 A 
ATOM     22  C   UNL     1      -7.192  12.208  21.719  0.00  0.00    +0.000 A 
ATOM     23  C   UNL     1      -7.066  13.490  22.457  0.00  0.00    +0.000 C 
ATOM     24  N   UNL     1      -7.709  11.151  22.356  0.00  0.00    +0.000 NA
ATOM     25  N   UNL     1      -7.621  10.160  21.466  0.00  0.00    +0.000 N 
ATOM     26  C   UNL     1      -7.137  10.547  20.248  0.00  0.00    +0.000 A 
ATOM     27  C   UNL     1      -7.007   9.577  19.137  0.00  0.00    +0.000 C 
ATOM     28  H   UNL     1      -7.919   9.235  21.754  0.00  0.00    +0.000 HD
ENDBRANCH   8  21
TORSDOF 2
ENDMDL
MODEL 4
REMARK VINA RESULT:      -7.1      4.777      8.392
REMARK  Name = 
REMARK  5 active torsions:
REMARK  status: ('A' for Active; 'I' for Inactive)
REMARK    1  A    between atoms: C_1  and  C_2
REMARK    2  A    between atoms: C_4  and  N_5
REMARK    3  A    between atoms: C_12  and  C_13
REMARK    4  A    between atoms: C_14  and  C_15
REMARK    5  A    between atoms: C_18  and  C_19
REMARK                            x       y       z     vdW  Elec       q    Type
REMARK                         _______ _______ _______ _____ _____    ______ ____
ROOT
ATOM      1  N   UNL     1      -2.758  11.887  18.643  0.00  0.00    +0.000 N 
ATOM      2  C   UNL     1      -3.856  12.300  19.381  0.00  0.00    +0.000 C 
ATOM      3  O   UNL     1      -3.790  12.633  20.564  0.00  0.00    +0.000 OA
ATOM      4  N   UNL     1      -5.084  12.357  18.702  0.00  0.00    +0.000 N 
ATOM      5  C   UNL     1      -5.331  12.106  17.292  0.00  0.00    +0.000 C 
ATOM      6  C   UNL     1      -6.451  13.077  16.945  0.00  0.00    +0.000 C 
ATOM      7  C   UNL     1      -7.252  13.214  18.232  0.00  0.00    +0.000 C 
ATOM      8  C   UNL     1      -6.252  12.905  19.358  0.00  0.00    +0.000 C 
ATOM      9  H   UNL     1      -2.939  11.287  17.851  0.00  0.00    +0.000 HD
ENDROOT
BRANCH   1  13
ATOM     10  C   UNL     1       0.182   8.913  21.273  0.00  0.00    +0.000 C 
ATOM     11  C   UNL     1      -0.051  10.205  20.572  0.00  0.00    +0.000 A 
ATOM     12  C   UNL     1      -1.228  10.443  19.846  0.00  0.00    +0.000 A 
ATOM     13  C   UNL     1      -1.487  11.688  19.272  0.00  0.00    +0.000 A 
ATOM     14  C   UNL     1      -0.547  12.740  19.356  0.00  0.00    +0.000 A 
ATOM     15  N   UNL     1      -0.759  13.956  18.797  0.00  0.00    +0.000 NA
ATOM     16  C   UNL     1       0.241  14.870  18.848  0.00  0.00    +0.000 A 
ATOM     17  C   UNL     1       1.462  14.674  19.455  0.00  0.00    +0.000 A 
ATOM     18  C   UNL     1       1.682  13.444  20.068  0.00  0.00    +0.000 A 
ATOM     19  C   UNL     1       0.675  12.467  20.025  0.00  0.00    +0.000 A 
ATOM     20  C   UNL     1       0.912  11.224  20.628  0.00  0.00    +0.000 A 
ENDBRANCH   1  13
BRANCH   8  21
ATOM     21  C   UNL     1      -6.823  11.968  20.389  0.00  0.00    +0.000 A 
ATOM     22  C   UNL     1      -7.115  10.578  20.210  0.00  0.00    +0.000 A 
ATOM     23  C   UNL     1      -6.987   9.737  18.993  0.00  0.00    +0.000 C 
ATOM     24  N   UNL     1      -7.563  10.011  21.336  0.00  0.00    +0.000 NA
ATOM     25  N   UNL     1      -7.632  11.021  22.205  0.00  0.00    +0.000 N 
ATOM     26  C   UNL     1      -7.174  12.211  21.713  0.00  0.00    +0.000 A 
ATOM     27  C   UNL     1      -7.149  13.427  22.557  0.00  0.00    +0.000 C 
ATOM     28  H   UNL     1      -7.997  10.828  23.131  0.00  0.00    +0.000 HD
ENDBRANCH   8  21
TORSDOF 2
ENDMDL
MODEL 5
REMARK VINA RESULT:      -7.0      2.265      6.993
REMARK  Name = 
REMARK  5 active torsions:
REMARK  status: ('A' for Active; 'I' for Inactive)
REMARK    1  A    between atoms: C_1  and  C_2
REMARK    2  A    between atoms: C_4  and  N_5
REMARK    3  A    between atoms: C_12  and  C_13
REMARK    4  A    between atoms: C_14  and  C_15
REMARK    5  A    between atoms: C_18  and  C_19
REMARK                            x       y       z     vdW  Elec       q    Type
REMARK                         _______ _______ _______ _____ _____    ______ ____
ROOT
ATOM      1  N   UNL     1       1.012   7.165  20.332  0.00  0.00    +0.000 N 
ATOM      2  C   UNL     1       2.209   6.493  20.138  0.00  0.00    +0.000 C 
ATOM      3  O   UNL     1       3.283   7.064  19.947  0.00  0.00    +0.000 OA
ATOM      4  N   UNL     1       2.160   5.091  20.199  0.00  0.00    +0.000 N 
ATOM      5  C   UNL     1       1.013   4.256  20.518  0.00  0.00    +0.000 C 
ATOM      6  C   UNL     1       1.623   3.079  21.267  0.00  0.00    +0.000 C 
ATOM      7  C   UNL     1       3.012   2.920  20.666  0.00  0.00    +0.000 C 
ATOM      8  C   UNL     1       3.382   4.318  20.143  0.00  0.00    +0.000 C 
ATOM      9  H   UNL     1       0.165   6.666  20.098  0.00  0.00    +0.000 HD
ENDROOT
BRANCH   1  13
ATOM     10  C   UNL     1       2.255  11.148  17.687  0.00  0.00    +0.000 C 
ATOM     11  C   UNL     1       1.563  10.540  18.857  0.00  0.00    +0.000 A 
ATOM     12  C   UNL     1       1.501   9.150  19.031  0.00  0.00    +0.000 A 
ATOM     13  C   UNL     1       0.938   8.586  20.176  0.00  0.00    +0.000 A 
ATOM     14  C   UNL     1       0.360   9.396  21.179  0.00  0.00    +0.000 A 
ATOM     15  N   UNL     1      -0.210   8.882  22.296  0.00  0.00    +0.000 NA
ATOM     16  C   UNL     1      -0.823   9.733  23.155  0.00  0.00    +0.000 A 
ATOM     17  C   UNL     1      -0.893  11.100  23.000  0.00  0.00    +0.000 A 
ATOM     18  C   UNL     1      -0.278  11.650  21.879  0.00  0.00    +0.000 A 
ATOM     19  C   UNL     1       0.356  10.799  20.959  0.00  0.00    +0.000 A 
ATOM     20  C   UNL     1       0.955  11.358  19.821  0.00  0.00    +0.000 A 
ENDBRANCH   1  13
BRANCH   8  21
ATOM     21  C   UNL     1       3.970   4.274  18.757  0.00  0.00    +0.000 A 
ATOM     22  C   UNL     1       5.274   4.715  18.370  0.00  0.00    +0.000 A 
ATOM     23  C   UNL     1       6.334   5.358  19.189  0.00  0.00    +0.000 C 
ATOM     24  N   UNL     1       5.516   4.489  17.074  0.00  0.00    +0.000 NA
ATOM     25  N   UNL     1       4.371   3.983  16.613  0.00  0.00    +0.000 N 
ATOM     26  C   UNL     1       3.417   3.798  17.573  0.00  0.00    +0.000 A 
ATOM     27  C   UNL     1       2.099   3.213  17.237  0.00  0.00    +0.000 C 
ATOM     28  H   UNL     1       4.308   3.774  15.622  0.00  0.00    +0.000 HD
ENDBRANCH   8  21
TORSDOF 2
ENDMDL
MODEL 6
REMARK VINA RESULT:      -6.9      1.949      7.383
REMARK  Name = 
REMARK  5 active torsions:
REMARK  status: ('A' for Active; 'I' for Inactive)
REMARK    1  A    between atoms: C_1  and  C_2
REMARK    2  A    between atoms: C_4  and  N_5
REMARK    3  A    between atoms: C_12  and  C_13
REMARK    4  A    between atoms: C_14  and  C_15
REMARK    5  A    between atoms: C_18  and  C_19
REMARK                            x       y       z     vdW  Elec       q    Type
REMARK                         _______ _______ _______ _____ _____    ______ ____
ROOT
ATOM      1  N   UNL     1       2.349   8.482  18.040  0.00  0.00    +0.000 N 
ATOM      2  C   UNL     1       2.426   7.106  17.888  0.00  0.00    +0.000 C 
ATOM      3  O   UNL     1       1.481   6.347  18.104  0.00  0.00    +0.000 OA
ATOM      4  N   UNL     1       3.651   6.592  17.434  0.00  0.00    +0.000 N 
ATOM      5  C   UNL     1       4.832   7.339  17.030  0.00  0.00    +0.000 C 
ATOM      6  C   UNL     1       5.422   6.496  15.908  0.00  0.00    +0.000 C 
ATOM      7  C   UNL     1       5.050   5.064  16.266  0.00  0.00    +0.000 C 
ATOM      8  C   UNL     1       3.777   5.186  17.118  0.00  0.00    +0.000 C 
ATOM      9  H   UNL     1       3.213   8.971  18.222  0.00  0.00    +0.000 HD
ENDROOT
BRANCH   1  13
ATOM     10  C   UNL     1      -1.849  10.973  17.279  0.00  0.00    +0.000 C 
ATOM     11  C   UNL     1      -0.887  10.320  18.208  0.00  0.00    +0.000 A 
ATOM     12  C   UNL     1       0.230   9.616  17.732  0.00  0.00    +0.000 A 
ATOM     13  C   UNL     1       1.181   9.090  18.605  0.00  0.00    +0.000 A 
ATOM     14  C   UNL     1       1.028   9.200  20.005  0.00  0.00    +0.000 A 
ATOM     15  N   UNL     1       1.924   8.686  20.882  0.00  0.00    +0.000 NA
ATOM     16  C   UNL     1       1.641   8.758  22.206  0.00  0.00    +0.000 A 
ATOM     17  C   UNL     1       0.517   9.343  22.745  0.00  0.00    +0.000 A 
ATOM     18  C   UNL     1      -0.396   9.911  21.861  0.00  0.00    +0.000 A 
ATOM     19  C   UNL     1      -0.145   9.845  20.480  0.00  0.00    +0.000 A 
ATOM     20  C   UNL     1      -1.079  10.401  19.596  0.00  0.00    +0.000 A 
ENDBRANCH   1  13
BRANCH   8  21
ATOM     21  C   UNL     1       3.830   4.323  18.352  0.00  0.00    +0.000 A 
ATOM     22  C   UNL     1       2.857   3.356  18.759  0.00  0.00    +0.000 A 
ATOM     23  C   UNL     1       1.563   2.998  18.127  0.00  0.00    +0.000 C 
ATOM     24  N   UNL     1       3.224   2.716  19.875  0.00  0.00    +0.000 NA
ATOM     25  N   UNL     1       4.370   3.303  20.227  0.00  0.00    +0.000 N 
ATOM     26  C   UNL     1       4.804   4.249  19.342  0.00  0.00    +0.000 A 
ATOM     27  C   UNL     1       6.076   4.973  19.564  0.00  0.00    +0.000 C 
ATOM     28  H   UNL     1       4.813   3.002  21.087  0.00  0.00    +0.000 HD
ENDBRANCH   8  21
TORSDOF 2
ENDMDL
MODEL 7
REMARK VINA RESULT:      -6.9      4.962      8.037
REMARK  Name = 
REMARK  5 active torsions:
REMARK  status: ('A' for Active; 'I' for Inactive)
REMARK    1  A    between atoms: C_1  and  C_2
REMARK    2  A    between atoms: C_4  and  N_5
REMARK    3  A    between atoms: C_12  and  C_13
REMARK    4  A    between atoms: C_14  and  C_15
REMARK    5  A    between atoms: C_18  and  C_19
REMARK                            x       y       z     vdW  Elec       q    Type
REMARK                         _______ _______ _______ _____ _____    ______ ____
ROOT
ATOM      1  N   UNL     1      -3.100  12.297  18.819  0.00  0.00    +0.000 N 
ATOM      2  C   UNL     1      -4.239  12.502  19.582  0.00  0.00    +0.000 C 
ATOM      3  O   UNL     1      -4.211  12.751  20.787  0.00  0.00    +0.000 OA
ATOM      4  N   UNL     1      -5.468  12.447  18.904  0.00  0.00    +0.000 N 
ATOM      5  C   UNL     1      -5.687  12.274  17.477  0.00  0.00    +0.000 C 
ATOM      6  C   UNL     1      -6.928  13.111  17.200  0.00  0.00    +0.000 C 
ATOM      7  C   UNL     1      -7.733  13.043  18.490  0.00  0.00    +0.000 C 
ATOM      8  C   UNL     1      -6.694  12.784  19.594  0.00  0.00    +0.000 C 
ATOM      9  H   UNL     1      -3.204  11.740  17.983  0.00  0.00    +0.000 HD
ENDROOT
BRANCH   1  13
ATOM     10  C   UNL     1       0.099  14.211  22.061  0.00  0.00    +0.000 C 
ATOM     11  C   UNL     1      -0.246  13.181  21.043  0.00  0.00    +0.000 A 
ATOM     12  C   UNL     1      -1.521  13.123  20.461  0.00  0.00    +0.000 A 
ATOM     13  C   UNL     1      -1.811  12.221  19.438  0.00  0.00    +0.000 A 
ATOM     14  C   UNL     1      -0.844  11.294  18.986  0.00  0.00    +0.000 A 
ATOM     15  N   UNL     1      -1.096  10.393  18.006  0.00  0.00    +0.000 NA
ATOM     16  C   UNL     1      -0.138   9.482  17.708  0.00  0.00    +0.000 A 
ATOM     17  C   UNL     1       1.101   9.412  18.306  0.00  0.00    +0.000 A 
ATOM     18  C   UNL     1       1.392  10.355  19.288  0.00  0.00    +0.000 A 
ATOM     19  C   UNL     1       0.419  11.307  19.634  0.00  0.00    +0.000 A 
ATOM     20  C   UNL     1       0.713  12.240  20.638  0.00  0.00    +0.000 A 
ENDBRANCH   1  13
BRANCH   8  21
ATOM     21  C   UNL     1      -7.130  11.704  20.548  0.00  0.00    +0.000 A 
ATOM     22  C   UNL     1      -7.524  11.880  21.913  0.00  0.00    +0.000 A 
ATOM     23  C   UNL     1      -7.555  13.117  22.733  0.00  0.00    +0.000 C 
ATOM     24  N   UNL     1      -7.910  10.729  22.476  0.00  0.00    +0.000 NA
ATOM     25  N   UNL     1      -7.701   9.815  21.525  0.00  0.00    +0.000 N 
ATOM     26  C   UNL     1      -7.267  10.336  20.339  0.00  0.00    +0.000 A 
ATOM     27  C   UNL     1      -7.019   9.464  19.169  0.00  0.00    +0.000 C 
ATOM     28  H   UNL     1      -7.885   8.844  21.750  0.00  0.00    +0.000 HD
ENDBRANCH   8  21
TORSDOF 2
ENDMDL
MODEL 8
REMARK VINA RESULT:      -6.9      1.965      7.230
REMARK  Name = 
REMARK  5 active torsions:
REMARK  status: ('A' for Active; 'I' for Inactive)
REMARK    1  A    between atoms: C_1  and  C_2
REMARK    2  A    between atoms: C_4  and  N_5
REMARK    3  A    between atoms: C_12  and  C_13
REMARK    4  A    between atoms: C_14  and  C_15
REMARK    5  A    between atoms: C_18  and  C_19
REMARK                            x       y       z     vdW  Elec       q    Type
REMARK                         _______ _______ _______ _____ _____    ______ ____
ROOT
ATOM      1  N   UNL     1       2.388   8.469  18.073  0.00  0.00    +0.000 N 
ATOM      2  C   UNL     1       2.475   7.099  17.882  0.00  0.00    +0.000 C 
ATOM      3  O   UNL     1       1.528   6.331  18.048  0.00  0.00    +0.000 OA
ATOM      4  N   UNL     1       3.715   6.603  17.446  0.00  0.00    +0.000 N 
ATOM      5  C   UNL     1       4.903   7.365  17.097  0.00  0.00    +0.000 C 
ATOM      6  C   UNL     1       5.527   6.559  15.966  0.00  0.00    +0.000 C 
ATOM      7  C   UNL     1       5.151   5.115  16.271  0.00  0.00    +0.000 C 
ATOM      8  C   UNL     1       3.855   5.207  17.092  0.00  0.00    +0.000 C 
ATOM      9  H   UNL     1       3.246   8.955  18.293  0.00  0.00    +0.000 HD
ENDROOT
BRANCH   1  13
ATOM     10  C   UNL     1      -1.864  10.849  17.256  0.00  0.00    +0.000 C 
ATOM     11  C   UNL     1      -0.891  10.231  18.199  0.00  0.00    +0.000 A 
ATOM     12  C   UNL     1       0.244   9.549  17.738  0.00  0.00    +0.000 A 
ATOM     13  C   UNL     1       1.204   9.056  18.623  0.00  0.00    +0.000 A 
ATOM     14  C   UNL     1       1.039   9.180  20.021  0.00  0.00    +0.000 A 
ATOM     15  N   UNL     1       1.942   8.700  20.910  0.00  0.00    +0.000 NA
ATOM     16  C   UNL     1       1.651   8.782  22.231  0.00  0.00    +0.000 A 
ATOM     17  C   UNL     1       0.510   9.347  22.756  0.00  0.00    +0.000 A 
ATOM     18  C   UNL     1      -0.411   9.881  21.860  0.00  0.00    +0.000 A 
ATOM     19  C   UNL     1      -0.151   9.803  20.481  0.00  0.00    +0.000 A 
ATOM     20  C   UNL     1      -1.093  10.325  19.585  0.00  0.00    +0.000 A 
ENDBRANCH   1  13
BRANCH   8  21
ATOM     21  C   UNL     1       3.878   4.308  18.300  0.00  0.00    +0.000 A 
ATOM     22  C   UNL     1       4.899   4.252  19.301  0.00  0.00    +0.000 A 
ATOM     23  C   UNL     1       6.181   4.998  19.383  0.00  0.00    +0.000 C 
ATOM     24  N   UNL     1       4.598   3.387  20.277  0.00  0.00    +0.000 NA
ATOM     25  N   UNL     1       3.446   2.840  19.883  0.00  0.00    +0.000 N 
ATOM     26  C   UNL     1       2.946   3.369  18.727  0.00  0.00    +0.000 A 
ATOM     27  C   UNL     1       1.658   2.898  18.167  0.00  0.00    +0.000 C 
ATOM     28  H   UNL     1       3.046   2.108  20.459  0.00  0.00    +0.000 HD
ENDBRANCH   8  21
TORSDOF 2
ENDMDL
MODEL 9
REMARK VINA RESULT:      -6.8      5.571      8.744
REMARK  Name = 
REMARK  5 active torsions:
REMARK  status: ('A' for Active; 'I' for Inactive)
REMARK    1  A    between atoms: C_1  and  C_2
REMARK    2  A    between atoms: C_4  and  N_5
REMARK    3  A    between atoms: C_12  and  C_13
REMARK    4  A    between atoms: C_14  and  C_15
REMARK    5  A    between atoms: C_18  and  C_19
REMARK                            x       y       z     vdW  Elec       q    Type
REMARK                         _______ _______ _______ _____ _____    ______ ____
ROOT
ATOM      1  N   UNL     1       0.748  14.936  20.084  0.00  0.00    +0.000 N 
ATOM      2  C   UNL     1       0.069  13.757  19.818  0.00  0.00    +0.000 C 
ATOM      3  O   UNL     1       0.188  13.130  18.765  0.00  0.00    +0.000 OA
ATOM      4  N   UNL     1      -0.763  13.267  20.837  0.00  0.00    +0.000 N 
ATOM      5  C   UNL     1      -0.942  13.810  22.174  0.00  0.00    +0.000 C 
ATOM      6  C   UNL     1      -1.160  12.574  23.037  0.00  0.00    +0.000 C 
ATOM      7  C   UNL     1      -1.846  11.577  22.113  0.00  0.00    +0.000 C 
ATOM      8  C   UNL     1      -1.400  11.976  20.697  0.00  0.00    +0.000 C 
ATOM      9  H   UNL     1       0.328  15.564  20.754  0.00  0.00    +0.000 HD
ENDROOT
BRANCH   1  13
ATOM     10  C   UNL     1       5.144  15.422  17.883  0.00  0.00    +0.000 C 
ATOM     11  C   UNL     1       3.709  15.799  17.995  0.00  0.00    +0.000 A 
ATOM     12  C   UNL     1       2.849  15.153  18.895  0.00  0.00    +0.000 A 
ATOM     13  C   UNL     1       1.530  15.574  19.068  0.00  0.00    +0.000 A 
ATOM     14  C   UNL     1       0.996  16.635  18.302  0.00  0.00    +0.000 A 
ATOM     15  N   UNL     1      -0.284  17.059  18.432  0.00  0.00    +0.000 NA
ATOM     16  C   UNL     1      -0.732  18.019  17.587  0.00  0.00    +0.000 A 
ATOM     17  C   UNL     1       0.023  18.630  16.610  0.00  0.00    +0.000 A 
ATOM     18  C   UNL     1       1.352  18.235  16.488  0.00  0.00    +0.000 A 
ATOM     19  C   UNL     1       1.850  17.233  17.338  0.00  0.00    +0.000 A 
ATOM     20  C   UNL     1       3.184  16.826  17.195  0.00  0.00    +0.000 A 
ENDBRANCH   1  13
BRANCH   8  21
ATOM     21  C   UNL     1      -2.549  12.006  19.723  0.00  0.00    +0.000 A 
ATOM     22  C   UNL     1      -2.662  11.250  18.514  0.00  0.00    +0.000 A 
ATOM     23  C   UNL     1      -1.691  10.312  17.895  0.00  0.00    +0.000 C 
ATOM     24  N   UNL     1      -3.831  11.460  17.898  0.00  0.00    +0.000 NA
ATOM     25  N   UNL     1      -4.432  12.386  18.648  0.00  0.00    +0.000 N 
ATOM     26  C   UNL     1      -3.735  12.732  19.770  0.00  0.00    +0.000 A 
ATOM     27  C   UNL     1      -4.275  13.721  20.730  0.00  0.00    +0.000 C 
ATOM     28  H   UNL     1      -5.331  12.738  18.339  0.00  0.00    +0.000 HD
ENDBRANCH   8  21
TORSDOF 2
ENDMDL
