MODEL 1
REMARK VINA RESULT:      -9.3      0.000      0.000
REMARK  Name = 
REMARK  8 active torsions:
REMARK  status: ('A' for Active; 'I' for Inactive)
REMARK    1  A    between atoms: N_8  and  C_9
REMARK    2  A    between atoms: C_9  and  C_10
REMARK    3  A    between atoms: C_14  and  C_15
REMARK    4  A    between atoms: N_21  and  C_22
REMARK    5  A    between atoms: C_25  and  C_26
REMARK    6  A    between atoms: C_26  and  O_27
REMARK    7  A    between atoms: C_28  and  C_29
REMARK    8  A    between atoms: C_29  and  C_30
REMARK                            x       y       z     vdW  Elec       q    Type
REMARK                         _______ _______ _______ _____ _____    ______ ____
ROOT
ATOM      1  C   UNL     1       0.283  11.418  19.457  0.00  0.00    +0.000 A 
ATOM      2  C   UNL     1       1.059  10.476  18.789  0.00  0.00    +0.000 A 
ATOM      3  C   UNL     1       1.294   9.284  19.430  0.00  0.00    +0.000 A 
ATOM      4  C   UNL     1       0.873   9.008  20.727  0.00  0.00    +0.000 A 
ATOM      5  C   UNL     1       0.176   9.965  21.453  0.00  0.00    +0.000 A 
ATOM      6  C   UNL     1      -0.142  11.168  20.784  0.00  0.00    +0.000 A 
ATOM      7  C   UNL     1       1.284   7.612  21.074  0.00  0.00    +0.000 C 
ATOM      8  N   UNL     1       1.968   7.154  19.870  0.00  0.00    +0.000 N 
ATOM      9  C   UNL     1       1.980   8.125  18.872  0.00  0.00    +0.000 C 
ATOM     10  O   UNL     1       2.407   8.117  17.744  0.00  0.00    +0.000 OA
ENDROOT
BRANCH   8  11
ATOM     11  C   UNL     1       2.608   5.897  19.778  0.00  0.00    +0.000 A 
ATOM     12  C   UNL     1       2.097   4.780  20.436  0.00  0.00    +0.000 A 
ATOM     13  C   UNL     1       2.690   3.530  20.301  0.00  0.00    +0.000 A 
ATOM     14  C   UNL     1       3.833   3.352  19.509  0.00  0.00    +0.000 A 
ATOM     15  C   UNL     1       4.343   4.463  18.805  0.00  0.00    +0.000 A 
ATOM     16  C   UNL     1       3.746   5.729  18.980  0.00  0.00    +0.000 A 
BRANCH  15  17
ATOM     17  C   UNL     1       5.476   4.356  17.810  0.00  0.00    +0.000 C 
ATOM     18  C   UNL     1       5.010   4.179  16.375  0.00  0.00    +0.000 C 
ENDBRANCH  15  17
BRANCH  14  19
ATOM     19  C   UNL     1       4.405   1.963  19.369  0.00  0.00    +0.000 C 
BRANCH  19  20
ATOM     20  O   UNL     1       5.284   1.638  20.443  0.00  0.00    +0.000 OA
ATOM     21  H   UNL     1       4.723   1.357  21.187  0.00  0.00    +0.000 HD
ENDBRANCH  19  20
ENDBRANCH  14  19
ENDBRANCH   8  11
BRANCH   5  22
ATOM     22  C   UNL     1      -0.233   9.766  22.889  0.00  0.00    +0.000 C 
ATOM     23  F   UNL     1       0.814   9.513  23.722  0.00  0.00    +0.000 F 
ATOM     24  F   UNL     1      -0.855  10.864  23.403  0.00  0.00    +0.000 F 
ATOM     25  F   UNL     1      -1.100   8.731  23.054  0.00  0.00    +0.000 F 
ENDBRANCH   5  22
BRANCH   1  26
ATOM     26  C   UNL     1      -0.150  12.647  18.705  0.00  0.00    +0.000 C 
BRANCH  26  34
ATOM     27  C   UNL     1      -5.790  13.078  20.263  0.00  0.00    +0.000 C 
ATOM     28  C   UNL     1      -5.197  12.527  19.203  0.00  0.00    +0.000 C 
ATOM     29  C   UNL     1      -5.889  12.173  17.980  0.00  0.00    +0.000 C 
ATOM     30  C   UNL     1      -5.150  11.213  17.391  0.00  0.00    +0.000 C 
ATOM     31  C   UNL     1      -3.925  11.041  18.148  0.00  0.00    +0.000 C 
ATOM     32  C   UNL     1      -3.863  11.978  19.113  0.00  0.00    +0.000 C 
ATOM     33  C   UNL     1      -2.524  12.546  19.491  0.00  0.00    +0.000 C 
ATOM     34  N   UNL     1      -1.566  12.622  18.332  0.00  0.00    +0.000 NA
ATOM     35  C   UNL     1      -1.779  11.607  17.270  0.00  0.00    +0.000 C 
ATOM     36  C   UNL     1      -2.665  10.432  17.670  0.00  0.00    +0.000 C 
ENDBRANCH  26  34
ENDBRANCH   1  26
TORSDOF 7
ENDMDL
MODEL 2
REMARK VINA RESULT:      -9.2      0.654      1.454
REMARK  Name = 
REMARK  8 active torsions:
REMARK  status: ('A' for Active; 'I' for Inactive)
REMARK    1  A    between atoms: N_8  and  C_9
REMARK    2  A    between atoms: C_9  and  C_10
REMARK    3  A    between atoms: C_14  and  C_15
REMARK    4  A    between atoms: N_21  and  C_22
REMARK    5  A    between atoms: C_25  and  C_26
REMARK    6  A    between atoms: C_26  and  O_27
REMARK    7  A    between atoms: C_28  and  C_29
REMARK    8  A    between atoms: C_29  and  C_30
REMARK                            x       y       z     vdW  Elec       q    Type
REMARK                         _______ _______ _______ _____ _____    ______ ____
ROOT
ATOM      1  C   UNL     1       0.344  11.445  19.389  0.00  0.00    +0.000 A 
ATOM      2  C   UNL     1       1.119  10.533  18.679  0.00  0.00    +0.000 A 
ATOM      3  C   UNL     1       1.374   9.323  19.276  0.00  0.00    +0.000 A 
ATOM      4  C   UNL     1       0.974   8.999  20.569  0.00  0.00    +0.000 A 
ATOM      5  C   UNL     1       0.279   9.925  21.336  0.00  0.00    +0.000 A 
ATOM      6  C   UNL     1      -0.059  11.147  20.713  0.00  0.00    +0.000 A 
ATOM      7  C   UNL     1       1.403   7.597  20.863  0.00  0.00    +0.000 C 
ATOM      8  N   UNL     1       2.074   7.186  19.635  0.00  0.00    +0.000 N 
ATOM      9  C   UNL     1       2.062   8.190  18.670  0.00  0.00    +0.000 C 
ATOM     10  O   UNL     1       2.473   8.224  17.536  0.00  0.00    +0.000 OA
ENDROOT
BRANCH   8  11
ATOM     11  C   UNL     1       2.723   5.939  19.491  0.00  0.00    +0.000 A 
ATOM     12  C   UNL     1       4.111   5.859  19.383  0.00  0.00    +0.000 A 
ATOM     13  C   UNL     1       4.757   4.632  19.300  0.00  0.00    +0.000 A 
ATOM     14  C   UNL     1       4.035   3.430  19.305  0.00  0.00    +0.000 A 
ATOM     15  C   UNL     1       2.633   3.489  19.452  0.00  0.00    +0.000 A 
ATOM     16  C   UNL     1       1.993   4.744  19.503  0.00  0.00    +0.000 A 
BRANCH  15  17
ATOM     17  C   UNL     1       1.772   2.258  19.620  0.00  0.00    +0.000 C 
ATOM     18  C   UNL     1       0.470   2.316  18.842  0.00  0.00    +0.000 C 
ENDBRANCH  15  17
BRANCH  14  19
ATOM     19  C   UNL     1       4.798   2.128  19.255  0.00  0.00    +0.000 C 
BRANCH  19  20
ATOM     20  O   UNL     1       5.269   1.738  20.542  0.00  0.00    +0.000 OA
ATOM     21  H   UNL     1       6.130   2.175  20.668  0.00  0.00    +0.000 HD
ENDBRANCH  19  20
ENDBRANCH  14  19
ENDBRANCH   8  11
BRANCH   5  22
ATOM     22  C   UNL     1      -0.108   9.675  22.770  0.00  0.00    +0.000 C 
ATOM     23  F   UNL     1       0.955   9.407  23.580  0.00  0.00    +0.000 F 
ATOM     24  F   UNL     1      -0.735  10.747  23.328  0.00  0.00    +0.000 F 
ATOM     25  F   UNL     1      -0.960   8.623  22.913  0.00  0.00    +0.000 F 
ENDBRANCH   5  22
BRANCH   1  26
ATOM     26  C   UNL     1      -0.111  12.694  18.684  0.00  0.00    +0.000 C 
BRANCH  26  34
ATOM     27  C   UNL     1      -5.736  13.043  20.315  0.00  0.00    +0.000 C 
ATOM     28  C   UNL     1      -5.150  12.521  19.236  0.00  0.00    +0.000 C 
ATOM     29  C   UNL     1      -5.853  12.191  18.013  0.00  0.00    +0.000 C 
ATOM     30  C   UNL     1      -5.114  11.250  17.393  0.00  0.00    +0.000 C 
ATOM     31  C   UNL     1      -3.879  11.071  18.132  0.00  0.00    +0.000 C 
ATOM     32  C   UNL     1      -3.813  11.986  19.118  0.00  0.00    +0.000 C 
ATOM     33  C   UNL     1      -2.474  12.555  19.495  0.00  0.00    +0.000 C 
ATOM     34  N   UNL     1      -1.530  12.666  18.327  0.00  0.00    +0.000 NA
ATOM     35  C   UNL     1      -1.747  11.675  17.244  0.00  0.00    +0.000 C 
ATOM     36  C   UNL     1      -2.620  10.484  17.626  0.00  0.00    +0.000 C 
ENDBRANCH  26  34
ENDBRANCH   1  26
TORSDOF 7
ENDMDL
MODEL 3
REMARK VINA RESULT:      -9.0      2.726      4.730
REMARK  Name = 
REMARK  8 active torsions:
REMARK  status: ('A' for Active; 'I' for Inactive)
REMARK    1  A    between atoms: N_8  and  C_9
REMARK    2  A    between atoms: C_9  and  C_10
REMARK    3  A    between atoms: C_14  and  C_15
REMARK    4  A    between atoms: N_21  and  C_22
REMARK    5  A    between atoms: C_25  and  C_26
REMARK    6  A    between atoms: C_26  and  O_27
REMARK    7  A    between atoms: C_28  and  C_29
REMARK    8  A    between atoms: C_29  and  C_30
REMARK                            x       y       z     vdW  Elec       q    Type
REMARK                         _______ _______ _______ _____ _____    ______ ____
ROOT
ATOM      1  C   UNL     1      -0.006  12.344  20.142  0.00  0.00    +0.000 A 
ATOM      2  C   UNL     1       0.756  11.748  19.141  0.00  0.00    +0.000 A 
ATOM      3  C   UNL     1       1.081  10.423  19.301  0.00  0.00    +0.000 A 
ATOM      4  C   UNL     1       0.763   9.680  20.433  0.00  0.00    +0.000 A 
ATOM      5  C   UNL     1       0.084  10.274  21.488  0.00  0.00    +0.000 A 
ATOM      6  C   UNL     1      -0.326  11.615  21.312  0.00  0.00    +0.000 A 
ATOM      7  C   UNL     1       1.251   8.280  20.236  0.00  0.00    +0.000 C 
ATOM      8  N   UNL     1       1.865   8.321  18.914  0.00  0.00    +0.000 N 
ATOM      9  C   UNL     1       1.769   9.581  18.330  0.00  0.00    +0.000 C 
ATOM     10  O   UNL     1       2.115  10.000  17.253  0.00  0.00    +0.000 OA
ENDROOT
BRANCH   8  11
ATOM     11  C   UNL     1       2.543   7.219  18.344  0.00  0.00    +0.000 A 
ATOM     12  C   UNL     1       3.835   7.354  17.838  0.00  0.00    +0.000 A 
ATOM     13  C   UNL     1       4.528   6.261  17.330  0.00  0.00    +0.000 A 
ATOM     14  C   UNL     1       3.944   4.987  17.295  0.00  0.00    +0.000 A 
ATOM     15  C   UNL     1       2.652   4.822  17.837  0.00  0.00    +0.000 A 
ATOM     16  C   UNL     1       1.955   5.949  18.319  0.00  0.00    +0.000 A 
BRANCH  15  17
ATOM     17  C   UNL     1       1.990   3.472  17.987  0.00  0.00    +0.000 C 
ATOM     18  C   UNL     1       1.216   3.315  19.285  0.00  0.00    +0.000 C 
ENDBRANCH  15  17
BRANCH  14  19
ATOM     19  C   UNL     1       4.763   3.832  16.771  0.00  0.00    +0.000 C 
BRANCH  19  20
ATOM     20  O   UNL     1       6.075   3.815  17.326  0.00  0.00    +0.000 OA
ATOM     21  H   UNL     1       6.162   4.623  17.862  0.00  0.00    +0.000 HD
ENDBRANCH  19  20
ENDBRANCH  14  19
ENDBRANCH   8  11
BRANCH   5  22
ATOM     22  C   UNL     1      -0.216   9.555  22.778  0.00  0.00    +0.000 C 
ATOM     23  F   UNL     1      -0.883   8.380  22.602  0.00  0.00    +0.000 F 
ATOM     24  F   UNL     1       0.917   9.236  23.463  0.00  0.00    +0.000 F 
ATOM     25  F   UNL     1      -0.977  10.292  23.631  0.00  0.00    +0.000 F 
ENDBRANCH   5  22
BRANCH   1  26
ATOM     26  C   UNL     1      -0.537  13.731  19.902  0.00  0.00    +0.000 C 
BRANCH  26  34
ATOM     27  C   UNL     1       4.719  15.337  17.847  0.00  0.00    +0.000 C 
ATOM     28  C   UNL     1       3.507  15.880  17.720  0.00  0.00    +0.000 C 
ATOM     29  C   UNL     1       3.164  16.871  16.721  0.00  0.00    +0.000 C 
ATOM     30  C   UNL     1       2.101  17.544  17.203  0.00  0.00    +0.000 C 
ATOM     31  C   UNL     1       1.672  16.910  18.435  0.00  0.00    +0.000 C 
ATOM     32  C   UNL     1       2.388  15.786  18.630  0.00  0.00    +0.000 C 
ATOM     33  C   UNL     1       1.724  14.602  19.274  0.00  0.00    +0.000 C 
ATOM     34  N   UNL     1       0.261  14.491  18.937  0.00  0.00    +0.000 NA
ATOM     35  C   UNL     1      -0.418  15.776  18.640  0.00  0.00    +0.000 C 
ATOM     36  C   UNL     1       0.344  17.023  19.075  0.00  0.00    +0.000 C 
ENDBRANCH  26  34
ENDBRANCH   1  26
TORSDOF 7
ENDMDL
MODEL 4
REMARK VINA RESULT:      -9.0      2.520      4.904
REMARK  Name = 
REMARK  8 active torsions:
REMARK  status: ('A' for Active; 'I' for Inactive)
REMARK    1  A    between atoms: N_8  and  C_9
REMARK    2  A    between atoms: C_9  and  C_10
REMARK    3  A    between atoms: C_14  and  C_15
REMARK    4  A    between atoms: N_21  and  C_22
REMARK    5  A    between atoms: C_25  and  C_26
REMARK    6  A    between atoms: C_26  and  O_27
REMARK    7  A    between atoms: C_28  and  C_29
REMARK    8  A    between atoms: C_29  and  C_30
REMARK                            x       y       z     vdW  Elec       q    Type
REMARK                         _______ _______ _______ _____ _____    ______ ____
ROOT
ATOM      1  C   UNL     1       0.484  11.635  19.332  0.00  0.00    +0.000 A 
ATOM      2  C   UNL     1       1.226  10.686  18.634  0.00  0.00    +0.000 A 
ATOM      3  C   UNL     1       1.409   9.465  19.233  0.00  0.00    +0.000 A 
ATOM      4  C   UNL     1       0.969   9.159  20.517  0.00  0.00    +0.000 A 
ATOM      5  C   UNL     1       0.307  10.117  21.273  0.00  0.00    +0.000 A 
ATOM      6  C   UNL     1       0.041  11.355  20.647  0.00  0.00    +0.000 A 
ATOM      7  C   UNL     1       1.323   7.737  20.816  0.00  0.00    +0.000 C 
ATOM      8  N   UNL     1       1.996   7.295  19.599  0.00  0.00    +0.000 N 
ATOM      9  C   UNL     1       2.052   8.300  18.637  0.00  0.00    +0.000 C 
ATOM     10  O   UNL     1       2.486   8.315  17.511  0.00  0.00    +0.000 OA
ENDROOT
BRANCH   8  11
ATOM     11  C   UNL     1       2.585   6.017  19.465  0.00  0.00    +0.000 A 
ATOM     12  C   UNL     1       3.903   5.876  19.031  0.00  0.00    +0.000 A 
ATOM     13  C   UNL     1       4.504   4.625  18.953  0.00  0.00    +0.000 A 
ATOM     14  C   UNL     1       3.802   3.460  19.292  0.00  0.00    +0.000 A 
ATOM     15  C   UNL     1       2.481   3.586  19.770  0.00  0.00    +0.000 A 
ATOM     16  C   UNL     1       1.878   4.860  19.812  0.00  0.00    +0.000 A 
BRANCH  15  17
ATOM     17  C   UNL     1       1.685   2.418  20.304  0.00  0.00    +0.000 C 
ATOM     18  C   UNL     1       1.466   2.466  21.805  0.00  0.00    +0.000 C 
ENDBRANCH  15  17
BRANCH  14  19
ATOM     19  C   UNL     1       4.524   2.136  19.227  0.00  0.00    +0.000 C 
BRANCH  19  20
ATOM     20  O   UNL     1       5.224   1.852  20.436  0.00  0.00    +0.000 OA
ATOM     21  H   UNL     1       5.043   0.920  20.651  0.00  0.00    +0.000 HD
ENDBRANCH  19  20
ENDBRANCH  14  19
ENDBRANCH   8  11
BRANCH   5  22
ATOM     22  C   UNL     1      -0.119   9.883  22.699  0.00  0.00    +0.000 C 
ATOM     23  F   UNL     1      -0.716  10.966  23.272  0.00  0.00    +0.000 F 
ATOM     24  F   UNL     1      -1.021   8.868  22.807  0.00  0.00    +0.000 F 
ATOM     25  F   UNL     1       0.918   9.554  23.515  0.00  0.00    +0.000 F 
ENDBRANCH   5  22
BRANCH   1  26
ATOM     26  C   UNL     1       0.105  12.906  18.622  0.00  0.00    +0.000 C 
BRANCH  26  34
ATOM     27  C   UNL     1       5.626  14.729  17.835  0.00  0.00    +0.000 C 
ATOM     28  C   UNL     1       4.651  15.156  18.639  0.00  0.00    +0.000 C 
ATOM     29  C   UNL     1       4.654  16.444  19.302  0.00  0.00    +0.000 C 
ATOM     30  C   UNL     1       3.854  16.319  20.378  0.00  0.00    +0.000 C 
ATOM     31  C   UNL     1       3.229  15.010  20.340  0.00  0.00    +0.000 C 
ATOM     32  C   UNL     1       3.548  14.398  19.184  0.00  0.00    +0.000 C 
ATOM     33  C   UNL     1       2.534  13.503  18.529  0.00  0.00    +0.000 C 
ATOM     34  N   UNL     1       1.115  13.958  18.751  0.00  0.00    +0.000 NA
ATOM     35  C   UNL     1       0.884  14.712  20.008  0.00  0.00    +0.000 C 
ATOM     36  C   UNL     1       1.997  14.595  21.044  0.00  0.00    +0.000 C 
ENDBRANCH  26  34
ENDBRANCH   1  26
TORSDOF 7
ENDMDL
MODEL 5
REMARK VINA RESULT:      -8.9      0.634      1.800
REMARK  Name = 
REMARK  8 active torsions:
REMARK  status: ('A' for Active; 'I' for Inactive)
REMARK    1  A    between atoms: N_8  and  C_9
REMARK    2  A    between atoms: C_9  and  C_10
REMARK    3  A    between atoms: C_14  and  C_15
REMARK    4  A    between atoms: N_21  and  C_22
REMARK    5  A    between atoms: C_25  and  C_26
REMARK    6  A    between atoms: C_26  and  O_27
REMARK    7  A    between atoms: C_28  and  C_29
REMARK    8  A    between atoms: C_29  and  C_30
REMARK                            x       y       z     vdW  Elec       q    Type
REMARK                         _______ _______ _______ _____ _____    ______ ____
ROOT
ATOM      1  C   UNL     1       0.198  11.522  19.565  0.00  0.00    +0.000 A 
ATOM      2  C   UNL     1       0.979  10.622  18.845  0.00  0.00    +0.000 A 
ATOM      3  C   UNL     1       1.245   9.409  19.432  0.00  0.00    +0.000 A 
ATOM      4  C   UNL     1       0.851   9.071  20.723  0.00  0.00    +0.000 A 
ATOM      5  C   UNL     1       0.150   9.985  21.499  0.00  0.00    +0.000 A 
ATOM      6  C   UNL     1      -0.200  11.209  20.887  0.00  0.00    +0.000 A 
ATOM      7  C   UNL     1       1.292   7.670  21.004  0.00  0.00    +0.000 C 
ATOM      8  N   UNL     1       1.963   7.275  19.771  0.00  0.00    +0.000 N 
ATOM      9  C   UNL     1       1.941   8.287  18.814  0.00  0.00    +0.000 C 
ATOM     10  O   UNL     1       2.349   8.334  17.680  0.00  0.00    +0.000 OA
ENDROOT
BRANCH   8  11
ATOM     11  C   UNL     1       2.622   6.034  19.615  0.00  0.00    +0.000 A 
ATOM     12  C   UNL     1       3.665   5.884  18.703  0.00  0.00    +0.000 A 
ATOM     13  C   UNL     1       4.354   4.682  18.589  0.00  0.00    +0.000 A 
ATOM     14  C   UNL     1       4.013   3.574  19.376  0.00  0.00    +0.000 A 
ATOM     15  C   UNL     1       2.985   3.717  20.331  0.00  0.00    +0.000 A 
ATOM     16  C   UNL     1       2.278   4.934  20.410  0.00  0.00    +0.000 A 
BRANCH  15  17
ATOM     17  C   UNL     1       2.636   2.639  21.331  0.00  0.00    +0.000 C 
ATOM     18  C   UNL     1       1.191   2.685  21.795  0.00  0.00    +0.000 C 
ENDBRANCH  15  17
BRANCH  14  19
ATOM     19  C   UNL     1       4.827   2.310  19.235  0.00  0.00    +0.000 C 
BRANCH  19  20
ATOM     20  O   UNL     1       4.101   1.282  18.565  0.00  0.00    +0.000 OA
ATOM     21  H   UNL     1       3.375   1.720  18.085  0.00  0.00    +0.000 HD
ENDBRANCH  19  20
ENDBRANCH  14  19
ENDBRANCH   8  11
BRANCH   5  22
ATOM     22  C   UNL     1      -0.232   9.719  22.932  0.00  0.00    +0.000 C 
ATOM     23  F   UNL     1      -0.895  10.755  23.518  0.00  0.00    +0.000 F 
ATOM     24  F   UNL     1      -1.055   8.641  23.053  0.00  0.00    +0.000 F 
ATOM     25  F   UNL     1       0.842   9.466  23.728  0.00  0.00    +0.000 F 
ENDBRANCH   5  22
BRANCH   1  26
ATOM     26  C   UNL     1      -0.268  12.773  18.872  0.00  0.00    +0.000 C 
BRANCH  26  34
ATOM     27  C   UNL     1      -5.927  13.017  20.402  0.00  0.00    +0.000 C 
ATOM     28  C   UNL     1      -5.313  12.512  19.330  0.00  0.00    +0.000 C 
ATOM     29  C   UNL     1      -5.988  12.178  18.092  0.00  0.00    +0.000 C 
ATOM     30  C   UNL     1      -5.222  11.254  17.481  0.00  0.00    +0.000 C 
ATOM     31  C   UNL     1      -3.998  11.091  18.241  0.00  0.00    +0.000 C 
ATOM     32  C   UNL     1      -3.965  12.000  19.234  0.00  0.00    +0.000 C 
ATOM     33  C   UNL     1      -2.643  12.589  19.638  0.00  0.00    +0.000 C 
ATOM     34  N   UNL     1      -1.680  12.723  18.488  0.00  0.00    +0.000 NA
ATOM     35  C   UNL     1      -1.861  11.736  17.396  0.00  0.00    +0.000 C 
ATOM     36  C   UNL     1      -2.720  10.528  17.754  0.00  0.00    +0.000 C 
ENDBRANCH  26  34
ENDBRANCH   1  26
TORSDOF 7
ENDMDL
MODEL 6
REMARK VINA RESULT:      -8.9      2.681      4.554
REMARK  Name = 
REMARK  8 active torsions:
REMARK  status: ('A' for Active; 'I' for Inactive)
REMARK    1  A    between atoms: N_8  and  C_9
REMARK    2  A    between atoms: C_9  and  C_10
REMARK    3  A    between atoms: C_14  and  C_15
REMARK    4  A    between atoms: N_21  and  C_22
REMARK    5  A    between atoms: C_25  and  C_26
REMARK    6  A    between atoms: C_26  and  O_27
REMARK    7  A    between atoms: C_28  and  C_29
REMARK    8  A    between atoms: C_29  and  C_30
REMARK                            x       y       z     vdW  Elec       q    Type
REMARK                         _______ _______ _______ _____ _____    ______ ____
ROOT
ATOM      1  C   UNL     1      -0.125  12.306  20.038  0.00  0.00    +0.000 A 
ATOM      2  C   UNL     1       0.655  11.686  19.066  0.00  0.00    +0.000 A 
ATOM      3  C   UNL     1       1.015  10.380  19.286  0.00  0.00    +0.000 A 
ATOM      4  C   UNL     1       0.715   9.680  20.451  0.00  0.00    +0.000 A 
ATOM      5  C   UNL     1       0.018  10.303  21.477  0.00  0.00    +0.000 A 
ATOM      6  C   UNL     1      -0.428  11.623  21.240  0.00  0.00    +0.000 A 
ATOM      7  C   UNL     1       1.241   8.287  20.318  0.00  0.00    +0.000 C 
ATOM      8  N   UNL     1       1.856   8.284  18.996  0.00  0.00    +0.000 N 
ATOM      9  C   UNL     1       1.728   9.513  18.355  0.00  0.00    +0.000 C 
ATOM     10  O   UNL     1       2.065   9.891  17.260  0.00  0.00    +0.000 OA
ENDROOT
BRANCH   8  11
ATOM     11  C   UNL     1       2.566   7.176  18.478  0.00  0.00    +0.000 A 
ATOM     12  C   UNL     1       2.024   5.892  18.520  0.00  0.00    +0.000 A 
ATOM     13  C   UNL     1       2.693   4.810  17.959  0.00  0.00    +0.000 A 
ATOM     14  C   UNL     1       3.944   4.969  17.347  0.00  0.00    +0.000 A 
ATOM     15  C   UNL     1       4.491   6.267  17.261  0.00  0.00    +0.000 A 
ATOM     16  C   UNL     1       3.812   7.346  17.863  0.00  0.00    +0.000 A 
BRANCH  15  17
ATOM     17  C   UNL     1       5.756   6.577  16.494  0.00  0.00    +0.000 C 
ATOM     18  C   UNL     1       6.923   6.974  17.381  0.00  0.00    +0.000 C 
ENDBRANCH  15  17
BRANCH  14  19
ATOM     19  C   UNL     1       4.600   3.763  16.720  0.00  0.00    +0.000 C 
BRANCH  19  20
ATOM     20  O   UNL     1       4.526   2.618  17.565  0.00  0.00    +0.000 OA
ATOM     21  H   UNL     1       3.988   2.874  18.335  0.00  0.00    +0.000 HD
ENDBRANCH  19  20
ENDBRANCH  14  19
ENDBRANCH   8  11
BRANCH   5  22
ATOM     22  C   UNL     1      -0.264   9.636  22.798  0.00  0.00    +0.000 C 
ATOM     23  F   UNL     1      -0.892   8.432  22.675  0.00  0.00    +0.000 F 
ATOM     24  F   UNL     1       0.875   9.386  23.501  0.00  0.00    +0.000 F 
ATOM     25  F   UNL     1      -1.054  10.387  23.613  0.00  0.00    +0.000 F 
ENDBRANCH   5  22
BRANCH   1  26
ATOM     26  C   UNL     1      -0.693  13.666  19.734  0.00  0.00    +0.000 C 
BRANCH  26  34
ATOM     27  C   UNL     1       4.650  15.174  17.837  0.00  0.00    +0.000 C 
ATOM     28  C   UNL     1       3.463  15.773  17.730  0.00  0.00    +0.000 C 
ATOM     29  C   UNL     1       3.174  16.835  16.787  0.00  0.00    +0.000 C 
ATOM     30  C   UNL     1       2.133  17.520  17.296  0.00  0.00    +0.000 C 
ATOM     31  C   UNL     1       1.662  16.833  18.484  0.00  0.00    +0.000 C 
ATOM     32  C   UNL     1       2.329  15.671  18.620  0.00  0.00    +0.000 C 
ATOM     33  C   UNL     1       1.609  14.480  19.185  0.00  0.00    +0.000 C 
ATOM     34  N   UNL     1       0.147  14.448  18.825  0.00  0.00    +0.000 NA
ATOM     35  C   UNL     1      -0.475  15.775  18.597  0.00  0.00    +0.000 C 
ATOM     36  C   UNL     1       0.331  16.963  19.114  0.00  0.00    +0.000 C 
ENDBRANCH  26  34
ENDBRANCH   1  26
TORSDOF 7
ENDMDL
MODEL 7
REMARK VINA RESULT:      -8.8      2.344      4.487
REMARK  Name = 
REMARK  8 active torsions:
REMARK  status: ('A' for Active; 'I' for Inactive)
REMARK    1  A    between atoms: N_8  and  C_9
REMARK    2  A    between atoms: C_9  and  C_10
REMARK    3  A    between atoms: C_14  and  C_15
REMARK    4  A    between atoms: N_21  and  C_22
REMARK    5  A    between atoms: C_25  and  C_26
REMARK    6  A    between atoms: C_26  and  O_27
REMARK    7  A    between atoms: C_28  and  C_29
REMARK    8  A    between atoms: C_29  and  C_30
REMARK                            x       y       z     vdW  Elec       q    Type
REMARK                         _______ _______ _______ _____ _____    ______ ____
ROOT
ATOM      1  C   UNL     1       0.297  11.532  19.358  0.00  0.00    +0.000 A 
ATOM      2  C   UNL     1       1.060  10.577  18.691  0.00  0.00    +0.000 A 
ATOM      3  C   UNL     1       1.283   9.386  19.336  0.00  0.00    +0.000 A 
ATOM      4  C   UNL     1       0.864   9.120  20.636  0.00  0.00    +0.000 A 
ATOM      5  C   UNL     1       0.182  10.088  21.360  0.00  0.00    +0.000 A 
ATOM      6  C   UNL     1      -0.124  11.293  20.688  0.00  0.00    +0.000 A 
ATOM      7  C   UNL     1       1.261   7.721  20.987  0.00  0.00    +0.000 C 
ATOM      8  N   UNL     1       1.934   7.250  19.782  0.00  0.00    +0.000 N 
ATOM      9  C   UNL     1       1.953   8.217  18.780  0.00  0.00    +0.000 C 
ATOM     10  O   UNL     1       2.375   8.199  17.650  0.00  0.00    +0.000 OA
ENDROOT
BRANCH   8  11
ATOM     11  C   UNL     1       2.558   5.985  19.692  0.00  0.00    +0.000 A 
ATOM     12  C   UNL     1       2.045   4.880  20.369  0.00  0.00    +0.000 A 
ATOM     13  C   UNL     1       2.622   3.622  20.237  0.00  0.00    +0.000 A 
ATOM     14  C   UNL     1       3.751   3.424  19.430  0.00  0.00    +0.000 A 
ATOM     15  C   UNL     1       4.262   4.523  18.707  0.00  0.00    +0.000 A 
ATOM     16  C   UNL     1       3.682   5.796  18.879  0.00  0.00    +0.000 A 
BRANCH  15  17
ATOM     17  C   UNL     1       5.379   4.393  17.696  0.00  0.00    +0.000 C 
ATOM     18  C   UNL     1       5.098   5.107  16.386  0.00  0.00    +0.000 C 
ENDBRANCH  15  17
BRANCH  14  19
ATOM     19  C   UNL     1       4.306   2.027  19.294  0.00  0.00    +0.000 C 
BRANCH  19  20
ATOM     20  O   UNL     1       5.240   1.723  20.326  0.00  0.00    +0.000 OA
ATOM     21  H   UNL     1       5.718   0.923  20.044  0.00  0.00    +0.000 HD
ENDBRANCH  19  20
ENDBRANCH  14  19
ENDBRANCH   8  11
BRANCH   5  22
ATOM     22  C   UNL     1      -0.224   9.900  22.799  0.00  0.00    +0.000 C 
ATOM     23  F   UNL     1      -1.125   8.895  22.982  0.00  0.00    +0.000 F 
ATOM     24  F   UNL     1       0.837   9.593  23.596  0.00  0.00    +0.000 F 
ATOM     25  F   UNL     1      -0.791  11.013  23.339  0.00  0.00    +0.000 F 
ENDBRANCH   5  22
BRANCH   1  26
ATOM     26  C   UNL     1      -0.124  12.763  18.602  0.00  0.00    +0.000 C 
BRANCH  26  34
ATOM     27  C   UNL     1       5.347  14.737  17.832  0.00  0.00    +0.000 C 
ATOM     28  C   UNL     1       4.341  15.170  18.594  0.00  0.00    +0.000 C 
ATOM     29  C   UNL     1       4.286  16.489  19.191  0.00  0.00    +0.000 C 
ATOM     30  C   UNL     1       3.467  16.389  20.256  0.00  0.00    +0.000 C 
ATOM     31  C   UNL     1       2.889  15.059  20.272  0.00  0.00    +0.000 C 
ATOM     32  C   UNL     1       3.253  14.401  19.155  0.00  0.00    +0.000 C 
ATOM     33  C   UNL     1       2.284  13.440  18.527  0.00  0.00    +0.000 C 
ATOM     34  N   UNL     1       0.847  13.854  18.698  0.00  0.00    +0.000 NA
ATOM     35  C   UNL     1       0.563  14.662  19.910  0.00  0.00    +0.000 C 
ATOM     36  C   UNL     1       1.657  14.636  20.973  0.00  0.00    +0.000 C 
ENDBRANCH  26  34
ENDBRANCH   1  26
TORSDOF 7
ENDMDL
MODEL 8
REMARK VINA RESULT:      -8.7      3.878      9.883
REMARK  Name = 
REMARK  8 active torsions:
REMARK  status: ('A' for Active; 'I' for Inactive)
REMARK    1  A    between atoms: N_8  and  C_9
REMARK    2  A    between atoms: C_9  and  C_10
REMARK    3  A    between atoms: C_14  and  C_15
REMARK    4  A    between atoms: N_21  and  C_22
REMARK    5  A    between atoms: C_25  and  C_26
REMARK    6  A    between atoms: C_26  and  O_27
REMARK    7  A    between atoms: C_28  and  C_29
REMARK    8  A    between atoms: C_29  and  C_30
REMARK                            x       y       z     vdW  Elec       q    Type
REMARK                         _______ _______ _______ _____ _____    ______ ____
ROOT
ATOM      1  C   UNL     1       1.021   9.973  18.821  0.00  0.00    +0.000 A 
ATOM      2  C   UNL     1       0.820  10.813  19.912  0.00  0.00    +0.000 A 
ATOM      3  C   UNL     1      -0.435  11.349  20.071  0.00  0.00    +0.000 A 
ATOM      4  C   UNL     1      -1.475  11.165  19.166  0.00  0.00    +0.000 A 
ATOM      5  C   UNL     1      -1.276  10.407  18.020  0.00  0.00    +0.000 A 
ATOM      6  C   UNL     1      -0.016   9.784  17.875  0.00  0.00    +0.000 A 
ATOM      7  C   UNL     1      -2.687  11.871  19.684  0.00  0.00    +0.000 C 
ATOM      8  N   UNL     1      -2.225  12.460  20.935  0.00  0.00    +0.000 N 
ATOM      9  C   UNL     1      -0.891  12.157  21.196  0.00  0.00    +0.000 C 
ATOM     10  O   UNL     1      -0.170  12.422  22.126  0.00  0.00    +0.000 OA
ENDROOT
BRANCH   8  11
ATOM     11  C   UNL     1      -3.030  13.303  21.735  0.00  0.00    +0.000 A 
ATOM     12  C   UNL     1      -2.988  14.688  21.587  0.00  0.00    +0.000 A 
ATOM     13  C   UNL     1      -3.820  15.518  22.330  0.00  0.00    +0.000 A 
ATOM     14  C   UNL     1      -4.719  14.990  23.267  0.00  0.00    +0.000 A 
ATOM     15  C   UNL     1      -4.802  13.588  23.405  0.00  0.00    +0.000 A 
ATOM     16  C   UNL     1      -3.928  12.766  22.665  0.00  0.00    +0.000 A 
BRANCH  15  17
ATOM     17  C   UNL     1      -5.836  12.908  24.272  0.00  0.00    +0.000 C 
ATOM     18  C   UNL     1      -7.122  12.572  23.537  0.00  0.00    +0.000 C 
ENDBRANCH  15  17
BRANCH  14  19
ATOM     19  C   UNL     1      -5.625  15.940  24.013  0.00  0.00    +0.000 C 
BRANCH  19  20
ATOM     20  O   UNL     1      -4.969  16.532  25.131  0.00  0.00    +0.000 OA
ATOM     21  H   UNL     1      -5.531  17.272  25.424  0.00  0.00    +0.000 HD
ENDBRANCH  19  20
ENDBRANCH  14  19
ENDBRANCH   8  11
BRANCH   5  22
ATOM     22  C   UNL     1      -2.329  10.238  16.956  0.00  0.00    +0.000 C 
ATOM     23  F   UNL     1      -1.930   9.452  15.917  0.00  0.00    +0.000 F 
ATOM     24  F   UNL     1      -3.462   9.659  17.441  0.00  0.00    +0.000 F 
ATOM     25  F   UNL     1      -2.716  11.419  16.403  0.00  0.00    +0.000 F 
ENDBRANCH   5  22
BRANCH   1  26
ATOM     26  C   UNL     1       2.322   9.222  18.730  0.00  0.00    +0.000 C 
BRANCH  26  34
ATOM     27  C   UNL     1       1.087   3.740  20.415  0.00  0.00    +0.000 C 
ATOM     28  C   UNL     1       1.720   4.224  19.345  0.00  0.00    +0.000 C 
ATOM     29  C   UNL     1       1.974   3.460  18.140  0.00  0.00    +0.000 C 
ATOM     30  C   UNL     1       3.031   4.039  17.541  0.00  0.00    +0.000 C 
ATOM     31  C   UNL     1       3.374   5.245  18.270  0.00  0.00    +0.000 C 
ATOM     32  C   UNL     1       2.453   5.463  19.228  0.00  0.00    +0.000 C 
ATOM     33  C   UNL     1       2.082   6.878  19.572  0.00  0.00    +0.000 C 
ATOM     34  N   UNL     1       2.146   7.809  18.391  0.00  0.00    +0.000 NA
ATOM     35  C   UNL     1       3.122   7.429  17.340  0.00  0.00    +0.000 C 
ATOM     36  C   UNL     1       4.158   6.394  17.766  0.00  0.00    +0.000 C 
ENDBRANCH  26  34
ENDBRANCH   1  26
TORSDOF 7
ENDMDL
MODEL 9
REMARK VINA RESULT:      -8.7      2.463      3.984
REMARK  Name = 
REMARK  8 active torsions:
REMARK  status: ('A' for Active; 'I' for Inactive)
REMARK    1  A    between atoms: N_8  and  C_9
REMARK    2  A    between atoms: C_9  and  C_10
REMARK    3  A    between atoms: C_14  and  C_15
REMARK    4  A    between atoms: N_21  and  C_22
REMARK    5  A    between atoms: C_25  and  C_26
REMARK    6  A    between atoms: C_26  and  O_27
REMARK    7  A    between atoms: C_28  and  C_29
REMARK    8  A    between atoms: C_29  and  C_30
REMARK                            x       y       z     vdW  Elec       q    Type
REMARK                         _______ _______ _______ _____ _____    ______ ____
ROOT
ATOM      1  C   UNL     1       0.495  11.579  19.354  0.00  0.00    +0.000 A 
ATOM      2  C   UNL     1       1.240  10.608  18.691  0.00  0.00    +0.000 A 
ATOM      3  C   UNL     1       1.400   9.399  19.320  0.00  0.00    +0.000 A 
ATOM      4  C   UNL     1       0.935   9.126  20.602  0.00  0.00    +0.000 A 
ATOM      5  C   UNL     1       0.268  10.107  21.324  0.00  0.00    +0.000 A 
ATOM      6  C   UNL     1       0.026  11.333  20.666  0.00  0.00    +0.000 A 
ATOM      7  C   UNL     1       1.269   7.708  20.939  0.00  0.00    +0.000 C 
ATOM      8  N   UNL     1       1.958   7.232  19.745  0.00  0.00    +0.000 N 
ATOM      9  C   UNL     1       2.042   8.214  18.761  0.00  0.00    +0.000 C 
ATOM     10  O   UNL     1       2.496   8.200  17.644  0.00  0.00    +0.000 OA
ENDROOT
BRANCH   8  11
ATOM     11  C   UNL     1       2.538   5.946  19.649  0.00  0.00    +0.000 A 
ATOM     12  C   UNL     1       2.167   4.924  20.522  0.00  0.00    +0.000 A 
ATOM     13  C   UNL     1       2.692   3.643  20.395  0.00  0.00    +0.000 A 
ATOM     14  C   UNL     1       3.624   3.338  19.393  0.00  0.00    +0.000 A 
ATOM     15  C   UNL     1       3.982   4.349  18.477  0.00  0.00    +0.000 A 
ATOM     16  C   UNL     1       3.464   5.650  18.642  0.00  0.00    +0.000 A 
BRANCH  15  17
ATOM     17  C   UNL     1       4.860   4.093  17.273  0.00  0.00    +0.000 C 
ATOM     18  C   UNL     1       5.026   5.305  16.373  0.00  0.00    +0.000 C 
ENDBRANCH  15  17
BRANCH  14  19
ATOM     19  C   UNL     1       4.124   1.918  19.280  0.00  0.00    +0.000 C 
BRANCH  19  20
ATOM     20  O   UNL     1       5.237   1.677  20.137  0.00  0.00    +0.000 OA
ATOM     21  H   UNL     1       4.944   1.028  20.801  0.00  0.00    +0.000 HD
ENDBRANCH  19  20
ENDBRANCH  14  19
ENDBRANCH   8  11
BRANCH   5  22
ATOM     22  C   UNL     1      -0.185   9.910  22.747  0.00  0.00    +0.000 C 
ATOM     23  F   UNL     1      -1.091   8.902  22.894  0.00  0.00    +0.000 F 
ATOM     24  F   UNL     1       0.848   9.598  23.578  0.00  0.00    +0.000 F 
ATOM     25  F   UNL     1      -0.772  11.018  23.275  0.00  0.00    +0.000 F 
ENDBRANCH   5  22
BRANCH   1  26
ATOM     26  C   UNL     1       0.142  12.838  18.609  0.00  0.00    +0.000 C 
BRANCH  26  34
ATOM     27  C   UNL     1      -0.428  18.544  19.850  0.00  0.00    +0.000 C 
ATOM     28  C   UNL     1       0.634  17.735  19.834  0.00  0.00    +0.000 C 
ATOM     29  C   UNL     1       1.899  18.047  20.467  0.00  0.00    +0.000 C 
ATOM     30  C   UNL     1       2.832  17.316  19.828  0.00  0.00    +0.000 C 
ATOM     31  C   UNL     1       2.167  16.438  18.885  0.00  0.00    +0.000 C 
ATOM     32  C   UNL     1       0.834  16.543  19.043  0.00  0.00    +0.000 C 
ATOM     33  C   UNL     1      -0.021  15.324  18.842  0.00  0.00    +0.000 C 
ATOM     34  N   UNL     1       0.666  14.047  19.246  0.00  0.00    +0.000 NA
ATOM     35  C   UNL     1       2.145  14.064  19.132  0.00  0.00    +0.000 C 
ATOM     36  C   UNL     1       2.714  15.200  18.289  0.00  0.00    +0.000 C 
ENDBRANCH  26  34
ENDBRANCH   1  26
TORSDOF 7
ENDMDL
