MODEL 1
REMARK VINA RESULT:      -8.5      0.000      0.000
REMARK  Name = 
REMARK  4 active torsions:
REMARK  status: ('A' for Active; 'I' for Inactive)
REMARK    1  A    between atoms: C_4  and  C_5
REMARK    2  A    between atoms: C_5  and  N_6
REMARK    3  A    between atoms: C_9  and  C_10
REMARK    4  A    between atoms: C_14  and  C_15
REMARK                            x       y       z     vdW  Elec       q    Type
REMARK                         _______ _______ _______ _____ _____    ______ ____
ROOT
ATOM      1  N   UNL     1       7.366   6.852  17.508  0.00  0.00    +0.000 N 
ATOM      2  N   UNL     1       8.057   6.545  18.617  0.00  0.00    +0.000 NA
ATOM      3  N   UNL     1       8.588   7.692  19.012  0.00  0.00    +0.000 NA
ATOM      4  C   UNL     1       8.193   8.654  18.108  0.00  0.00    +0.000 A 
ATOM      5  N   UNL     1       7.413   8.150  17.133  0.00  0.00    +0.000 NA
ENDROOT
BRANCH   4   6
ATOM      6  C   UNL     1       8.640  10.041  18.202  0.00  0.00    +0.000 A 
ATOM      7  C   UNL     1       8.002  11.034  17.443  0.00  0.00    +0.000 A 
ATOM      8  C   UNL     1       8.367  12.375  17.562  0.00  0.00    +0.000 A 
ATOM      9  C   UNL     1       9.391  12.744  18.433  0.00  0.00    +0.000 A 
ATOM     10  C   UNL     1      10.070  11.771  19.182  0.00  0.00    +0.000 A 
ATOM     11  C   UNL     1       9.684  10.422  19.061  0.00  0.00    +0.000 A 
BRANCH  10  12
ATOM     12  C   UNL     1      11.202  12.160  20.103  0.00  0.00    +0.000 C 
ATOM     13  F   UNL     1      12.333  11.423  19.915  0.00  0.00    +0.000 F 
ATOM     14  F   UNL     1      11.576  13.460  19.955  0.00  0.00    +0.000 F 
ATOM     15  F   UNL     1      10.877  12.008  21.417  0.00  0.00    +0.000 F 
ENDBRANCH  10  12
ENDBRANCH   4   6
BRANCH   1  16
ATOM     16  C   UNL     1       6.670   5.829  16.741  0.00  0.00    +0.000 C 
BRANCH  16  20
ATOM     17  O   UNL     1       2.110   6.841  18.158  0.00  0.00    +0.000 OA
ATOM     18  C   UNL     1       2.970   5.998  17.923  0.00  0.00    +0.000 A 
ATOM     19  C   UNL     1       4.313   6.418  17.464  0.00  0.00    +0.000 A 
ATOM     20  C   UNL     1       5.260   5.495  17.211  0.00  0.00    +0.000 A 
ATOM     21  N   UNL     1       5.031   4.135  17.354  0.00  0.00    +0.000 NA
ATOM     22  C   UNL     1       3.852   3.794  17.756  0.00  0.00    +0.000 A 
ATOM     23  S   UNL     1       3.328   2.136  18.012  0.00  0.00    +0.000 S 
ATOM     24  C   UNL     1       1.749   2.684  18.508  0.00  0.00    +0.000 A 
ATOM     25  C   UNL     1       1.658   4.018  18.465  0.00  0.00    +0.000 A 
ATOM     26  N   UNL     1       2.813   4.642  18.049  0.00  0.00    +0.000 N 
ENDBRANCH  16  20
ENDBRANCH   1  16
TORSDOF 4
ENDMDL
MODEL 2
REMARK VINA RESULT:      -8.2      6.566      8.831
REMARK  Name = 
REMARK  4 active torsions:
REMARK  status: ('A' for Active; 'I' for Inactive)
REMARK    1  A    between atoms: C_4  and  C_5
REMARK    2  A    between atoms: C_5  and  N_6
REMARK    3  A    between atoms: C_9  and  C_10
REMARK    4  A    between atoms: C_14  and  C_15
REMARK                            x       y       z     vdW  Elec       q    Type
REMARK                         _______ _______ _______ _____ _____    ______ ____
ROOT
ATOM      1  N   UNL     1       1.628   9.158  18.918  0.00  0.00    +0.000 N 
ATOM      2  N   UNL     1       1.535   8.593  20.133  0.00  0.00    +0.000 NA
ATOM      3  N   UNL     1       1.996   7.363  19.969  0.00  0.00    +0.000 NA
ATOM      4  C   UNL     1       2.347   7.234  18.642  0.00  0.00    +0.000 A 
ATOM      5  N   UNL     1       2.123   8.363  17.942  0.00  0.00    +0.000 NA
ENDROOT
BRANCH   4   6
ATOM      6  C   UNL     1       2.849   5.980  18.088  0.00  0.00    +0.000 A 
ATOM      7  C   UNL     1       2.032   4.839  18.093  0.00  0.00    +0.000 A 
ATOM      8  C   UNL     1       2.463   3.645  17.512  0.00  0.00    +0.000 A 
ATOM      9  C   UNL     1       3.727   3.569  16.931  0.00  0.00    +0.000 A 
ATOM     10  C   UNL     1       4.579   4.683  16.938  0.00  0.00    +0.000 A 
ATOM     11  C   UNL     1       4.128   5.886  17.518  0.00  0.00    +0.000 A 
BRANCH  10  12
ATOM     12  C   UNL     1       5.963   4.599  16.339  0.00  0.00    +0.000 C 
ATOM     13  F   UNL     1       6.958   4.578  17.270  0.00  0.00    +0.000 F 
ATOM     14  F   UNL     1       6.139   3.481  15.582  0.00  0.00    +0.000 F 
ATOM     15  F   UNL     1       6.241   5.654  15.524  0.00  0.00    +0.000 F 
ENDBRANCH  10  12
ENDBRANCH   4   6
BRANCH   1  16
ATOM     16  C   UNL     1       1.166  10.516  18.676  0.00  0.00    +0.000 C 
BRANCH  16  20
ATOM     17  O   UNL     1      -3.205   9.679  16.672  0.00  0.00    +0.000 OA
ATOM     18  C   UNL     1      -2.536  10.268  17.515  0.00  0.00    +0.000 A 
ATOM     19  C   UNL     1      -1.077  10.036  17.597  0.00  0.00    +0.000 A 
ATOM     20  C   UNL     1      -0.340  10.685  18.518  0.00  0.00    +0.000 A 
ATOM     21  N   UNL     1      -0.896  11.577  19.422  0.00  0.00    +0.000 NA
ATOM     22  C   UNL     1      -2.170  11.763  19.330  0.00  0.00    +0.000 A 
ATOM     23  S   UNL     1      -3.095  12.844  20.362  0.00  0.00    +0.000 S 
ATOM     24  C   UNL     1      -4.565  12.435  19.517  0.00  0.00    +0.000 A 
ATOM     25  C   UNL     1      -4.338  11.545  18.544  0.00  0.00    +0.000 A 
ATOM     26  N   UNL     1      -3.019  11.165  18.432  0.00  0.00    +0.000 N 
ENDBRANCH  16  20
ENDBRANCH   1  16
TORSDOF 4
ENDMDL
MODEL 3
REMARK VINA RESULT:      -8.2      7.258      9.453
REMARK  Name = 
REMARK  4 active torsions:
REMARK  status: ('A' for Active; 'I' for Inactive)
REMARK    1  A    between atoms: C_4  and  C_5
REMARK    2  A    between atoms: C_5  and  N_6
REMARK    3  A    between atoms: C_9  and  C_10
REMARK    4  A    between atoms: C_14  and  C_15
REMARK                            x       y       z     vdW  Elec       q    Type
REMARK                         _______ _______ _______ _____ _____    ______ ____
ROOT
ATOM      1  N   UNL     1       1.552   9.382  18.976  0.00  0.00    +0.000 N 
ATOM      2  N   UNL     1       1.405   8.756  20.155  0.00  0.00    +0.000 NA
ATOM      3  N   UNL     1       1.957   7.566  19.976  0.00  0.00    +0.000 NA
ATOM      4  C   UNL     1       2.414   7.522  18.677  0.00  0.00    +0.000 A 
ATOM      5  N   UNL     1       2.169   8.665  18.009  0.00  0.00    +0.000 NA
ENDROOT
BRANCH   4   6
ATOM      6  C   UNL     1       3.037   6.328  18.111  0.00  0.00    +0.000 A 
ATOM      7  C   UNL     1       4.125   6.458  17.234  0.00  0.00    +0.000 A 
ATOM      8  C   UNL     1       4.778   5.332  16.729  0.00  0.00    +0.000 A 
ATOM      9  C   UNL     1       4.343   4.057  17.084  0.00  0.00    +0.000 A 
ATOM     10  C   UNL     1       3.239   3.894  17.934  0.00  0.00    +0.000 A 
ATOM     11  C   UNL     1       2.595   5.038  18.445  0.00  0.00    +0.000 A 
BRANCH  10  12
ATOM     12  C   UNL     1       2.742   2.515  18.296  0.00  0.00    +0.000 C 
ATOM     13  F   UNL     1       2.803   2.248  19.632  0.00  0.00    +0.000 F 
ATOM     14  F   UNL     1       1.445   2.314  17.936  0.00  0.00    +0.000 F 
ATOM     15  F   UNL     1       3.459   1.528  17.689  0.00  0.00    +0.000 F 
ENDBRANCH  10  12
ENDBRANCH   4   6
BRANCH   1  16
ATOM     16  C   UNL     1       1.021  10.719  18.755  0.00  0.00    +0.000 C 
BRANCH  16  20
ATOM     17  O   UNL     1      -3.203   9.646  16.558  0.00  0.00    +0.000 OA
ATOM     18  C   UNL     1      -2.606  10.270  17.429  0.00  0.00    +0.000 A 
ATOM     19  C   UNL     1      -1.142  10.117  17.577  0.00  0.00    +0.000 A 
ATOM     20  C   UNL     1      -0.483  10.805  18.530  0.00  0.00    +0.000 A 
ATOM     21  N   UNL     1      -1.127  11.664  19.407  0.00  0.00    +0.000 NA
ATOM     22  C   UNL     1      -2.404  11.780  19.257  0.00  0.00    +0.000 A 
ATOM     23  S   UNL     1      -3.433  12.808  20.245  0.00  0.00    +0.000 S 
ATOM     24  C   UNL     1      -4.839  12.319  19.336  0.00  0.00    +0.000 A 
ATOM     25  C   UNL     1      -4.520  11.444  18.375  0.00  0.00    +0.000 A 
ATOM     26  N   UNL     1      -3.178  11.138  18.323  0.00  0.00    +0.000 N 
ENDBRANCH  16  20
ENDBRANCH   1  16
TORSDOF 4
ENDMDL
MODEL 4
REMARK VINA RESULT:      -8.2      7.268      9.514
REMARK  Name = 
REMARK  4 active torsions:
REMARK  status: ('A' for Active; 'I' for Inactive)
REMARK    1  A    between atoms: C_4  and  C_5
REMARK    2  A    between atoms: C_5  and  N_6
REMARK    3  A    between atoms: C_9  and  C_10
REMARK    4  A    between atoms: C_14  and  C_15
REMARK                            x       y       z     vdW  Elec       q    Type
REMARK                         _______ _______ _______ _____ _____    ______ ____
ROOT
ATOM      1  N   UNL     1       1.530   9.476  18.863  0.00  0.00    +0.000 N 
ATOM      2  N   UNL     1       2.116   9.736  17.684  0.00  0.00    +0.000 NA
ATOM      3  N   UNL     1       2.625   8.577  17.298  0.00  0.00    +0.000 NA
ATOM      4  C   UNL     1       2.325   7.655  18.277  0.00  0.00    +0.000 A 
ATOM      5  N   UNL     1       1.628   8.198  19.293  0.00  0.00    +0.000 NA
ENDROOT
BRANCH   4   6
ATOM      6  C   UNL     1       2.782   6.269  18.209  0.00  0.00    +0.000 A 
ATOM      7  C   UNL     1       3.970   5.959  17.529  0.00  0.00    +0.000 A 
ATOM      8  C   UNL     1       4.461   4.652  17.503  0.00  0.00    +0.000 A 
ATOM      9  C   UNL     1       3.761   3.632  18.144  0.00  0.00    +0.000 A 
ATOM     10  C   UNL     1       2.554   3.905  18.804  0.00  0.00    +0.000 A 
ATOM     11  C   UNL     1       2.074   5.229  18.833  0.00  0.00    +0.000 A 
BRANCH  10  12
ATOM     12  C   UNL     1       1.774   2.798  19.472  0.00  0.00    +0.000 C 
ATOM     13  F   UNL     1       0.438   2.837  19.206  0.00  0.00    +0.000 F 
ATOM     14  F   UNL     1       2.192   1.559  19.094  0.00  0.00    +0.000 F 
ATOM     15  F   UNL     1       1.881   2.833  20.830  0.00  0.00    +0.000 F 
ENDBRANCH  10  12
ENDBRANCH   4   6
BRANCH   1  16
ATOM     16  C   UNL     1       0.890  10.527  19.639  0.00  0.00    +0.000 C 
BRANCH  16  20
ATOM     17  O   UNL     1      -3.429  12.766  20.040  0.00  0.00    +0.000 OA
ATOM     18  C   UNL     1      -2.683  12.041  19.390  0.00  0.00    +0.000 A 
ATOM     19  C   UNL     1      -1.332  11.719  19.902  0.00  0.00    +0.000 A 
ATOM     20  C   UNL     1      -0.513  10.920  19.193  0.00  0.00    +0.000 A 
ATOM     21  N   UNL     1      -0.878  10.377  17.970  0.00  0.00    +0.000 NA
ATOM     22  C   UNL     1      -2.060  10.673  17.545  0.00  0.00    +0.000 A 
ATOM     23  S   UNL     1      -2.744  10.104  16.029  0.00  0.00    +0.000 S 
ATOM     24  C   UNL     1      -4.230  10.961  16.347  0.00  0.00    +0.000 A 
ATOM     25  C   UNL     1      -4.175  11.618  17.511  0.00  0.00    +0.000 A 
ATOM     26  N   UNL     1      -2.981  11.468  18.181  0.00  0.00    +0.000 N 
ENDBRANCH  16  20
ENDBRANCH   1  16
TORSDOF 4
ENDMDL
MODEL 5
REMARK VINA RESULT:      -8.2      7.295      9.529
REMARK  Name = 
REMARK  4 active torsions:
REMARK  status: ('A' for Active; 'I' for Inactive)
REMARK    1  A    between atoms: C_4  and  C_5
REMARK    2  A    between atoms: C_5  and  N_6
REMARK    3  A    between atoms: C_9  and  C_10
REMARK    4  A    between atoms: C_14  and  C_15
REMARK                            x       y       z     vdW  Elec       q    Type
REMARK                         _______ _______ _______ _____ _____    ______ ____
ROOT
ATOM      1  N   UNL     1       1.503   9.543  18.669  0.00  0.00    +0.000 N 
ATOM      2  N   UNL     1       2.112   9.554  17.473  0.00  0.00    +0.000 NA
ATOM      3  N   UNL     1       2.684   8.364  17.375  0.00  0.00    +0.000 NA
ATOM      4  C   UNL     1       2.396   7.678  18.535  0.00  0.00    +0.000 A 
ATOM      5  N   UNL     1       1.645   8.404  19.385  0.00  0.00    +0.000 NA
ENDROOT
BRANCH   4   6
ATOM      6  C   UNL     1       2.916   6.339  18.797  0.00  0.00    +0.000 A 
ATOM      7  C   UNL     1       4.147   5.948  18.249  0.00  0.00    +0.000 A 
ATOM      8  C   UNL     1       4.696   4.697  18.536  0.00  0.00    +0.000 A 
ATOM      9  C   UNL     1       4.012   3.809  19.364  0.00  0.00    +0.000 A 
ATOM     10  C   UNL     1       2.764   4.157  19.900  0.00  0.00    +0.000 A 
ATOM     11  C   UNL     1       2.226   5.427  19.612  0.00  0.00    +0.000 A 
BRANCH  10  12
ATOM     12  C   UNL     1       2.002   3.187  20.772  0.00  0.00    +0.000 C 
ATOM     13  F   UNL     1       2.559   3.011  22.004  0.00  0.00    +0.000 F 
ATOM     14  F   UNL     1       0.719   3.581  20.997  0.00  0.00    +0.000 F 
ATOM     15  F   UNL     1       1.924   1.944  20.220  0.00  0.00    +0.000 F 
ENDBRANCH  10  12
ENDBRANCH   4   6
BRANCH   1  16
ATOM     16  C   UNL     1       0.793  10.711  19.170  0.00  0.00    +0.000 C 
BRANCH  16  20
ATOM     17  O   UNL     1      -3.147   9.737  16.460  0.00  0.00    +0.000 OA
ATOM     18  C   UNL     1      -2.655  10.329  17.414  0.00  0.00    +0.000 A 
ATOM     19  C   UNL     1      -1.218  10.162  17.728  0.00  0.00    +0.000 A 
ATOM     20  C   UNL     1      -0.674  10.815  18.772  0.00  0.00    +0.000 A 
ATOM     21  N   UNL     1      -1.413  11.650  19.595  0.00  0.00    +0.000 NA
ATOM     22  C   UNL     1      -2.663  11.780  19.300  0.00  0.00    +0.000 A 
ATOM     23  S   UNL     1      -3.798  12.783  20.194  0.00  0.00    +0.000 S 
ATOM     24  C   UNL     1      -5.089  12.334  19.110  0.00  0.00    +0.000 A 
ATOM     25  C   UNL     1      -4.662  11.487  18.166  0.00  0.00    +0.000 A 
ATOM     26  N   UNL     1      -3.325  11.173  18.262  0.00  0.00    +0.000 N 
ENDBRANCH  16  20
ENDBRANCH   1  16
TORSDOF 4
ENDMDL
MODEL 6
REMARK VINA RESULT:      -8.1      6.713      8.586
REMARK  Name = 
REMARK  4 active torsions:
REMARK  status: ('A' for Active; 'I' for Inactive)
REMARK    1  A    between atoms: C_4  and  C_5
REMARK    2  A    between atoms: C_5  and  N_6
REMARK    3  A    between atoms: C_9  and  C_10
REMARK    4  A    between atoms: C_14  and  C_15
REMARK                            x       y       z     vdW  Elec       q    Type
REMARK                         _______ _______ _______ _____ _____    ______ ____
ROOT
ATOM      1  N   UNL     1       6.691   4.751  16.333  0.00  0.00    +0.000 N 
ATOM      2  N   UNL     1       7.492   5.623  15.701  0.00  0.00    +0.000 NA
ATOM      3  N   UNL     1       7.379   5.316  14.419  0.00  0.00    +0.000 NA
ATOM      4  C   UNL     1       6.506   4.253  14.331  0.00  0.00    +0.000 A 
ATOM      5  N   UNL     1       6.050   3.866  15.537  0.00  0.00    +0.000 NA
ENDROOT
BRANCH   4   6
ATOM      6  C   UNL     1       6.185   3.613  13.058  0.00  0.00    +0.000 A 
ATOM      7  C   UNL     1       7.123   2.769  12.445  0.00  0.00    +0.000 A 
ATOM      8  C   UNL     1       6.817   2.095  11.262  0.00  0.00    +0.000 A 
ATOM      9  C   UNL     1       5.570   2.267  10.664  0.00  0.00    +0.000 A 
ATOM     10  C   UNL     1       4.622   3.129  11.235  0.00  0.00    +0.000 A 
ATOM     11  C   UNL     1       4.939   3.795  12.436  0.00  0.00    +0.000 A 
BRANCH  10  12
ATOM     12  C   UNL     1       3.282   3.345  10.576  0.00  0.00    +0.000 C 
ATOM     13  F   UNL     1       3.180   2.763   9.347  0.00  0.00    +0.000 F 
ATOM     14  F   UNL     1       2.249   2.847  11.309  0.00  0.00    +0.000 F 
ATOM     15  F   UNL     1       3.005   4.665  10.382  0.00  0.00    +0.000 F 
ENDBRANCH  10  12
ENDBRANCH   4   6
BRANCH   1  16
ATOM     16  C   UNL     1       6.581   4.737  17.785  0.00  0.00    +0.000 C 
BRANCH  16  20
ATOM     17  O   UNL     1       2.552   6.916  19.469  0.00  0.00    +0.000 OA
ATOM     18  C   UNL     1       3.139   5.876  19.188  0.00  0.00    +0.000 A 
ATOM     19  C   UNL     1       4.515   5.927  18.646  0.00  0.00    +0.000 A 
ATOM     20  C   UNL     1       5.164   4.787  18.342  0.00  0.00    +0.000 A 
ATOM     21  N   UNL     1       4.589   3.536  18.507  0.00  0.00    +0.000 NA
ATOM     22  C   UNL     1       3.388   3.519  18.982  0.00  0.00    +0.000 A 
ATOM     23  S   UNL     1       2.457   2.058  19.280  0.00  0.00    +0.000 S 
ATOM     24  C   UNL     1       1.114   3.003  19.868  0.00  0.00    +0.000 A 
ATOM     25  C   UNL     1       1.381   4.313  19.822  0.00  0.00    +0.000 A 
ATOM     26  N   UNL     1       2.634   4.610  19.332  0.00  0.00    +0.000 N 
ENDBRANCH  16  20
ENDBRANCH   1  16
TORSDOF 4
ENDMDL
MODEL 7
REMARK VINA RESULT:      -8.1      6.187      8.376
REMARK  Name = 
REMARK  4 active torsions:
REMARK  status: ('A' for Active; 'I' for Inactive)
REMARK    1  A    between atoms: C_4  and  C_5
REMARK    2  A    between atoms: C_5  and  N_6
REMARK    3  A    between atoms: C_9  and  C_10
REMARK    4  A    between atoms: C_14  and  C_15
REMARK                            x       y       z     vdW  Elec       q    Type
REMARK                         _______ _______ _______ _____ _____    ______ ____
ROOT
ATOM      1  N   UNL     1       1.553   9.171  18.948  0.00  0.00    +0.000 N 
ATOM      2  N   UNL     1       2.018   9.653  17.785  0.00  0.00    +0.000 NA
ATOM      3  N   UNL     1       2.677   8.643  17.240  0.00  0.00    +0.000 NA
ATOM      4  C   UNL     1       2.585   7.580  18.113  0.00  0.00    +0.000 A 
ATOM      5  N   UNL     1       1.876   7.885  19.216  0.00  0.00    +0.000 NA
ENDROOT
BRANCH   4   6
ATOM      6  C   UNL     1       3.247   6.304  17.858  0.00  0.00    +0.000 A 
ATOM      7  C   UNL     1       2.512   5.110  17.929  0.00  0.00    +0.000 A 
ATOM      8  C   UNL     1       3.105   3.883  17.628  0.00  0.00    +0.000 A 
ATOM      9  C   UNL     1       4.449   3.829  17.266  0.00  0.00    +0.000 A 
ATOM     10  C   UNL     1       5.219   5.001  17.217  0.00  0.00    +0.000 A 
ATOM     11  C   UNL     1       4.606   6.235  17.513  0.00  0.00    +0.000 A 
BRANCH  10  12
ATOM     12  C   UNL     1       6.684   4.946  16.857  0.00  0.00    +0.000 C 
ATOM     13  F   UNL     1       6.941   4.216  15.734  0.00  0.00    +0.000 F 
ATOM     14  F   UNL     1       7.215   6.178  16.628  0.00  0.00    +0.000 F 
ATOM     15  F   UNL     1       7.441   4.387  17.842  0.00  0.00    +0.000 F 
ENDBRANCH  10  12
ENDBRANCH   4   6
BRANCH   1  16
ATOM     16  C   UNL     1       0.806  10.011  19.873  0.00  0.00    +0.000 C 
BRANCH  16  20
ATOM     17  O   UNL     1      -3.182  12.821  19.985  0.00  0.00    +0.000 OA
ATOM     18  C   UNL     1      -2.514  11.976  19.398  0.00  0.00    +0.000 A 
ATOM     19  C   UNL     1      -1.243  11.499  19.986  0.00  0.00    +0.000 A 
ATOM     20  C   UNL     1      -0.510  10.567  19.346  0.00  0.00    +0.000 A 
ATOM     21  N   UNL     1      -0.893  10.027  18.129  0.00  0.00    +0.000 NA
ATOM     22  C   UNL     1      -2.006  10.459  17.637  0.00  0.00    +0.000 A 
ATOM     23  S   UNL     1      -2.696   9.922  16.112  0.00  0.00    +0.000 S 
ATOM     24  C   UNL     1      -4.064  10.983  16.327  0.00  0.00    +0.000 A 
ATOM     25  C   UNL     1      -3.970  11.676  17.468  0.00  0.00    +0.000 A 
ATOM     26  N   UNL     1      -2.836  11.397  18.198  0.00  0.00    +0.000 N 
ENDBRANCH  16  20
ENDBRANCH   1  16
TORSDOF 4
ENDMDL
MODEL 8
REMARK VINA RESULT:      -8.0      7.581      9.852
REMARK  Name = 
REMARK  4 active torsions:
REMARK  status: ('A' for Active; 'I' for Inactive)
REMARK    1  A    between atoms: C_4  and  C_5
REMARK    2  A    between atoms: C_5  and  N_6
REMARK    3  A    between atoms: C_9  and  C_10
REMARK    4  A    between atoms: C_14  and  C_15
REMARK                            x       y       z     vdW  Elec       q    Type
REMARK                         _______ _______ _______ _____ _____    ______ ____
ROOT
ATOM      1  N   UNL     1       1.049   9.756  19.846  0.00  0.00    +0.000 N 
ATOM      2  N   UNL     1       0.882   9.426  21.136  0.00  0.00    +0.000 NA
ATOM      3  N   UNL     1       1.369   8.200  21.237  0.00  0.00    +0.000 NA
ATOM      4  C   UNL     1       1.811   7.834  19.984  0.00  0.00    +0.000 A 
ATOM      5  N   UNL     1       1.619   8.805  19.071  0.00  0.00    +0.000 NA
ENDROOT
BRANCH   4   6
ATOM      6  C   UNL     1       2.365   6.511  19.709  0.00  0.00    +0.000 A 
ATOM      7  C   UNL     1       3.384   6.366  18.755  0.00  0.00    +0.000 A 
ATOM      8  C   UNL     1       3.975   5.123  18.519  0.00  0.00    +0.000 A 
ATOM      9  C   UNL     1       3.543   4.002  19.224  0.00  0.00    +0.000 A 
ATOM     10  C   UNL     1       2.505   4.108  20.161  0.00  0.00    +0.000 A 
ATOM     11  C   UNL     1       1.924   5.370  20.398  0.00  0.00    +0.000 A 
BRANCH  10  12
ATOM     12  C   UNL     1       2.010   2.891  20.905  0.00  0.00    +0.000 C 
ATOM     13  F   UNL     1       1.754   1.825  20.094  0.00  0.00    +0.000 F 
ATOM     14  F   UNL     1       2.901   2.446  21.833  0.00  0.00    +0.000 F 
ATOM     15  F   UNL     1       0.851   3.129  21.579  0.00  0.00    +0.000 F 
ENDBRANCH  10  12
ENDBRANCH   4   6
BRANCH   1  16
ATOM     16  C   UNL     1       0.587  11.033  19.323  0.00  0.00    +0.000 C 
BRANCH  16  20
ATOM     17  O   UNL     1      -3.279   9.921  16.559  0.00  0.00    +0.000 OA
ATOM     18  C   UNL     1      -2.821  10.531  17.519  0.00  0.00    +0.000 A 
ATOM     19  C   UNL     1      -1.384  10.413  17.853  0.00  0.00    +0.000 A 
ATOM     20  C   UNL     1      -0.877  11.086  18.904  0.00  0.00    +0.000 A 
ATOM     21  N   UNL     1      -1.657  11.897  19.715  0.00  0.00    +0.000 NA
ATOM     22  C   UNL     1      -2.906  11.983  19.403  0.00  0.00    +0.000 A 
ATOM     23  S   UNL     1      -4.087  12.947  20.278  0.00  0.00    +0.000 S 
ATOM     24  C   UNL     1      -5.346  12.453  19.177  0.00  0.00    +0.000 A 
ATOM     25  C   UNL     1      -4.877  11.620  18.241  0.00  0.00    +0.000 A 
ATOM     26  N   UNL     1      -3.531  11.352  18.356  0.00  0.00    +0.000 N 
ENDBRANCH  16  20
ENDBRANCH   1  16
TORSDOF 4
ENDMDL
MODEL 9
REMARK VINA RESULT:      -8.0      6.600      8.072
REMARK  Name = 
REMARK  4 active torsions:
REMARK  status: ('A' for Active; 'I' for Inactive)
REMARK    1  A    between atoms: C_4  and  C_5
REMARK    2  A    between atoms: C_5  and  N_6
REMARK    3  A    between atoms: C_9  and  C_10
REMARK    4  A    between atoms: C_14  and  C_15
REMARK                            x       y       z     vdW  Elec       q    Type
REMARK                         _______ _______ _______ _____ _____    ______ ____
ROOT
ATOM      1  N   UNL     1       3.203   4.730  18.816  0.00  0.00    +0.000 N 
ATOM      2  N   UNL     1       2.782   3.546  18.343  0.00  0.00    +0.000 NA
ATOM      3  N   UNL     1       3.553   3.309  17.293  0.00  0.00    +0.000 NA
ATOM      4  C   UNL     1       4.414   4.378  17.172  0.00  0.00    +0.000 A 
ATOM      5  N   UNL     1       4.215   5.305  18.129  0.00  0.00    +0.000 NA
ENDROOT
BRANCH   4   6
ATOM      6  C   UNL     1       5.379   4.481  16.081  0.00  0.00    +0.000 A 
ATOM      7  C   UNL     1       6.631   5.073  16.310  0.00  0.00    +0.000 A 
ATOM      8  C   UNL     1       7.595   5.126  15.302  0.00  0.00    +0.000 A 
ATOM      9  C   UNL     1       7.315   4.602  14.042  0.00  0.00    +0.000 A 
ATOM     10  C   UNL     1       6.062   4.032  13.772  0.00  0.00    +0.000 A 
ATOM     11  C   UNL     1       5.101   3.975  14.802  0.00  0.00    +0.000 A 
BRANCH  10  12
ATOM     12  C   UNL     1       5.740   3.491  12.400  0.00  0.00    +0.000 C 
ATOM     13  F   UNL     1       5.904   2.142  12.295  0.00  0.00    +0.000 F 
ATOM     14  F   UNL     1       4.455   3.739  12.026  0.00  0.00    +0.000 F 
ATOM     15  F   UNL     1       6.526   4.035  11.429  0.00  0.00    +0.000 F 
ENDBRANCH  10  12
ENDBRANCH   4   6
BRANCH   1  16
ATOM     16  C   UNL     1       2.558   5.363  19.957  0.00  0.00    +0.000 C 
BRANCH  16  20
ATOM     17  O   UNL     1       1.944   9.497  17.437  0.00  0.00    +0.000 OA
ATOM     18  C   UNL     1       1.812   8.886  18.492  0.00  0.00    +0.000 A 
ATOM     19  C   UNL     1       2.261   7.480  18.594  0.00  0.00    +0.000 A 
ATOM     20  C   UNL     1       2.122   6.808  19.753  0.00  0.00    +0.000 A 
ATOM     21  N   UNL     1       1.557   7.381  20.882  0.00  0.00    +0.000 NA
ATOM     22  C   UNL     1       1.174   8.609  20.768  0.00  0.00    +0.000 A 
ATOM     23  S   UNL     1       0.433   9.545  22.059  0.00  0.00    +0.000 S 
ATOM     24  C   UNL     1       0.307  10.935  21.013  0.00  0.00    +0.000 A 
ATOM     25  C   UNL     1       0.789  10.675  19.793  0.00  0.00    +0.000 A 
ATOM     26  N   UNL     1       1.269   9.392  19.645  0.00  0.00    +0.000 N 
ENDBRANCH  16  20
ENDBRANCH   1  16
TORSDOF 4
ENDMDL
