MODEL 1
REMARK VINA RESULT:      -9.0      0.000      0.000
REMARK  Name = 
REMARK  5 active torsions:
REMARK  status: ('A' for Active; 'I' for Inactive)
REMARK    1  A    between atoms: C_1  and  C_2
REMARK    2  A    between atoms: C_2  and  C_3
REMARK    3  A    between atoms: C_7  and  N_8
REMARK    4  A    between atoms: C_15  and  C_16
REMARK    5  A    between atoms: C_18  and  C_19
REMARK                            x       y       z     vdW  Elec       q    Type
REMARK                         _______ _______ _______ _____ _____    ______ ____
ROOT
ATOM      1  N   UNL     1       5.679   5.388  15.693  0.00  0.00    +0.000 N 
ATOM      2  C   UNL     1       5.498   4.608  16.821  0.00  0.00    +0.000 C 
ATOM      3  O   UNL     1       5.795   3.412  16.890  0.00  0.00    +0.000 OA
ATOM      4  N   UNL     1       4.984   5.249  17.936  0.00  0.00    +0.000 N 
ATOM      5  C   UNL     1       4.946   4.515  19.203  0.00  0.00    +0.000 C 
ATOM      6  C   UNL     1       3.506   4.227  19.612  0.00  0.00    +0.000 C 
ATOM      7  C   UNL     1       2.704   5.524  19.703  0.00  0.00    +0.000 C 
ATOM      8  C   UNL     1       2.812   6.346  18.406  0.00  0.00    +0.000 C 
ATOM      9  C   UNL     1       4.282   6.530  17.968  0.00  0.00    +0.000 C 
ATOM     10  H   UNL     1       5.765   6.378  15.848  0.00  0.00    +0.000 HD
ENDROOT
BRANCH   1  15
ATOM     11  C   UNL     1       5.923   3.558  12.437  0.00  0.00    +0.000 A 
ATOM     12  C   UNL     1       7.095   4.117  11.914  0.00  0.00    +0.000 A 
ATOM     13  C   UNL     1       7.854   4.997  12.674  0.00  0.00    +0.000 A 
ATOM     14  C   UNL     1       7.423   5.363  13.948  0.00  0.00    +0.000 A 
ATOM     15  C   UNL     1       6.208   4.904  14.462  0.00  0.00    +0.000 A 
ATOM     16  C   UNL     1       5.481   3.959  13.717  0.00  0.00    +0.000 A 
BRANCH  11  18
ATOM     17  C   UNL     1       3.878   3.131  11.014  0.00  0.00    +0.000 C 
ATOM     18  C   UNL     1       5.161   2.559  11.599  0.00  0.00    +0.000 C 
ENDBRANCH  11  18
ENDBRANCH   1  15
BRANCH   8  19
ATOM     19  C   UNL     1       2.182   7.687  18.591  0.00  0.00    +0.000 A 
ATOM     20  N   UNL     1       1.494   8.076  19.642  0.00  0.00    +0.000 NA
ATOM     21  C   UNL     1       1.167   9.391  19.419  0.00  0.00    +0.000 A 
ATOM     22  C   UNL     1       1.643   9.791  18.191  0.00  0.00    +0.000 A 
ATOM     23  N   UNL     1       2.277   8.696  17.669  0.00  0.00    +0.000 N 
ATOM     24  H   UNL     1       2.755   8.646  16.780  0.00  0.00    +0.000 HD
BRANCH  21  25
ATOM     25  C   UNL     1       0.472  10.208  20.403  0.00  0.00    +0.000 A 
ATOM     26  C   UNL     1       0.158   9.666  21.659  0.00  0.00    +0.000 A 
ATOM     27  C   UNL     1      -0.446  10.448  22.644  0.00  0.00    +0.000 A 
ATOM     28  C   UNL     1      -0.751  11.782  22.382  0.00  0.00    +0.000 A 
ATOM     29  C   UNL     1      -0.467  12.328  21.131  0.00  0.00    +0.000 A 
ATOM     30  C   UNL     1       0.137  11.543  20.145  0.00  0.00    +0.000 A 
ENDBRANCH  21  25
ENDBRANCH   8  19
TORSDOF 4
ENDMDL
MODEL 2
REMARK VINA RESULT:      -8.8      0.321      1.061
REMARK  Name = 
REMARK  5 active torsions:
REMARK  status: ('A' for Active; 'I' for Inactive)
REMARK    1  A    between atoms: C_1  and  C_2
REMARK    2  A    between atoms: C_2  and  C_3
REMARK    3  A    between atoms: C_7  and  N_8
REMARK    4  A    between atoms: C_15  and  C_16
REMARK    5  A    between atoms: C_18  and  C_19
REMARK                            x       y       z     vdW  Elec       q    Type
REMARK                         _______ _______ _______ _____ _____    ______ ____
ROOT
ATOM      1  N   UNL     1       5.747   5.435  15.656  0.00  0.00    +0.000 N 
ATOM      2  C   UNL     1       5.621   4.673  16.804  0.00  0.00    +0.000 C 
ATOM      3  O   UNL     1       5.962   3.490  16.890  0.00  0.00    +0.000 OA
ATOM      4  N   UNL     1       5.112   5.320  17.919  0.00  0.00    +0.000 N 
ATOM      5  C   UNL     1       5.131   4.612  19.201  0.00  0.00    +0.000 C 
ATOM      6  C   UNL     1       3.712   4.283  19.652  0.00  0.00    +0.000 C 
ATOM      7  C   UNL     1       2.868   5.552  19.736  0.00  0.00    +0.000 C 
ATOM      8  C   UNL     1       2.915   6.349  18.421  0.00  0.00    +0.000 C 
ATOM      9  C   UNL     1       4.366   6.575  17.942  0.00  0.00    +0.000 C 
ATOM     10  H   UNL     1       5.801   6.431  15.788  0.00  0.00    +0.000 HD
ENDROOT
BRANCH   1  15
ATOM     11  C   UNL     1       5.964   3.568  12.419  0.00  0.00    +0.000 A 
ATOM     12  C   UNL     1       7.120   4.138  11.870  0.00  0.00    +0.000 A 
ATOM     13  C   UNL     1       7.878   5.039  12.606  0.00  0.00    +0.000 A 
ATOM     14  C   UNL     1       7.462   5.414  13.883  0.00  0.00    +0.000 A 
ATOM     15  C   UNL     1       6.263   4.943  14.422  0.00  0.00    +0.000 A 
ATOM     16  C   UNL     1       5.538   3.979  13.701  0.00  0.00    +0.000 A 
BRANCH  11  18
ATOM     17  C   UNL     1       6.044   1.332  11.245  0.00  0.00    +0.000 C 
ATOM     18  C   UNL     1       5.204   2.548  11.606  0.00  0.00    +0.000 C 
ENDBRANCH  11  18
ENDBRANCH   1  15
BRANCH   8  19
ATOM     19  C   UNL     1       2.241   7.671  18.593  0.00  0.00    +0.000 A 
ATOM     20  N   UNL     1       1.596   8.071  19.666  0.00  0.00    +0.000 NA
ATOM     21  C   UNL     1       1.205   9.364  19.417  0.00  0.00    +0.000 A 
ATOM     22  C   UNL     1       1.598   9.737  18.151  0.00  0.00    +0.000 A 
ATOM     23  N   UNL     1       2.247   8.649  17.634  0.00  0.00    +0.000 N 
ATOM     24  H   UNL     1       2.679   8.585  16.721  0.00  0.00    +0.000 HD
BRANCH  21  25
ATOM     25  C   UNL     1       0.531  10.189  20.408  0.00  0.00    +0.000 A 
ATOM     26  C   UNL     1       0.066  11.465  20.050  0.00  0.00    +0.000 A 
ATOM     27  C   UNL     1      -0.643  12.248  20.962  0.00  0.00    +0.000 A 
ATOM     28  C   UNL     1      -0.892  11.767  22.245  0.00  0.00    +0.000 A 
ATOM     29  C   UNL     1      -0.418  10.512  22.623  0.00  0.00    +0.000 A 
ATOM     30  C   UNL     1       0.294   9.729  21.710  0.00  0.00    +0.000 A 
ENDBRANCH  21  25
ENDBRANCH   8  19
TORSDOF 4
ENDMDL
MODEL 3
REMARK VINA RESULT:      -8.5      1.644      2.052
REMARK  Name = 
REMARK  5 active torsions:
REMARK  status: ('A' for Active; 'I' for Inactive)
REMARK    1  A    between atoms: C_1  and  C_2
REMARK    2  A    between atoms: C_2  and  C_3
REMARK    3  A    between atoms: C_7  and  N_8
REMARK    4  A    between atoms: C_15  and  C_16
REMARK    5  A    between atoms: C_18  and  C_19
REMARK                            x       y       z     vdW  Elec       q    Type
REMARK                         _______ _______ _______ _____ _____    ______ ____
ROOT
ATOM      1  N   UNL     1       5.685   5.721  15.501  0.00  0.00    +0.000 N 
ATOM      2  C   UNL     1       5.533   5.113  16.733  0.00  0.00    +0.000 C 
ATOM      3  O   UNL     1       5.884   3.956  16.982  0.00  0.00    +0.000 OA
ATOM      4  N   UNL     1       4.983   5.890  17.740  0.00  0.00    +0.000 N 
ATOM      5  C   UNL     1       4.970   5.354  19.103  0.00  0.00    +0.000 C 
ATOM      6  C   UNL     1       3.542   5.065  19.552  0.00  0.00    +0.000 C 
ATOM      7  C   UNL     1       2.682   6.323  19.446  0.00  0.00    +0.000 C 
ATOM      8  C   UNL     1       2.760   6.944  18.040  0.00  0.00    +0.000 C 
ATOM      9  C   UNL     1       4.223   7.127  17.578  0.00  0.00    +0.000 C 
ATOM     10  H   UNL     1       5.725   6.727  15.504  0.00  0.00    +0.000 HD
ENDROOT
BRANCH   1  15
ATOM     11  C   UNL     1       5.987   3.524  12.486  0.00  0.00    +0.000 A 
ATOM     12  C   UNL     1       7.200   3.979  11.955  0.00  0.00    +0.000 A 
ATOM     13  C   UNL     1       7.962   4.915  12.643  0.00  0.00    +0.000 A 
ATOM     14  C   UNL     1       7.495   5.438  13.848  0.00  0.00    +0.000 A 
ATOM     15  C   UNL     1       6.244   5.082  14.356  0.00  0.00    +0.000 A 
ATOM     16  C   UNL     1       5.511   4.083  13.691  0.00  0.00    +0.000 A 
BRANCH  11  18
ATOM     17  C   UNL     1       6.109   1.331  11.234  0.00  0.00    +0.000 C 
ATOM     18  C   UNL     1       5.222   2.462  11.733  0.00  0.00    +0.000 C 
ENDBRANCH  11  18
ENDBRANCH   1  15
BRANCH   8  19
ATOM     19  C   UNL     1       2.068   8.267  18.020  0.00  0.00    +0.000 A 
ATOM     20  N   UNL     1       0.767   8.453  17.988  0.00  0.00    +0.000 NA
ATOM     21  C   UNL     1       0.574   9.811  18.054  0.00  0.00    +0.000 A 
ATOM     22  C   UNL     1       1.790  10.456  18.095  0.00  0.00    +0.000 A 
ATOM     23  N   UNL     1       2.731   9.464  18.062  0.00  0.00    +0.000 N 
ATOM     24  H   UNL     1       3.735   9.587  18.094  0.00  0.00    +0.000 HD
BRANCH  21  25
ATOM     25  C   UNL     1      -0.747  10.417  18.129  0.00  0.00    +0.000 A 
ATOM     26  C   UNL     1      -1.779   9.939  17.306  0.00  0.00    +0.000 A 
ATOM     27  C   UNL     1      -3.071  10.456  17.407  0.00  0.00    +0.000 A 
ATOM     28  C   UNL     1      -3.346  11.463  18.329  0.00  0.00    +0.000 A 
ATOM     29  C   UNL     1      -2.327  11.965  19.137  0.00  0.00    +0.000 A 
ATOM     30  C   UNL     1      -1.033  11.448  19.034  0.00  0.00    +0.000 A 
ENDBRANCH  21  25
ENDBRANCH   8  19
TORSDOF 4
ENDMDL
MODEL 4
REMARK VINA RESULT:      -8.4      0.789      1.325
REMARK  Name = 
REMARK  5 active torsions:
REMARK  status: ('A' for Active; 'I' for Inactive)
REMARK    1  A    between atoms: C_1  and  C_2
REMARK    2  A    between atoms: C_2  and  C_3
REMARK    3  A    between atoms: C_7  and  N_8
REMARK    4  A    between atoms: C_15  and  C_16
REMARK    5  A    between atoms: C_18  and  C_19
REMARK                            x       y       z     vdW  Elec       q    Type
REMARK                         _______ _______ _______ _____ _____    ______ ____
ROOT
ATOM      1  N   UNL     1       5.396   4.992  15.039  0.00  0.00    +0.000 N 
ATOM      2  C   UNL     1       5.656   4.380  16.252  0.00  0.00    +0.000 C 
ATOM      3  O   UNL     1       6.137   3.249  16.367  0.00  0.00    +0.000 OA
ATOM      4  N   UNL     1       5.385   5.125  17.388  0.00  0.00    +0.000 N 
ATOM      5  C   UNL     1       5.813   4.595  18.685  0.00  0.00    +0.000 C 
ATOM      6  C   UNL     1       4.605   4.217  19.535  0.00  0.00    +0.000 C 
ATOM      7  C   UNL     1       3.675   5.416  19.709  0.00  0.00    +0.000 C 
ATOM      8  C   UNL     1       3.292   6.035  18.354  0.00  0.00    +0.000 C 
ATOM      9  C   UNL     1       4.535   6.310  17.479  0.00  0.00    +0.000 C 
ATOM     10  H   UNL     1       5.372   5.998  15.046  0.00  0.00    +0.000 HD
ENDROOT
BRANCH   1  15
ATOM     11  C   UNL     1       4.726   3.405  11.716  0.00  0.00    +0.000 A 
ATOM     12  C   UNL     1       6.012   3.414  11.163  0.00  0.00    +0.000 A 
ATOM     13  C   UNL     1       7.100   3.830  11.918  0.00  0.00    +0.000 A 
ATOM     14  C   UNL     1       6.906   4.286  13.221  0.00  0.00    +0.000 A 
ATOM     15  C   UNL     1       5.626   4.385  13.771  0.00  0.00    +0.000 A 
ATOM     16  C   UNL     1       4.539   3.896  13.027  0.00  0.00    +0.000 A 
BRANCH  11  18
ATOM     17  C   UNL     1       3.063   3.914   9.882  0.00  0.00    +0.000 C 
ATOM     18  C   UNL     1       3.581   2.887  10.879  0.00  0.00    +0.000 C 
ENDBRANCH  11  18
ENDBRANCH   1  15
BRANCH   8  19
ATOM     19  C   UNL     1       2.543   7.311  18.561  0.00  0.00    +0.000 A 
ATOM     20  N   UNL     1       1.882   7.646  19.647  0.00  0.00    +0.000 NA
ATOM     21  C   UNL     1       1.414   8.919  19.431  0.00  0.00    +0.000 A 
ATOM     22  C   UNL     1       1.779   9.346  18.173  0.00  0.00    +0.000 A 
ATOM     23  N   UNL     1       2.487   8.311  17.626  0.00  0.00    +0.000 N 
ATOM     24  H   UNL     1       2.917   8.294  16.711  0.00  0.00    +0.000 HD
BRANCH  21  25
ATOM     25  C   UNL     1       0.698   9.679  20.445  0.00  0.00    +0.000 A 
ATOM     26  C   UNL     1       0.068  10.884  20.094  0.00  0.00    +0.000 A 
ATOM     27  C   UNL     1      -0.682  11.596  21.031  0.00  0.00    +0.000 A 
ATOM     28  C   UNL     1      -0.806  11.116  22.332  0.00  0.00    +0.000 A 
ATOM     29  C   UNL     1      -0.167   9.933  22.702  0.00  0.00    +0.000 A 
ATOM     30  C   UNL     1       0.586   9.221  21.764  0.00  0.00    +0.000 A 
ENDBRANCH  21  25
ENDBRANCH   8  19
TORSDOF 4
ENDMDL
MODEL 5
REMARK VINA RESULT:      -8.3      1.470      1.858
REMARK  Name = 
REMARK  5 active torsions:
REMARK  status: ('A' for Active; 'I' for Inactive)
REMARK    1  A    between atoms: C_1  and  C_2
REMARK    2  A    between atoms: C_2  and  C_3
REMARK    3  A    between atoms: C_7  and  N_8
REMARK    4  A    between atoms: C_15  and  C_16
REMARK    5  A    between atoms: C_18  and  C_19
REMARK                            x       y       z     vdW  Elec       q    Type
REMARK                         _______ _______ _______ _____ _____    ______ ____
ROOT
ATOM      1  N   UNL     1       5.441   4.965  16.143  0.00  0.00    +0.000 N 
ATOM      2  C   UNL     1       4.971   3.990  17.003  0.00  0.00    +0.000 C 
ATOM      3  O   UNL     1       5.032   2.778  16.775  0.00  0.00    +0.000 OA
ATOM      4  N   UNL     1       4.439   4.432  18.204  0.00  0.00    +0.000 N 
ATOM      5  C   UNL     1       4.099   3.435  19.221  0.00  0.00    +0.000 C 
ATOM      6  C   UNL     1       2.589   3.367  19.421  0.00  0.00    +0.000 C 
ATOM      7  C   UNL     1       2.034   4.741  19.788  0.00  0.00    +0.000 C 
ATOM      8  C   UNL     1       2.462   5.813  18.771  0.00  0.00    +0.000 C 
ATOM      9  C   UNL     1       3.986   5.784  18.519  0.00  0.00    +0.000 C 
ATOM     10  H   UNL     1       5.685   5.846  16.563  0.00  0.00    +0.000 HD
ENDROOT
BRANCH   1  15
ATOM     11  C   UNL     1       5.878   3.657  12.663  0.00  0.00    +0.000 A 
ATOM     12  C   UNL     1       7.035   4.343  12.274  0.00  0.00    +0.000 A 
ATOM     13  C   UNL     1       7.724   5.135  13.184  0.00  0.00    +0.000 A 
ATOM     14  C   UNL     1       7.236   5.285  14.481  0.00  0.00    +0.000 A 
ATOM     15  C   UNL     1       6.032   4.697  14.875  0.00  0.00    +0.000 A 
ATOM     16  C   UNL     1       5.378   3.841  13.971  0.00  0.00    +0.000 A 
BRANCH  11  18
ATOM     17  C   UNL     1       3.883   3.335  11.145  0.00  0.00    +0.000 C 
ATOM     18  C   UNL     1       5.195   2.761  11.658  0.00  0.00    +0.000 C 
ENDBRANCH  11  18
ENDBRANCH   1  15
BRANCH   8  19
ATOM     19  C   UNL     1       2.069   7.171  19.254  0.00  0.00    +0.000 A 
ATOM     20  N   UNL     1       1.656   8.166  18.501  0.00  0.00    +0.000 NA
ATOM     21  C   UNL     1       1.338   9.189  19.359  0.00  0.00    +0.000 A 
ATOM     22  C   UNL     1       1.595   8.809  20.658  0.00  0.00    +0.000 A 
ATOM     23  N   UNL     1       2.069   7.528  20.577  0.00  0.00    +0.000 N 
ATOM     24  H   UNL     1       2.342   6.938  21.352  0.00  0.00    +0.000 HD
BRANCH  21  25
ATOM     25  C   UNL     1       0.758  10.445  18.909  0.00  0.00    +0.000 A 
ATOM     26  C   UNL     1      -0.601  10.498  18.559  0.00  0.00    +0.000 A 
ATOM     27  C   UNL     1      -1.197  11.704  18.190  0.00  0.00    +0.000 A 
ATOM     28  C   UNL     1      -0.440  12.873  18.159  0.00  0.00    +0.000 A 
ATOM     29  C   UNL     1       0.916  12.833  18.481  0.00  0.00    +0.000 A 
ATOM     30  C   UNL     1       1.513  11.624  18.849  0.00  0.00    +0.000 A 
ENDBRANCH  21  25
ENDBRANCH   8  19
TORSDOF 4
ENDMDL
MODEL 6
REMARK VINA RESULT:      -8.3      1.855      9.424
REMARK  Name = 
REMARK  5 active torsions:
REMARK  status: ('A' for Active; 'I' for Inactive)
REMARK    1  A    between atoms: C_1  and  C_2
REMARK    2  A    between atoms: C_2  and  C_3
REMARK    3  A    between atoms: C_7  and  N_8
REMARK    4  A    between atoms: C_15  and  C_16
REMARK    5  A    between atoms: C_18  and  C_19
REMARK                            x       y       z     vdW  Elec       q    Type
REMARK                         _______ _______ _______ _____ _____    ______ ____
ROOT
ATOM      1  N   UNL     1       1.914   7.276  19.740  0.00  0.00    +0.000 N 
ATOM      2  C   UNL     1       1.688   5.994  20.209  0.00  0.00    +0.000 C 
ATOM      3  O   UNL     1       1.001   5.732  21.200  0.00  0.00    +0.000 OA
ATOM      4  N   UNL     1       2.251   4.963  19.475  0.00  0.00    +0.000 N 
ATOM      5  C   UNL     1       1.890   3.587  19.823  0.00  0.00    +0.000 C 
ATOM      6  C   UNL     1       3.091   2.848  20.404  0.00  0.00    +0.000 C 
ATOM      7  C   UNL     1       4.265   2.880  19.427  0.00  0.00    +0.000 C 
ATOM      8  C   UNL     1       4.593   4.318  18.986  0.00  0.00    +0.000 C 
ATOM      9  C   UNL     1       3.333   5.068  18.499  0.00  0.00    +0.000 C 
ATOM     10  H   UNL     1       2.147   7.357  18.765  0.00  0.00    +0.000 HD
ENDROOT
BRANCH   1  15
ATOM     11  C   UNL     1       0.253  10.606  20.144  0.00  0.00    +0.000 A 
ATOM     12  C   UNL     1       0.157  10.679  21.539  0.00  0.00    +0.000 A 
ATOM     13  C   UNL     1       0.735   9.699  22.336  0.00  0.00    +0.000 A 
ATOM     14  C   UNL     1       1.375   8.612  21.743  0.00  0.00    +0.000 A 
ATOM     15  C   UNL     1       1.402   8.455  20.355  0.00  0.00    +0.000 A 
ATOM     16  C   UNL     1       0.878   9.485  19.555  0.00  0.00    +0.000 A 
BRANCH  11  18
ATOM     17  C   UNL     1       0.703  12.729  18.849  0.00  0.00    +0.000 C 
ATOM     18  C   UNL     1      -0.338  11.724  19.319  0.00  0.00    +0.000 C 
ENDBRANCH  11  18
ENDBRANCH   1  15
BRANCH   8  19
ATOM     19  C   UNL     1       5.611   4.304  17.893  0.00  0.00    +0.000 A 
ATOM     20  N   UNL     1       5.355   4.245  16.605  0.00  0.00    +0.000 NA
ATOM     21  C   UNL     1       6.569   4.328  15.970  0.00  0.00    +0.000 A 
ATOM     22  C   UNL     1       7.581   4.408  16.901  0.00  0.00    +0.000 A 
ATOM     23  N   UNL     1       6.960   4.381  18.120  0.00  0.00    +0.000 N 
ATOM     24  H   UNL     1       7.408   4.437  19.024  0.00  0.00    +0.000 HD
BRANCH  21  25
ATOM     25  C   UNL     1       6.700   4.383  14.521  0.00  0.00    +0.000 A 
ATOM     26  C   UNL     1       7.652   5.236  13.942  0.00  0.00    +0.000 A 
ATOM     27  C   UNL     1       7.845   5.258  12.560  0.00  0.00    +0.000 A 
ATOM     28  C   UNL     1       7.083   4.429  11.739  0.00  0.00    +0.000 A 
ATOM     29  C   UNL     1       6.118   3.592  12.298  0.00  0.00    +0.000 A 
ATOM     30  C   UNL     1       5.924   3.573  13.681  0.00  0.00    +0.000 A 
ENDBRANCH  21  25
ENDBRANCH   8  19
TORSDOF 4
ENDMDL
MODEL 7
REMARK VINA RESULT:      -8.2      1.790      9.596
REMARK  Name = 
REMARK  5 active torsions:
REMARK  status: ('A' for Active; 'I' for Inactive)
REMARK    1  A    between atoms: C_1  and  C_2
REMARK    2  A    between atoms: C_2  and  C_3
REMARK    3  A    between atoms: C_7  and  N_8
REMARK    4  A    between atoms: C_15  and  C_16
REMARK    5  A    between atoms: C_18  and  C_19
REMARK                            x       y       z     vdW  Elec       q    Type
REMARK                         _______ _______ _______ _____ _____    ______ ____
ROOT
ATOM      1  N   UNL     1       1.862   7.518  19.434  0.00  0.00    +0.000 N 
ATOM      2  C   UNL     1       1.672   6.288  20.039  0.00  0.00    +0.000 C 
ATOM      3  O   UNL     1       0.993   6.114  21.055  0.00  0.00    +0.000 OA
ATOM      4  N   UNL     1       2.263   5.200  19.418  0.00  0.00    +0.000 N 
ATOM      5  C   UNL     1       1.941   3.859  19.913  0.00  0.00    +0.000 C 
ATOM      6  C   UNL     1       3.162   3.221  20.565  0.00  0.00    +0.000 C 
ATOM      7  C   UNL     1       4.333   3.180  19.586  0.00  0.00    +0.000 C 
ATOM      8  C   UNL     1       4.622   4.570  18.993  0.00  0.00    +0.000 C 
ATOM      9  C   UNL     1       3.341   5.229  18.433  0.00  0.00    +0.000 C 
ATOM     10  H   UNL     1       2.093   7.500  18.455  0.00  0.00    +0.000 HD
ENDROOT
BRANCH   1  15
ATOM     11  C   UNL     1       0.263   9.994  21.741  0.00  0.00    +0.000 A 
ATOM     12  C   UNL     1       0.463  11.180  21.025  0.00  0.00    +0.000 A 
ATOM     13  C   UNL     1       1.013  11.148  19.750  0.00  0.00    +0.000 A 
ATOM     14  C   UNL     1       1.411   9.932  19.197  0.00  0.00    +0.000 A 
ATOM     15  C   UNL     1       1.319   8.742  19.922  0.00  0.00    +0.000 A 
ATOM     16  C   UNL     1       0.696   8.772  21.182  0.00  0.00    +0.000 A 
BRANCH  11  18
ATOM     17  C   UNL     1      -1.472  11.142  23.177  0.00  0.00    +0.000 C 
ATOM     18  C   UNL     1      -0.394  10.071  23.099  0.00  0.00    +0.000 C 
ENDBRANCH  11  18
ENDBRANCH   1  15
BRANCH   8  19
ATOM     19  C   UNL     1       5.639   4.467  17.904  0.00  0.00    +0.000 A 
ATOM     20  N   UNL     1       5.383   4.394  16.617  0.00  0.00    +0.000 NA
ATOM     21  C   UNL     1       6.602   4.386  15.985  0.00  0.00    +0.000 A 
ATOM     22  C   UNL     1       7.614   4.424  16.918  0.00  0.00    +0.000 A 
ATOM     23  N   UNL     1       6.990   4.464  18.134  0.00  0.00    +0.000 N 
ATOM     24  H   UNL     1       7.439   4.513  19.039  0.00  0.00    +0.000 HD
BRANCH  21  25
ATOM     25  C   UNL     1       6.739   4.399  14.536  0.00  0.00    +0.000 A 
ATOM     26  C   UNL     1       7.632   5.297  13.931  0.00  0.00    +0.000 A 
ATOM     27  C   UNL     1       7.833   5.284  12.550  0.00  0.00    +0.000 A 
ATOM     28  C   UNL     1       7.139   4.374  11.756  0.00  0.00    +0.000 A 
ATOM     29  C   UNL     1       6.232   3.491  12.339  0.00  0.00    +0.000 A 
ATOM     30  C   UNL     1       6.029   3.507  13.722  0.00  0.00    +0.000 A 
ENDBRANCH  21  25
ENDBRANCH   8  19
TORSDOF 4
ENDMDL
MODEL 8
REMARK VINA RESULT:      -8.0      1.358      2.063
REMARK  Name = 
REMARK  5 active torsions:
REMARK  status: ('A' for Active; 'I' for Inactive)
REMARK    1  A    between atoms: C_1  and  C_2
REMARK    2  A    between atoms: C_2  and  C_3
REMARK    3  A    between atoms: C_7  and  N_8
REMARK    4  A    between atoms: C_15  and  C_16
REMARK    5  A    between atoms: C_18  and  C_19
REMARK                            x       y       z     vdW  Elec       q    Type
REMARK                         _______ _______ _______ _____ _____    ______ ____
ROOT
ATOM      1  N   UNL     1       5.084   5.056  17.094  0.00  0.00    +0.000 N 
ATOM      2  C   UNL     1       4.487   4.097  17.892  0.00  0.00    +0.000 C 
ATOM      3  O   UNL     1       4.462   2.892  17.623  0.00  0.00    +0.000 OA
ATOM      4  N   UNL     1       3.926   4.544  19.076  0.00  0.00    +0.000 N 
ATOM      5  C   UNL     1       3.447   3.548  20.037  0.00  0.00    +0.000 C 
ATOM      6  C   UNL     1       1.927   3.600  20.151  0.00  0.00    +0.000 C 
ATOM      7  C   UNL     1       1.466   5.004  20.537  0.00  0.00    +0.000 C 
ATOM      8  C   UNL     1       2.039   6.068  19.584  0.00  0.00    +0.000 C 
ATOM      9  C   UNL     1       3.567   5.919  19.414  0.00  0.00    +0.000 C 
ATOM     10  H   UNL     1       5.375   5.900  17.558  0.00  0.00    +0.000 HD
ENDROOT
BRANCH   1  15
ATOM     11  C   UNL     1       5.559   4.028  13.526  0.00  0.00    +0.000 A 
ATOM     12  C   UNL     1       6.877   4.451  13.309  0.00  0.00    +0.000 A 
ATOM     13  C   UNL     1       7.633   4.961  14.356  0.00  0.00    +0.000 A 
ATOM     14  C   UNL     1       7.063   5.096  15.622  0.00  0.00    +0.000 A 
ATOM     15  C   UNL     1       5.723   4.779  15.851  0.00  0.00    +0.000 A 
ATOM     16  C   UNL     1       4.985   4.198  14.804  0.00  0.00    +0.000 A 
BRANCH  11  18
ATOM     17  C   UNL     1       5.609   2.406  11.588  0.00  0.00    +0.000 C 
ATOM     18  C   UNL     1       4.794   3.424  12.373  0.00  0.00    +0.000 C 
ENDBRANCH  11  18
ENDBRANCH   1  15
BRANCH   8  19
ATOM     19  C   UNL     1       1.731   7.438  20.094  0.00  0.00    +0.000 A 
ATOM     20  N   UNL     1       1.459   8.490  19.354  0.00  0.00    +0.000 NA
ATOM     21  C   UNL     1       1.170   9.508  20.230  0.00  0.00    +0.000 A 
ATOM     22  C   UNL     1       1.302   9.063  21.526  0.00  0.00    +0.000 A 
ATOM     23  N   UNL     1       1.668   7.748  21.427  0.00  0.00    +0.000 N 
ATOM     24  H   UNL     1       1.835   7.111  22.194  0.00  0.00    +0.000 HD
BRANCH  21  25
ATOM     25  C   UNL     1       0.733  10.825  19.792  0.00  0.00    +0.000 A 
ATOM     26  C   UNL     1      -0.459  11.366  20.299  0.00  0.00    +0.000 A 
ATOM     27  C   UNL     1      -0.865  12.654  19.948  0.00  0.00    +0.000 A 
ATOM     28  C   UNL     1      -0.086  13.416  19.080  0.00  0.00    +0.000 A 
ATOM     29  C   UNL     1       1.088  12.884  18.549  0.00  0.00    +0.000 A 
ATOM     30  C   UNL     1       1.493  11.593  18.900  0.00  0.00    +0.000 A 
ENDBRANCH  21  25
ENDBRANCH   8  19
TORSDOF 4
ENDMDL
MODEL 9
REMARK VINA RESULT:      -8.0      4.011      9.760
REMARK  Name = 
REMARK  5 active torsions:
REMARK  status: ('A' for Active; 'I' for Inactive)
REMARK    1  A    between atoms: C_1  and  C_2
REMARK    2  A    between atoms: C_2  and  C_3
REMARK    3  A    between atoms: C_7  and  N_8
REMARK    4  A    between atoms: C_15  and  C_16
REMARK    5  A    between atoms: C_18  and  C_19
REMARK                            x       y       z     vdW  Elec       q    Type
REMARK                         _______ _______ _______ _____ _____    ______ ____
ROOT
ATOM      1  N   UNL     1       1.619  12.735  18.933  0.00  0.00    +0.000 N 
ATOM      2  C   UNL     1       0.705  12.528  19.950  0.00  0.00    +0.000 C 
ATOM      3  O   UNL     1       0.262  13.424  20.674  0.00  0.00    +0.000 OA
ATOM      4  N   UNL     1       0.251  11.230  20.114  0.00  0.00    +0.000 N 
ATOM      5  C   UNL     1      -0.849  10.993  21.052  0.00  0.00    +0.000 C 
ATOM      6  C   UNL     1      -0.363  10.196  22.258  0.00  0.00    +0.000 C 
ATOM      7  C   UNL     1       0.273   8.882  21.811  0.00  0.00    +0.000 C 
ATOM      8  C   UNL     1       1.370   9.115  20.758  0.00  0.00    +0.000 C 
ATOM      9  C   UNL     1       0.871  10.011  19.602  0.00  0.00    +0.000 C 
ATOM     10  H   UNL     1       1.623  12.052  18.194  0.00  0.00    +0.000 HD
ENDROOT
BRANCH   1  15
ATOM     11  C   UNL     1       1.913  16.426  18.381  0.00  0.00    +0.000 A 
ATOM     12  C   UNL     1       3.299  16.553  18.224  0.00  0.00    +0.000 A 
ATOM     13  C   UNL     1       4.109  15.426  18.186  0.00  0.00    +0.000 A 
ATOM     14  C   UNL     1       3.546  14.162  18.350  0.00  0.00    +0.000 A 
ATOM     15  C   UNL     1       2.183  14.003  18.609  0.00  0.00    +0.000 A 
ATOM     16  C   UNL     1       1.359  15.142  18.576  0.00  0.00    +0.000 A 
BRANCH  11  18
ATOM     17  C   UNL     1       1.036  18.346  16.992  0.00  0.00    +0.000 C 
ATOM     18  C   UNL     1       1.064  17.674  18.357  0.00  0.00    +0.000 C 
ENDBRANCH  11  18
ENDBRANCH   1  15
BRANCH   8  19
ATOM     19  C   UNL     1       1.840   7.810  20.202  0.00  0.00    +0.000 A 
ATOM     20  N   UNL     1       2.477   7.643  19.064  0.00  0.00    +0.000 NA
ATOM     21  C   UNL     1       2.776   6.305  18.987  0.00  0.00    +0.000 A 
ATOM     22  C   UNL     1       2.279   5.649  20.091  0.00  0.00    +0.000 A 
ATOM     23  N   UNL     1       1.677   6.614  20.851  0.00  0.00    +0.000 N 
ATOM     24  H   UNL     1       1.221   6.479  21.743  0.00  0.00    +0.000 HD
BRANCH  21  25
ATOM     25  C   UNL     1       3.560   5.734  17.902  0.00  0.00    +0.000 A 
ATOM     26  C   UNL     1       4.367   6.570  17.114  0.00  0.00    +0.000 A 
ATOM     27  C   UNL     1       5.181   6.039  16.113  0.00  0.00    +0.000 A 
ATOM     28  C   UNL     1       5.194   4.665  15.883  0.00  0.00    +0.000 A 
ATOM     29  C   UNL     1       4.381   3.825  16.642  0.00  0.00    +0.000 A 
ATOM     30  C   UNL     1       3.565   4.357  17.643  0.00  0.00    +0.000 A 
ENDBRANCH  21  25
ENDBRANCH   8  19
TORSDOF 4
ENDMDL
