MODEL 1
REMARK VINA RESULT:      -9.4      0.000      0.000
REMARK  Name = 
REMARK  4 active torsions:
REMARK  status: ('A' for Active; 'I' for Inactive)
REMARK    1  A    between atoms: C_1  and  C_2
REMARK    2  A    between atoms: C_6  and  N_7
REMARK    3  A    between atoms: C_8  and  C_10
REMARK    4  A    between atoms: C_12  and  C_13
REMARK                            x       y       z     vdW  Elec       q    Type
REMARK                         _______ _______ _______ _____ _____    ______ ____
ROOT
ATOM      1  N   UNL     1       2.075   7.654  20.608  0.00  0.00    +0.000 N 
ATOM      2  C   UNL     1       2.413   7.058  19.386  0.00  0.00    +0.000 C 
ATOM      3  O   UNL     1       2.089   7.478  18.281  0.00  0.00    +0.000 OA
ATOM      4  H   UNL     1       2.564   7.328  21.435  0.00  0.00    +0.000 HD
ENDROOT
BRANCH   1  10
ATOM      5  C   UNL     1      -2.555  12.579  23.528  0.00  0.00    +0.000 C 
ATOM      6  C   UNL     1      -1.655  11.651  22.801  0.00  0.00    +0.000 A 
ATOM      7  N   UNL     1      -0.984  10.615  23.285  0.00  0.00    +0.000 NA
ATOM      8  C   UNL     1      -0.324  10.117  22.196  0.00  0.00    +0.000 A 
ATOM      9  C   UNL     1       0.556   9.019  22.062  0.00  0.00    +0.000 A 
ATOM     10  C   UNL     1       1.135   8.724  20.812  0.00  0.00    +0.000 A 
ATOM     11  C   UNL     1       0.802   9.549  19.711  0.00  0.00    +0.000 A 
ATOM     12  C   UNL     1      -0.085  10.646  19.819  0.00  0.00    +0.000 A 
ATOM     13  C   UNL     1      -0.610  10.880  21.082  0.00  0.00    +0.000 A 
ATOM     14  O   UNL     1      -1.474  11.875  21.465  0.00  0.00    +0.000 OA
ENDBRANCH   1  10
BRANCH   2  15
ATOM     15  C   UNL     1       3.276   5.818  19.408  0.00  0.00    +0.000 A 
ATOM     16  C   UNL     1       4.649   5.959  19.083  0.00  0.00    +0.000 A 
ATOM     17  C   UNL     1       5.475   4.833  19.028  0.00  0.00    +0.000 A 
ATOM     18  N   UNL     1       4.964   3.615  19.289  0.00  0.00    +0.000 NA
ATOM     19  C   UNL     1       3.654   3.454  19.402  0.00  0.00    +0.000 A 
ATOM     20  C   UNL     1       3.226   2.146  19.298  0.00  0.00    +0.000 A 
ATOM     21  C   UNL     1       1.876   1.842  19.214  0.00  0.00    +0.000 A 
ATOM     22  C   UNL     1       0.938   2.857  19.348  0.00  0.00    +0.000 A 
ATOM     23  C   UNL     1       1.355   4.180  19.516  0.00  0.00    +0.000 A 
ATOM     24  C   UNL     1       2.731   4.514  19.491  0.00  0.00    +0.000 A 
BRANCH  17  25
ATOM     25  C   UNL     1       6.949   4.818  18.660  0.00  0.00    +0.000 C 
ATOM     26  C   UNL     1       7.663   5.954  17.966  0.00  0.00    +0.000 C 
ATOM     27  C   UNL     1       7.265   4.761  17.161  0.00  0.00    +0.000 C 
ENDBRANCH  17  25
ENDBRANCH   2  15
TORSDOF 3
ENDMDL
MODEL 2
REMARK VINA RESULT:      -9.1      2.724      3.153
REMARK  Name = 
REMARK  4 active torsions:
REMARK  status: ('A' for Active; 'I' for Inactive)
REMARK    1  A    between atoms: C_1  and  C_2
REMARK    2  A    between atoms: C_6  and  N_7
REMARK    3  A    between atoms: C_8  and  C_10
REMARK    4  A    between atoms: C_12  and  C_13
REMARK                            x       y       z     vdW  Elec       q    Type
REMARK                         _______ _______ _______ _____ _____    ______ ____
ROOT
ATOM      1  N   UNL     1       1.976   8.354  17.861  0.00  0.00    +0.000 N 
ATOM      2  C   UNL     1       2.442   7.380  18.753  0.00  0.00    +0.000 C 
ATOM      3  O   UNL     1       2.340   7.431  19.973  0.00  0.00    +0.000 OA
ATOM      4  H   UNL     1       1.942   8.106  16.877  0.00  0.00    +0.000 HD
ENDROOT
BRANCH   1  10
ATOM      5  C   UNL     1       1.267  15.596  18.993  0.00  0.00    +0.000 C 
ATOM      6  C   UNL     1       1.263  14.123  18.816  0.00  0.00    +0.000 A 
ATOM      7  N   UNL     1       2.271  13.338  18.462  0.00  0.00    +0.000 NA
ATOM      8  C   UNL     1       1.723  12.086  18.455  0.00  0.00    +0.000 A 
ATOM      9  C   UNL     1       2.286  10.825  18.156  0.00  0.00    +0.000 A 
ATOM     10  C   UNL     1       1.487   9.666  18.197  0.00  0.00    +0.000 A 
ATOM     11  C   UNL     1       0.124   9.806  18.552  0.00  0.00    +0.000 A 
ATOM     12  C   UNL     1      -0.459  11.057  18.866  0.00  0.00    +0.000 A 
ATOM     13  C   UNL     1       0.388  12.155  18.797  0.00  0.00    +0.000 A 
ATOM     14  O   UNL     1       0.082  13.471  19.035  0.00  0.00    +0.000 OA
ENDBRANCH   1  10
BRANCH   2  15
ATOM     15  C   UNL     1       3.094   6.142  18.184  0.00  0.00    +0.000 A 
ATOM     16  C   UNL     1       4.037   6.308  17.138  0.00  0.00    +0.000 A 
ATOM     17  C   UNL     1       4.621   5.190  16.537  0.00  0.00    +0.000 A 
ATOM     18  N   UNL     1       4.289   3.955  16.956  0.00  0.00    +0.000 NA
ATOM     19  C   UNL     1       3.274   3.787  17.791  0.00  0.00    +0.000 A 
ATOM     20  C   UNL     1       2.795   2.495  17.858  0.00  0.00    +0.000 A 
ATOM     21  C   UNL     1       1.628   2.201  18.546  0.00  0.00    +0.000 A 
ATOM     22  C   UNL     1       0.992   3.202  19.268  0.00  0.00    +0.000 A 
ATOM     23  C   UNL     1       1.500   4.504  19.261  0.00  0.00    +0.000 A 
ATOM     24  C   UNL     1       2.627   4.837  18.471  0.00  0.00    +0.000 A 
BRANCH  17  25
ATOM     25  C   UNL     1       5.614   5.206  15.387  0.00  0.00    +0.000 C 
ATOM     26  C   UNL     1       6.184   3.966  14.740  0.00  0.00    +0.000 C 
ATOM     27  C   UNL     1       7.028   4.716  15.716  0.00  0.00    +0.000 C 
ENDBRANCH  17  25
ENDBRANCH   2  15
TORSDOF 3
ENDMDL
MODEL 3
REMARK VINA RESULT:      -9.1      1.578      1.906
REMARK  Name = 
REMARK  4 active torsions:
REMARK  status: ('A' for Active; 'I' for Inactive)
REMARK    1  A    between atoms: C_1  and  C_2
REMARK    2  A    between atoms: C_6  and  N_7
REMARK    3  A    between atoms: C_8  and  C_10
REMARK    4  A    between atoms: C_12  and  C_13
REMARK                            x       y       z     vdW  Elec       q    Type
REMARK                         _______ _______ _______ _____ _____    ______ ____
ROOT
ATOM      1  N   UNL     1       2.140   7.500  20.147  0.00  0.00    +0.000 N 
ATOM      2  C   UNL     1       2.275   7.363  18.760  0.00  0.00    +0.000 C 
ATOM      3  O   UNL     1       1.860   8.161  17.927  0.00  0.00    +0.000 OA
ATOM      4  H   UNL     1       2.693   6.882  20.732  0.00  0.00    +0.000 HD
ENDROOT
BRANCH   1  10
ATOM      5  C   UNL     1      -0.989  13.703  22.589  0.00  0.00    +0.000 C 
ATOM      6  C   UNL     1      -0.453  12.377  22.195  0.00  0.00    +0.000 A 
ATOM      7  N   UNL     1       0.557  12.112  21.378  0.00  0.00    +0.000 NA
ATOM      8  C   UNL     1       0.624  10.746  21.374  0.00  0.00    +0.000 A 
ATOM      9  C   UNL     1       1.488   9.858  20.695  0.00  0.00    +0.000 A 
ATOM     10  C   UNL     1       1.330   8.466  20.842  0.00  0.00    +0.000 A 
ATOM     11  C   UNL     1       0.297   7.997  21.688  0.00  0.00    +0.000 A 
ATOM     12  C   UNL     1      -0.573   8.867  22.386  0.00  0.00    +0.000 A 
ATOM     13  C   UNL     1      -0.362  10.224  22.187  0.00  0.00    +0.000 A 
ATOM     14  O   UNL     1      -1.063  11.274  22.725  0.00  0.00    +0.000 OA
ENDBRANCH   1  10
BRANCH   2  15
ATOM     15  C   UNL     1       3.021   6.162  18.228  0.00  0.00    +0.000 A 
ATOM     16  C   UNL     1       4.011   6.380  17.237  0.00  0.00    +0.000 A 
ATOM     17  C   UNL     1       4.685   5.296  16.669  0.00  0.00    +0.000 A 
ATOM     18  N   UNL     1       4.393   4.044  17.067  0.00  0.00    +0.000 NA
ATOM     19  C   UNL     1       3.342   3.821  17.843  0.00  0.00    +0.000 A 
ATOM     20  C   UNL     1       2.927   2.506  17.882  0.00  0.00    +0.000 A 
ATOM     21  C   UNL     1       1.739   2.150  18.502  0.00  0.00    +0.000 A 
ATOM     22  C   UNL     1       1.013   3.115  19.188  0.00  0.00    +0.000 A 
ATOM     23  C   UNL     1       1.453   4.441  19.210  0.00  0.00    +0.000 A 
ATOM     24  C   UNL     1       2.605   4.834  18.486  0.00  0.00    +0.000 A 
BRANCH  17  25
ATOM     25  C   UNL     1       5.739   5.367  15.577  0.00  0.00    +0.000 C 
ATOM     26  C   UNL     1       6.290   4.163  14.849  0.00  0.00    +0.000 C 
ATOM     27  C   UNL     1       7.111   4.782  15.932  0.00  0.00    +0.000 C 
ENDBRANCH  17  25
ENDBRANCH   2  15
TORSDOF 3
ENDMDL
MODEL 4
REMARK VINA RESULT:      -9.0      1.417      1.554
REMARK  Name = 
REMARK  4 active torsions:
REMARK  status: ('A' for Active; 'I' for Inactive)
REMARK    1  A    between atoms: C_1  and  C_2
REMARK    2  A    between atoms: C_6  and  N_7
REMARK    3  A    between atoms: C_8  and  C_10
REMARK    4  A    between atoms: C_12  and  C_13
REMARK                            x       y       z     vdW  Elec       q    Type
REMARK                         _______ _______ _______ _____ _____    ______ ____
ROOT
ATOM      1  N   UNL     1       2.173   7.399  19.590  0.00  0.00    +0.000 N 
ATOM      2  C   UNL     1       2.796   7.123  18.365  0.00  0.00    +0.000 C 
ATOM      3  O   UNL     1       2.957   7.930  17.457  0.00  0.00    +0.000 OA
ATOM      4  H   UNL     1       2.278   6.713  20.330  0.00  0.00    +0.000 HD
ENDROOT
BRANCH   1  10
ATOM      5  C   UNL     1      -1.280  12.832  23.165  0.00  0.00    +0.000 C 
ATOM      6  C   UNL     1      -0.623  11.811  22.313  0.00  0.00    +0.000 A 
ATOM      7  N   UNL     1      -0.060  10.671  22.688  0.00  0.00    +0.000 NA
ATOM      8  C   UNL     1       0.380  10.123  21.515  0.00  0.00    +0.000 A 
ATOM      9  C   UNL     1       1.064   8.915  21.250  0.00  0.00    +0.000 A 
ATOM     10  C   UNL     1       1.436   8.587  19.932  0.00  0.00    +0.000 A 
ATOM     11  C   UNL     1       1.098   9.493  18.898  0.00  0.00    +0.000 A 
ATOM     12  C   UNL     1       0.405  10.703  19.138  0.00  0.00    +0.000 A 
ATOM     13  C   UNL     1       0.078  10.962  20.461  0.00  0.00    +0.000 A 
ATOM     14  O   UNL     1      -0.575  12.057  20.969  0.00  0.00    +0.000 OA
ENDBRANCH   1  10
BRANCH   2  15
ATOM     15  C   UNL     1       3.353   5.738  18.142  0.00  0.00    +0.000 A 
ATOM     16  C   UNL     1       4.376   5.582  17.172  0.00  0.00    +0.000 A 
ATOM     17  C   UNL     1       4.880   4.311  16.884  0.00  0.00    +0.000 A 
ATOM     18  N   UNL     1       4.395   3.236  17.532  0.00  0.00    +0.000 NA
ATOM     19  C   UNL     1       3.315   3.349  18.291  0.00  0.00    +0.000 A 
ATOM     20  C   UNL     1       2.702   2.151  18.597  0.00  0.00    +0.000 A 
ATOM     21  C   UNL     1       1.468   2.122  19.226  0.00  0.00    +0.000 A 
ATOM     22  C   UNL     1       0.891   3.311  19.653  0.00  0.00    +0.000 A 
ATOM     23  C   UNL     1       1.530   4.529  19.405  0.00  0.00    +0.000 A 
ATOM     24  C   UNL     1       2.736   4.577  18.665  0.00  0.00    +0.000 A 
BRANCH  17  25
ATOM     25  C   UNL     1       5.944   3.981  15.850  0.00  0.00    +0.000 C 
ATOM     26  C   UNL     1       6.711   5.015  15.060  0.00  0.00    +0.000 C 
ATOM     27  C   UNL     1       5.584   4.296  14.394  0.00  0.00    +0.000 C 
ENDBRANCH  17  25
ENDBRANCH   2  15
TORSDOF 3
ENDMDL
MODEL 5
REMARK VINA RESULT:      -9.0      1.060      1.463
REMARK  Name = 
REMARK  4 active torsions:
REMARK  status: ('A' for Active; 'I' for Inactive)
REMARK    1  A    between atoms: C_1  and  C_2
REMARK    2  A    between atoms: C_6  and  N_7
REMARK    3  A    between atoms: C_8  and  C_10
REMARK    4  A    between atoms: C_12  and  C_13
REMARK                            x       y       z     vdW  Elec       q    Type
REMARK                         _______ _______ _______ _____ _____    ______ ____
ROOT
ATOM      1  N   UNL     1       2.073   7.628  20.854  0.00  0.00    +0.000 N 
ATOM      2  C   UNL     1       2.414   7.119  19.594  0.00  0.00    +0.000 C 
ATOM      3  O   UNL     1       2.111   7.628  18.521  0.00  0.00    +0.000 OA
ATOM      4  H   UNL     1       2.546   7.231  21.660  0.00  0.00    +0.000 HD
ENDROOT
BRANCH   1  10
ATOM      5  C   UNL     1      -2.735  13.179  20.305  0.00  0.00    +0.000 C 
ATOM      6  C   UNL     1      -1.778  12.076  20.570  0.00  0.00    +0.000 A 
ATOM      7  N   UNL     1      -1.063  11.384  19.695  0.00  0.00    +0.000 NA
ATOM      8  C   UNL     1      -0.358  10.506  20.470  0.00  0.00    +0.000 A 
ATOM      9  C   UNL     1       0.575   9.502  20.126  0.00  0.00    +0.000 A 
ATOM     10  C   UNL     1       1.152   8.699  21.130  0.00  0.00    +0.000 A 
ATOM     11  C   UNL     1       0.776   8.937  22.473  0.00  0.00    +0.000 A 
ATOM     12  C   UNL     1      -0.148   9.943  22.842  0.00  0.00    +0.000 A 
ATOM     13  C   UNL     1      -0.680  10.689  21.800  0.00  0.00    +0.000 A 
ATOM     14  O   UNL     1      -1.598  11.706  21.874  0.00  0.00    +0.000 OA
ENDBRANCH   1  10
BRANCH   2  15
ATOM     15  C   UNL     1       3.251   5.864  19.531  0.00  0.00    +0.000 A 
ATOM     16  C   UNL     1       4.600   5.986  19.112  0.00  0.00    +0.000 A 
ATOM     17  C   UNL     1       5.398   4.847  18.978  0.00  0.00    +0.000 A 
ATOM     18  N   UNL     1       4.884   3.634  19.251  0.00  0.00    +0.000 NA
ATOM     19  C   UNL     1       3.582   3.494  19.453  0.00  0.00    +0.000 A 
ATOM     20  C   UNL     1       3.122   2.197  19.354  0.00  0.00    +0.000 A 
ATOM     21  C   UNL     1       1.764   1.918  19.360  0.00  0.00    +0.000 A 
ATOM     22  C   UNL     1       0.858   2.947  19.579  0.00  0.00    +0.000 A 
ATOM     23  C   UNL     1       1.312   4.259  19.744  0.00  0.00    +0.000 A 
ATOM     24  C   UNL     1       2.688   4.569  19.627  0.00  0.00    +0.000 A 
BRANCH  17  25
ATOM     25  C   UNL     1       6.842   4.813  18.506  0.00  0.00    +0.000 C 
ATOM     26  C   UNL     1       7.520   5.940  17.762  0.00  0.00    +0.000 C 
ATOM     27  C   UNL     1       7.050   4.753  16.989  0.00  0.00    +0.000 C 
ENDBRANCH  17  25
ENDBRANCH   2  15
TORSDOF 3
ENDMDL
MODEL 6
REMARK VINA RESULT:      -9.0      2.230      2.493
REMARK  Name = 
REMARK  4 active torsions:
REMARK  status: ('A' for Active; 'I' for Inactive)
REMARK    1  A    between atoms: C_1  and  C_2
REMARK    2  A    between atoms: C_6  and  N_7
REMARK    3  A    between atoms: C_8  and  C_10
REMARK    4  A    between atoms: C_12  and  C_13
REMARK                            x       y       z     vdW  Elec       q    Type
REMARK                         _______ _______ _______ _____ _____    ______ ____
ROOT
ATOM      1  N   UNL     1       1.951   8.331  17.931  0.00  0.00    +0.000 N 
ATOM      2  C   UNL     1       2.451   7.354  18.803  0.00  0.00    +0.000 C 
ATOM      3  O   UNL     1       2.378   7.395  20.026  0.00  0.00    +0.000 OA
ATOM      4  H   UNL     1       1.897   8.090  16.947  0.00  0.00    +0.000 HD
ENDROOT
BRANCH   1  10
ATOM      5  C   UNL     1      -2.073  13.938  20.497  0.00  0.00    +0.000 C 
ATOM      6  C   UNL     1      -1.159  12.915  19.933  0.00  0.00    +0.000 A 
ATOM      7  N   UNL     1      -1.355  11.608  19.832  0.00  0.00    +0.000 NA
ATOM      8  C   UNL     1      -0.210  11.150  19.241  0.00  0.00    +0.000 A 
ATOM      9  C   UNL     1       0.190   9.846  18.872  0.00  0.00    +0.000 A 
ATOM     10  C   UNL     1       1.455   9.633  18.291  0.00  0.00    +0.000 A 
ATOM     11  C   UNL     1       2.294  10.754  18.086  0.00  0.00    +0.000 A 
ATOM     12  C   UNL     1       1.910  12.070  18.438  0.00  0.00    +0.000 A 
ATOM     13  C   UNL     1       0.653  12.202  19.011  0.00  0.00    +0.000 A 
ATOM     14  O   UNL     1       0.045  13.350  19.454  0.00  0.00    +0.000 OA
ENDBRANCH   1  10
BRANCH   2  15
ATOM     15  C   UNL     1       3.103   6.129  18.208  0.00  0.00    +0.000 A 
ATOM     16  C   UNL     1       4.050   6.319  17.170  0.00  0.00    +0.000 A 
ATOM     17  C   UNL     1       4.635   5.214  16.544  0.00  0.00    +0.000 A 
ATOM     18  N   UNL     1       4.300   3.970  16.934  0.00  0.00    +0.000 NA
ATOM     19  C   UNL     1       3.283   3.784  17.761  0.00  0.00    +0.000 A 
ATOM     20  C   UNL     1       2.802   2.491  17.798  0.00  0.00    +0.000 A 
ATOM     21  C   UNL     1       1.633   2.183  18.475  0.00  0.00    +0.000 A 
ATOM     22  C   UNL     1       0.995   3.167  19.218  0.00  0.00    +0.000 A 
ATOM     23  C   UNL     1       1.504   4.468  19.242  0.00  0.00    +0.000 A 
ATOM     24  C   UNL     1       2.634   4.818  18.464  0.00  0.00    +0.000 A 
BRANCH  17  25
ATOM     25  C   UNL     1       5.631   5.255  15.398  0.00  0.00    +0.000 C 
ATOM     26  C   UNL     1       6.212   4.030  14.733  0.00  0.00    +0.000 C 
ATOM     27  C   UNL     1       7.048   4.770  15.724  0.00  0.00    +0.000 C 
ENDBRANCH  17  25
ENDBRANCH   2  15
TORSDOF 3
ENDMDL
MODEL 7
REMARK VINA RESULT:      -8.9      2.747      4.579
REMARK  Name = 
REMARK  4 active torsions:
REMARK  status: ('A' for Active; 'I' for Inactive)
REMARK    1  A    between atoms: C_1  and  C_2
REMARK    2  A    between atoms: C_6  and  N_7
REMARK    3  A    between atoms: C_8  and  C_10
REMARK    4  A    between atoms: C_12  and  C_13
REMARK                            x       y       z     vdW  Elec       q    Type
REMARK                         _______ _______ _______ _____ _____    ______ ____
ROOT
ATOM      1  N   UNL     1       1.875   8.524  17.744  0.00  0.00    +0.000 N 
ATOM      2  C   UNL     1       2.354   7.533  18.610  0.00  0.00    +0.000 C 
ATOM      3  O   UNL     1       2.355   7.604  19.834  0.00  0.00    +0.000 OA
ATOM      4  H   UNL     1       1.746   8.269  16.771  0.00  0.00    +0.000 HD
ENDROOT
BRANCH   1  10
ATOM      5  C   UNL     1       1.756  15.782  18.985  0.00  0.00    +0.000 C 
ATOM      6  C   UNL     1       1.632  14.317  18.785  0.00  0.00    +0.000 A 
ATOM      7  N   UNL     1       2.574  13.458  18.422  0.00  0.00    +0.000 NA
ATOM      8  C   UNL     1       1.925  12.255  18.394  0.00  0.00    +0.000 A 
ATOM      9  C   UNL     1       2.385  10.956  18.078  0.00  0.00    +0.000 A 
ATOM     10  C   UNL     1       1.493   9.866  18.099  0.00  0.00    +0.000 A 
ATOM     11  C   UNL     1       0.144  10.113  18.451  0.00  0.00    +0.000 A 
ATOM     12  C   UNL     1      -0.335  11.403  18.782  0.00  0.00    +0.000 A 
ATOM     13  C   UNL     1       0.599  12.428  18.733  0.00  0.00    +0.000 A 
ATOM     14  O   UNL     1       0.401  13.761  18.990  0.00  0.00    +0.000 OA
ENDBRANCH   1  10
BRANCH   2  15
ATOM     15  C   UNL     1       2.883   6.252  18.010  0.00  0.00    +0.000 A 
ATOM     16  C   UNL     1       2.149   5.060  18.235  0.00  0.00    +0.000 A 
ATOM     17  C   UNL     1       2.629   3.840  17.754  0.00  0.00    +0.000 A 
ATOM     18  N   UNL     1       3.789   3.799  17.073  0.00  0.00    +0.000 NA
ATOM     19  C   UNL     1       4.571   4.868  17.027  0.00  0.00    +0.000 A 
ATOM     20  C   UNL     1       5.869   4.613  16.634  0.00  0.00    +0.000 A 
ATOM     21  C   UNL     1       6.844   5.594  16.713  0.00  0.00    +0.000 A 
ATOM     22  C   UNL     1       6.487   6.883  17.088  0.00  0.00    +0.000 A 
ATOM     23  C   UNL     1       5.163   7.172  17.429  0.00  0.00    +0.000 A 
ATOM     24  C   UNL     1       4.183   6.151  17.460  0.00  0.00    +0.000 A 
BRANCH  17  25
ATOM     25  C   UNL     1       1.979   2.480  17.946  0.00  0.00    +0.000 C 
ATOM     26  C   UNL     1       0.748   2.238  18.788  0.00  0.00    +0.000 C 
ATOM     27  C   UNL     1       2.083   1.880  19.352  0.00  0.00    +0.000 C 
ENDBRANCH  17  25
ENDBRANCH   2  15
TORSDOF 3
ENDMDL
MODEL 8
REMARK VINA RESULT:      -8.9      1.541      1.896
REMARK  Name = 
REMARK  4 active torsions:
REMARK  status: ('A' for Active; 'I' for Inactive)
REMARK    1  A    between atoms: C_1  and  C_2
REMARK    2  A    between atoms: C_6  and  N_7
REMARK    3  A    between atoms: C_8  and  C_10
REMARK    4  A    between atoms: C_12  and  C_13
REMARK                            x       y       z     vdW  Elec       q    Type
REMARK                         _______ _______ _______ _____ _____    ______ ____
ROOT
ATOM      1  N   UNL     1       2.162   7.409  20.126  0.00  0.00    +0.000 N 
ATOM      2  C   UNL     1       2.482   7.103  18.796  0.00  0.00    +0.000 C 
ATOM      3  O   UNL     1       2.284   7.836  17.835  0.00  0.00    +0.000 OA
ATOM      4  H   UNL     1       2.553   6.812  20.847  0.00  0.00    +0.000 HD
ENDROOT
BRANCH   1  10
ATOM      5  C   UNL     1      -2.148  13.363  20.561  0.00  0.00    +0.000 C 
ATOM      6  C   UNL     1      -1.276  12.165  20.629  0.00  0.00    +0.000 A 
ATOM      7  N   UNL     1      -0.711  11.506  19.627  0.00  0.00    +0.000 NA
ATOM      8  C   UNL     1      -0.021  10.501  20.246  0.00  0.00    +0.000 A 
ATOM      9  C   UNL     1       0.781   9.462  19.722  0.00  0.00    +0.000 A 
ATOM     10  C   UNL     1       1.372   8.520  20.587  0.00  0.00    +0.000 A 
ATOM     11  C   UNL     1       1.144   8.654  21.977  0.00  0.00    +0.000 A 
ATOM     12  C   UNL     1       0.354   9.692  22.525  0.00  0.00    +0.000 A 
ATOM     13  C   UNL     1      -0.201  10.578  21.613  0.00  0.00    +0.000 A 
ATOM     14  O   UNL     1      -1.011  11.655  21.869  0.00  0.00    +0.000 OA
ENDBRANCH   1  10
BRANCH   2  15
ATOM     15  C   UNL     1       3.159   5.784  18.508  0.00  0.00    +0.000 A 
ATOM     16  C   UNL     1       4.216   5.773  17.563  0.00  0.00    +0.000 A 
ATOM     17  C   UNL     1       4.833   4.568  17.216  0.00  0.00    +0.000 A 
ATOM     18  N   UNL     1       4.423   3.419  17.783  0.00  0.00    +0.000 NA
ATOM     19  C   UNL     1       3.318   3.395  18.514  0.00  0.00    +0.000 A 
ATOM     20  C   UNL     1       2.799   2.135  18.729  0.00  0.00    +0.000 A 
ATOM     21  C   UNL     1       1.555   1.965  19.317  0.00  0.00    +0.000 A 
ATOM     22  C   UNL     1       0.870   3.074  19.795  0.00  0.00    +0.000 A 
ATOM     23  C   UNL     1       1.411   4.353  19.640  0.00  0.00    +0.000 A 
ATOM     24  C   UNL     1       2.628   4.546  18.942  0.00  0.00    +0.000 A 
BRANCH  17  25
ATOM     25  C   UNL     1       5.947   4.390  16.198  0.00  0.00    +0.000 C 
ATOM     26  C   UNL     1       6.339   5.432  15.177  0.00  0.00    +0.000 C 
ATOM     27  C   UNL     1       5.506   4.275  14.735  0.00  0.00    +0.000 C 
ENDBRANCH  17  25
ENDBRANCH   2  15
TORSDOF 3
ENDMDL
MODEL 9
REMARK VINA RESULT:      -8.9      1.346      3.604
REMARK  Name = 
REMARK  4 active torsions:
REMARK  status: ('A' for Active; 'I' for Inactive)
REMARK    1  A    between atoms: C_1  and  C_2
REMARK    2  A    between atoms: C_6  and  N_7
REMARK    3  A    between atoms: C_8  and  C_10
REMARK    4  A    between atoms: C_12  and  C_13
REMARK                            x       y       z     vdW  Elec       q    Type
REMARK                         _______ _______ _______ _____ _____    ______ ____
ROOT
ATOM      1  N   UNL     1       1.903   7.863  19.322  0.00  0.00    +0.000 N 
ATOM      2  C   UNL     1       2.543   7.690  18.088  0.00  0.00    +0.000 C 
ATOM      3  O   UNL     1       2.707   8.568  17.248  0.00  0.00    +0.000 OA
ATOM      4  H   UNL     1       2.004   7.121  20.007  0.00  0.00    +0.000 HD
ENDROOT
BRANCH   1  10
ATOM      5  C   UNL     1      -1.337  13.165  23.274  0.00  0.00    +0.000 C 
ATOM      6  C   UNL     1      -0.745  12.166  22.352  0.00  0.00    +0.000 A 
ATOM      7  N   UNL     1      -0.072  11.066  22.659  0.00  0.00    +0.000 NA
ATOM      8  C   UNL     1       0.235  10.521  21.443  0.00  0.00    +0.000 A 
ATOM      9  C   UNL     1       0.945   9.347  21.102  0.00  0.00    +0.000 A 
ATOM     10  C   UNL     1       1.151   9.015  19.748  0.00  0.00    +0.000 A 
ATOM     11  C   UNL     1       0.624   9.879  18.760  0.00  0.00    +0.000 A 
ATOM     12  C   UNL     1      -0.099  11.053  19.079  0.00  0.00    +0.000 A 
ATOM     13  C   UNL     1      -0.257  11.320  20.431  0.00  0.00    +0.000 A 
ATOM     14  O   UNL     1      -0.896  12.387  21.011  0.00  0.00    +0.000 OA
ENDBRANCH   1  10
BRANCH   2  15
ATOM     15  C   UNL     1       3.114   6.331  17.762  0.00  0.00    +0.000 A 
ATOM     16  C   UNL     1       2.316   5.192  18.037  0.00  0.00    +0.000 A 
ATOM     17  C   UNL     1       2.823   3.909  17.811  0.00  0.00    +0.000 A 
ATOM     18  N   UNL     1       4.070   3.759  17.328  0.00  0.00    +0.000 NA
ATOM     19  C   UNL     1       4.884   4.802  17.252  0.00  0.00    +0.000 A 
ATOM     20  C   UNL     1       6.217   4.479  17.103  0.00  0.00    +0.000 A 
ATOM     21  C   UNL     1       7.201   5.451  17.191  0.00  0.00    +0.000 A 
ATOM     22  C   UNL     1       6.834   6.784  17.323  0.00  0.00    +0.000 A 
ATOM     23  C   UNL     1       5.484   7.133  17.413  0.00  0.00    +0.000 A 
ATOM     24  C   UNL     1       4.478   6.137  17.436  0.00  0.00    +0.000 A 
BRANCH  17  25
ATOM     25  C   UNL     1       2.107   2.598  18.090  0.00  0.00    +0.000 C 
ATOM     26  C   UNL     1       0.778   2.491  18.798  0.00  0.00    +0.000 C 
ATOM     27  C   UNL     1       2.023   2.182  19.562  0.00  0.00    +0.000 C 
ENDBRANCH  17  25
ENDBRANCH   2  15
TORSDOF 3
ENDMDL
