MODEL 1
REMARK VINA RESULT:      -8.2      0.000      0.000
REMARK  Name = 
REMARK  7 active torsions:
REMARK  status: ('A' for Active; 'I' for Inactive)
REMARK    1  A    between atoms: C_1  and  C_2
REMARK    2  A    between atoms: C_3  and  C_4
REMARK    3  A    between atoms: N_6  and  C_7
REMARK    4  A    between atoms: C_11  and  C_12
REMARK    5  A    between atoms: C_15  and  C_16
REMARK    6  A    between atoms: C_21  and  C_22
REMARK    7  A    between atoms: N_28  and  C_29
REMARK                            x       y       z     vdW  Elec       q    Type
REMARK                         _______ _______ _______ _____ _____    ______ ____
ROOT
ATOM      1  C   UNL     1       2.560   7.457  18.528  0.00  0.00    +0.000 C 
ATOM      2  O   UNL     1       2.317   7.447  19.733  0.00  0.00    +0.000 OA
ATOM      3  N   UNL     1       2.129   8.435  17.654  0.00  0.00    +0.000 N 
ATOM      4  H   UNL     1       2.345   8.328  16.675  0.00  0.00    +0.000 HD
ENDROOT
BRANCH   1   7
ATOM      5  C   UNL     1       1.874   4.334  18.792  0.00  0.00    +0.000 C 
ATOM      6  C   UNL     1       3.056   4.934  18.057  0.00  0.00    +0.000 C 
ATOM      7  C   UNL     1       3.323   6.270  17.962  0.00  0.00    +0.000 C 
ATOM      8  C   UNL     1       4.482   6.762  17.062  0.00  0.00    +0.000 C 
ATOM      9  C   UNL     1       5.645   7.315  17.889  0.00  0.00    +0.000 C 
ATOM     10  N   UNL     1       4.974   5.698  16.200  0.00  0.00    +0.000 N 
ATOM     11  N   UNL     1       5.809   5.891  15.174  0.00  0.00    +0.000 NA
ATOM     12  N   UNL     1       6.093   4.667  14.742  0.00  0.00    +0.000 NA
ATOM     13  N   UNL     1       5.442   3.715  15.491  0.00  0.00    +0.000 NA
ATOM     14  C   UNL     1       4.728   4.372  16.384  0.00  0.00    +0.000 A 
ATOM     15  N   UNL     1       3.866   3.984  17.368  0.00  0.00    +0.000 N 
ATOM     16  C   UNL     1       3.770   2.533  17.568  0.00  0.00    +0.000 C 
ENDBRANCH   1   7
BRANCH   3  17
ATOM     17  C   UNL     1       1.440   9.636  17.992  0.00  0.00    +0.000 A 
ATOM     18  C   UNL     1       2.077  10.838  18.311  0.00  0.00    +0.000 A 
ATOM     19  C   UNL     1       1.337  11.973  18.656  0.00  0.00    +0.000 A 
ATOM     20  C   UNL     1      -0.058  11.939  18.652  0.00  0.00    +0.000 A 
ATOM     21  C   UNL     1      -0.730  10.763  18.298  0.00  0.00    +0.000 A 
ATOM     22  C   UNL     1       0.034   9.610  18.000  0.00  0.00    +0.000 A 
BRANCH  21  23
ATOM     23  C   UNL     1      -2.192  10.753  18.190  0.00  0.00    +0.000 A 
ATOM     24  N   UNL     1      -2.878   9.796  17.546  0.00  0.00    +0.000 NA
ATOM     25  O   UNL     1      -4.197  10.229  17.613  0.00  0.00    +0.000 OA
ATOM     26  C   UNL     1      -4.198  11.412  18.299  0.00  0.00    +0.000 A 
ATOM     27  N   UNL     1      -2.992  11.769  18.689  0.00  0.00    +0.000 NA
BRANCH  26  28
ATOM     28  C   UNL     1      -5.483  12.197  18.543  0.00  0.00    +0.000 C 
ATOM     29  C   UNL     1      -6.404  11.791  19.675  0.00  0.00    +0.000 C 
ATOM     30  C   UNL     1      -6.818  11.539  18.266  0.00  0.00    +0.000 C 
ENDBRANCH  26  28
ENDBRANCH  21  23
ENDBRANCH   3  17
TORSDOF 4
ENDMDL
MODEL 2
REMARK VINA RESULT:      -8.0      2.563      3.774
REMARK  Name = 
REMARK  7 active torsions:
REMARK  status: ('A' for Active; 'I' for Inactive)
REMARK    1  A    between atoms: C_1  and  C_2
REMARK    2  A    between atoms: C_3  and  C_4
REMARK    3  A    between atoms: N_6  and  C_7
REMARK    4  A    between atoms: C_11  and  C_12
REMARK    5  A    between atoms: C_15  and  C_16
REMARK    6  A    between atoms: C_21  and  C_22
REMARK    7  A    between atoms: N_28  and  C_29
REMARK                            x       y       z     vdW  Elec       q    Type
REMARK                         _______ _______ _______ _____ _____    ______ ____
ROOT
ATOM      1  C   UNL     1       2.241   7.119  19.431  0.00  0.00    +0.000 C 
ATOM      2  O   UNL     1       2.003   7.804  18.438  0.00  0.00    +0.000 OA
ATOM      3  N   UNL     1       1.866   7.453  20.716  0.00  0.00    +0.000 N 
ATOM      4  H   UNL     1       2.147   6.844  21.468  0.00  0.00    +0.000 HD
ENDROOT
BRANCH   1   7
ATOM      5  C   UNL     1       4.847   6.717  17.602  0.00  0.00    +0.000 C 
ATOM      6  C   UNL     1       4.178   5.659  18.456  0.00  0.00    +0.000 C 
ATOM      7  C   UNL     1       3.067   5.859  19.225  0.00  0.00    +0.000 C 
ATOM      8  C   UNL     1       2.566   4.735  20.163  0.00  0.00    +0.000 C 
ATOM      9  C   UNL     1       1.246   4.136  19.674  0.00  0.00    +0.000 C 
ATOM     10  N   UNL     1       3.552   3.672  20.292  0.00  0.00    +0.000 N 
ATOM     11  N   UNL     1       3.484   2.694  21.201  0.00  0.00    +0.000 NA
ATOM     12  N   UNL     1       4.495   1.888  20.898  0.00  0.00    +0.000 NA
ATOM     13  N   UNL     1       5.190   2.356  19.808  0.00  0.00    +0.000 NA
ATOM     14  C   UNL     1       4.606   3.483  19.452  0.00  0.00    +0.000 A 
ATOM     15  N   UNL     1       4.855   4.404  18.476  0.00  0.00    +0.000 N 
ATOM     16  C   UNL     1       5.931   4.042  17.546  0.00  0.00    +0.000 C 
ENDBRANCH   1   7
BRANCH   3  17
ATOM     17  C   UNL     1       1.062   8.563  21.108  0.00  0.00    +0.000 A 
ATOM     18  C   UNL     1       1.032   9.087  22.402  0.00  0.00    +0.000 A 
ATOM     19  C   UNL     1       0.199  10.164  22.722  0.00  0.00    +0.000 A 
ATOM     20  C   UNL     1      -0.592  10.764  21.742  0.00  0.00    +0.000 A 
ATOM     21  C   UNL     1      -0.557  10.291  20.425  0.00  0.00    +0.000 A 
ATOM     22  C   UNL     1       0.252   9.169  20.129  0.00  0.00    +0.000 A 
BRANCH  21  23
ATOM     23  C   UNL     1      -1.306  10.984  19.373  0.00  0.00    +0.000 A 
ATOM     24  N   UNL     1      -2.025  12.098  19.589  0.00  0.00    +0.000 NA
ATOM     25  O   UNL     1      -2.629  12.348  18.363  0.00  0.00    +0.000 OA
ATOM     26  C   UNL     1      -2.219  11.366  17.505  0.00  0.00    +0.000 A 
ATOM     27  N   UNL     1      -1.393  10.513  18.072  0.00  0.00    +0.000 NA
BRANCH  26  28
ATOM     28  C   UNL     1      -2.710  11.306  16.061  0.00  0.00    +0.000 C 
ATOM     29  C   UNL     1      -4.044  10.663  15.750  0.00  0.00    +0.000 C 
ATOM     30  C   UNL     1      -2.786   9.968  15.359  0.00  0.00    +0.000 C 
ENDBRANCH  26  28
ENDBRANCH  21  23
ENDBRANCH   3  17
TORSDOF 4
ENDMDL
MODEL 3
REMARK VINA RESULT:      -8.0      3.313      9.551
REMARK  Name = 
REMARK  7 active torsions:
REMARK  status: ('A' for Active; 'I' for Inactive)
REMARK    1  A    between atoms: C_1  and  C_2
REMARK    2  A    between atoms: C_3  and  C_4
REMARK    3  A    between atoms: N_6  and  C_7
REMARK    4  A    between atoms: C_11  and  C_12
REMARK    5  A    between atoms: C_15  and  C_16
REMARK    6  A    between atoms: C_21  and  C_22
REMARK    7  A    between atoms: N_28  and  C_29
REMARK                            x       y       z     vdW  Elec       q    Type
REMARK                         _______ _______ _______ _____ _____    ______ ____
ROOT
ATOM      1  C   UNL     1       0.634   8.382  20.875  0.00  0.00    +0.000 C 
ATOM      2  O   UNL     1      -0.241   7.692  21.397  0.00  0.00    +0.000 OA
ATOM      3  N   UNL     1       1.822   7.888  20.378  0.00  0.00    +0.000 N 
ATOM      4  H   UNL     1       2.493   8.543  20.009  0.00  0.00    +0.000 HD
ENDROOT
BRANCH   1   7
ATOM      5  C   UNL     1      -0.542  10.266  23.192  0.00  0.00    +0.000 C 
ATOM      6  C   UNL     1      -0.085  10.712  21.818  0.00  0.00    +0.000 C 
ATOM      7  C   UNL     1       0.412   9.886  20.850  0.00  0.00    +0.000 C 
ATOM      8  C   UNL     1       0.977  10.485  19.540  0.00  0.00    +0.000 C 
ATOM      9  C   UNL     1       0.078  10.175  18.341  0.00  0.00    +0.000 C 
ATOM     10  N   UNL     1       1.149  11.927  19.647  0.00  0.00    +0.000 N 
ATOM     11  N   UNL     1       1.820  12.669  18.760  0.00  0.00    +0.000 NA
ATOM     12  N   UNL     1       1.632  13.920  19.163  0.00  0.00    +0.000 NA
ATOM     13  N   UNL     1       0.850  13.963  20.293  0.00  0.00    +0.000 NA
ATOM     14  C   UNL     1       0.572  12.711  20.599  0.00  0.00    +0.000 A 
ATOM     15  N   UNL     1      -0.128  12.123  21.612  0.00  0.00    +0.000 N 
ATOM     16  C   UNL     1      -0.815  13.058  22.510  0.00  0.00    +0.000 C 
ENDBRANCH   1   7
BRANCH   3  17
ATOM     17  C   UNL     1       2.198   6.517  20.276  0.00  0.00    +0.000 A 
ATOM     18  C   UNL     1       1.467   5.463  20.831  0.00  0.00    +0.000 A 
ATOM     19  C   UNL     1       1.910   4.141  20.711  0.00  0.00    +0.000 A 
ATOM     20  C   UNL     1       3.073   3.844  20.001  0.00  0.00    +0.000 A 
ATOM     21  C   UNL     1       3.809   4.871  19.398  0.00  0.00    +0.000 A 
ATOM     22  C   UNL     1       3.375   6.207  19.571  0.00  0.00    +0.000 A 
BRANCH  21  23
ATOM     23  C   UNL     1       4.972   4.553  18.564  0.00  0.00    +0.000 A 
ATOM     24  N   UNL     1       6.233   4.551  19.026  0.00  0.00    +0.000 NA
ATOM     25  O   UNL     1       7.001   4.294  17.897  0.00  0.00    +0.000 OA
ATOM     26  C   UNL     1       6.137   4.156  16.846  0.00  0.00    +0.000 A 
ATOM     27  N   UNL     1       4.878   4.289  17.207  0.00  0.00    +0.000 NA
BRANCH  26  28
ATOM     28  C   UNL     1       6.635   3.890  15.428  0.00  0.00    +0.000 C 
ATOM     29  C   UNL     1       6.934   5.055  14.509  0.00  0.00    +0.000 C 
ATOM     30  C   UNL     1       5.735   4.209  14.254  0.00  0.00    +0.000 C 
ENDBRANCH  26  28
ENDBRANCH  21  23
ENDBRANCH   3  17
TORSDOF 4
ENDMDL
MODEL 4
REMARK VINA RESULT:      -7.9      1.565      2.831
REMARK  Name = 
REMARK  7 active torsions:
REMARK  status: ('A' for Active; 'I' for Inactive)
REMARK    1  A    between atoms: C_1  and  C_2
REMARK    2  A    between atoms: C_3  and  C_4
REMARK    3  A    between atoms: N_6  and  C_7
REMARK    4  A    between atoms: C_11  and  C_12
REMARK    5  A    between atoms: C_15  and  C_16
REMARK    6  A    between atoms: C_21  and  C_22
REMARK    7  A    between atoms: N_28  and  C_29
REMARK                            x       y       z     vdW  Elec       q    Type
REMARK                         _______ _______ _______ _____ _____    ______ ____
ROOT
ATOM      1  C   UNL     1       2.122   7.518  19.347  0.00  0.00    +0.000 C 
ATOM      2  O   UNL     1       1.875   7.752  20.529  0.00  0.00    +0.000 OA
ATOM      3  N   UNL     1       1.721   8.316  18.296  0.00  0.00    +0.000 N 
ATOM      4  H   UNL     1       1.938   8.013  17.358  0.00  0.00    +0.000 HD
ENDROOT
BRANCH   1   7
ATOM      5  C   UNL     1       4.450   7.014  17.196  0.00  0.00    +0.000 C 
ATOM      6  C   UNL     1       3.847   5.980  18.125  0.00  0.00    +0.000 C 
ATOM      7  C   UNL     1       2.855   6.223  19.032  0.00  0.00    +0.000 C 
ATOM      8  C   UNL     1       2.426   5.114  20.022  0.00  0.00    +0.000 C 
ATOM      9  C   UNL     1       1.027   4.582  19.704  0.00  0.00    +0.000 C 
ATOM     10  N   UNL     1       3.369   4.006  20.019  0.00  0.00    +0.000 N 
ATOM     11  N   UNL     1       3.372   3.023  20.925  0.00  0.00    +0.000 NA
ATOM     12  N   UNL     1       4.296   2.174  20.491  0.00  0.00    +0.000 NA
ATOM     13  N   UNL     1       4.867   2.620  19.322  0.00  0.00    +0.000 NA
ATOM     14  C   UNL     1       4.296   3.776  19.049  0.00  0.00    +0.000 A 
ATOM     15  N   UNL     1       4.460   4.694  18.053  0.00  0.00    +0.000 N 
ATOM     16  C   UNL     1       5.390   4.292  16.991  0.00  0.00    +0.000 C 
ENDBRANCH   1   7
BRANCH   3  17
ATOM     17  C   UNL     1       1.064   9.577  18.385  0.00  0.00    +0.000 A 
ATOM     18  C   UNL     1       1.670  10.740  18.867  0.00  0.00    +0.000 A 
ATOM     19  C   UNL     1       0.956  11.941  18.948  0.00  0.00    +0.000 A 
ATOM     20  C   UNL     1      -0.367  12.010  18.513  0.00  0.00    +0.000 A 
ATOM     21  C   UNL     1      -0.993  10.874  17.986  0.00  0.00    +0.000 A 
ATOM     22  C   UNL     1      -0.274   9.656  17.957  0.00  0.00    +0.000 A 
BRANCH  21  23
ATOM     23  C   UNL     1      -2.346  10.969  17.430  0.00  0.00    +0.000 A 
ATOM     24  N   UNL     1      -2.626  10.783  16.130  0.00  0.00    +0.000 NA
ATOM     25  O   UNL     1      -3.985  11.056  16.039  0.00  0.00    +0.000 OA
ATOM     26  C   UNL     1      -4.416  11.379  17.296  0.00  0.00    +0.000 A 
ATOM     27  N   UNL     1      -3.450  11.324  18.189  0.00  0.00    +0.000 NA
BRANCH  26  28
ATOM     28  C   UNL     1      -5.866  11.766  17.573  0.00  0.00    +0.000 C 
ATOM     29  C   UNL     1      -6.375  13.123  17.135  0.00  0.00    +0.000 C 
ATOM     30  C   UNL     1      -6.163  12.851  18.584  0.00  0.00    +0.000 C 
ENDBRANCH  26  28
ENDBRANCH  21  23
ENDBRANCH   3  17
TORSDOF 4
ENDMDL
MODEL 5
REMARK VINA RESULT:      -7.9      3.255      9.569
REMARK  Name = 
REMARK  7 active torsions:
REMARK  status: ('A' for Active; 'I' for Inactive)
REMARK    1  A    between atoms: C_1  and  C_2
REMARK    2  A    between atoms: C_3  and  C_4
REMARK    3  A    between atoms: N_6  and  C_7
REMARK    4  A    between atoms: C_11  and  C_12
REMARK    5  A    between atoms: C_15  and  C_16
REMARK    6  A    between atoms: C_21  and  C_22
REMARK    7  A    between atoms: N_28  and  C_29
REMARK                            x       y       z     vdW  Elec       q    Type
REMARK                         _______ _______ _______ _____ _____    ______ ____
ROOT
ATOM      1  C   UNL     1       1.575   8.293  19.796  0.00  0.00    +0.000 C 
ATOM      2  O   UNL     1       2.303   8.320  18.805  0.00  0.00    +0.000 OA
ATOM      3  N   UNL     1       1.326   7.165  20.549  0.00  0.00    +0.000 N 
ATOM      4  H   UNL     1       0.678   7.238  21.318  0.00  0.00    +0.000 HD
ENDROOT
BRANCH   1   7
ATOM      5  C   UNL     1       0.589   9.280  22.686  0.00  0.00    +0.000 C 
ATOM      6  C   UNL     1       0.416  10.024  21.377  0.00  0.00    +0.000 C 
ATOM      7  C   UNL     1       0.847   9.578  20.159  0.00  0.00    +0.000 C 
ATOM      8  C   UNL     1       0.737  10.496  18.919  0.00  0.00    +0.000 C 
ATOM      9  C   UNL     1      -0.319   9.993  17.933  0.00  0.00    +0.000 C 
ATOM     10  N   UNL     1       0.420  11.866  19.298  0.00  0.00    +0.000 N 
ATOM     11  N   UNL     1       0.484  12.908  18.464  0.00  0.00    +0.000 NA
ATOM     12  N   UNL     1       0.006  13.927  19.168  0.00  0.00    +0.000 NA
ATOM     13  N   UNL     1      -0.355  13.528  20.433  0.00  0.00    +0.000 NA
ATOM     14  C   UNL     1      -0.071  12.243  20.511  0.00  0.00    +0.000 A 
ATOM     15  N   UNL     1      -0.176  11.314  21.505  0.00  0.00    +0.000 N 
ATOM     16  C   UNL     1      -0.834  11.791  22.727  0.00  0.00    +0.000 C 
ENDBRANCH   1   7
BRANCH   3  17
ATOM     17  C   UNL     1       1.936   5.886  20.395  0.00  0.00    +0.000 A 
ATOM     18  C   UNL     1       1.358   4.689  20.827  0.00  0.00    +0.000 A 
ATOM     19  C   UNL     1       2.025   3.470  20.663  0.00  0.00    +0.000 A 
ATOM     20  C   UNL     1       3.267   3.421  20.030  0.00  0.00    +0.000 A 
ATOM     21  C   UNL     1       3.857   4.595  19.548  0.00  0.00    +0.000 A 
ATOM     22  C   UNL     1       3.193   5.825  19.765  0.00  0.00    +0.000 A 
BRANCH  21  23
ATOM     23  C   UNL     1       5.110   4.534  18.789  0.00  0.00    +0.000 A 
ATOM     24  N   UNL     1       6.305   4.849  19.313  0.00  0.00    +0.000 NA
ATOM     25  O   UNL     1       7.179   4.742  18.237  0.00  0.00    +0.000 OA
ATOM     26  C   UNL     1       6.437   4.364  17.153  0.00  0.00    +0.000 A 
ATOM     27  N   UNL     1       5.162   4.207  17.444  0.00  0.00    +0.000 NA
BRANCH  26  28
ATOM     28  C   UNL     1       7.067   4.174  15.776  0.00  0.00    +0.000 C 
ATOM     29  C   UNL     1       6.886   5.239  14.716  0.00  0.00    +0.000 C 
ATOM     30  C   UNL     1       6.174   3.938  14.577  0.00  0.00    +0.000 C 
ENDBRANCH  26  28
ENDBRANCH  21  23
ENDBRANCH   3  17
TORSDOF 4
ENDMDL
MODEL 6
REMARK VINA RESULT:      -7.9      3.131      9.776
REMARK  Name = 
REMARK  7 active torsions:
REMARK  status: ('A' for Active; 'I' for Inactive)
REMARK    1  A    between atoms: C_1  and  C_2
REMARK    2  A    between atoms: C_3  and  C_4
REMARK    3  A    between atoms: N_6  and  C_7
REMARK    4  A    between atoms: C_11  and  C_12
REMARK    5  A    between atoms: C_15  and  C_16
REMARK    6  A    between atoms: C_21  and  C_22
REMARK    7  A    between atoms: N_28  and  C_29
REMARK                            x       y       z     vdW  Elec       q    Type
REMARK                         _______ _______ _______ _____ _____    ______ ____
ROOT
ATOM      1  C   UNL     1       1.802   7.824  19.856  0.00  0.00    +0.000 C 
ATOM      2  O   UNL     1       2.417   7.885  18.793  0.00  0.00    +0.000 OA
ATOM      3  N   UNL     1       1.716   6.693  20.642  0.00  0.00    +0.000 N 
ATOM      4  H   UNL     1       1.151   6.734  21.476  0.00  0.00    +0.000 HD
ENDROOT
BRANCH   1   7
ATOM      5  C   UNL     1       0.338  10.001  18.009  0.00  0.00    +0.000 C 
ATOM      6  C   UNL     1       0.395  10.002  19.523  0.00  0.00    +0.000 C 
ATOM      7  C   UNL     1       1.028   9.060  20.285  0.00  0.00    +0.000 C 
ATOM      8  C   UNL     1       0.892   9.096  21.825  0.00  0.00    +0.000 C 
ATOM      9  C   UNL     1       2.206   9.494  22.501  0.00  0.00    +0.000 C 
ATOM     10  N   UNL     1      -0.157  10.014  22.245  0.00  0.00    +0.000 N 
ATOM     11  N   UNL     1      -0.641  10.080  23.489  0.00  0.00    +0.000 NA
ATOM     12  N   UNL     1      -1.476  11.112  23.466  0.00  0.00    +0.000 NA
ATOM     13  N   UNL     1      -1.516  11.689  22.219  0.00  0.00    +0.000 NA
ATOM     14  C   UNL     1      -0.704  10.981  21.458  0.00  0.00    +0.000 A 
ATOM     15  N   UNL     1      -0.354  11.046  20.141  0.00  0.00    +0.000 N 
ATOM     16  C   UNL     1      -0.899  12.199  19.414  0.00  0.00    +0.000 C 
ENDBRANCH   1   7
BRANCH   3  17
ATOM     17  C   UNL     1       2.395   5.457  20.435  0.00  0.00    +0.000 A 
ATOM     18  C   UNL     1       1.964   4.233  20.952  0.00  0.00    +0.000 A 
ATOM     19  C   UNL     1       2.694   3.061  20.727  0.00  0.00    +0.000 A 
ATOM     20  C   UNL     1       3.850   3.085  19.947  0.00  0.00    +0.000 A 
ATOM     21  C   UNL     1       4.290   4.286  19.379  0.00  0.00    +0.000 A 
ATOM     22  C   UNL     1       3.568   5.471  19.658  0.00  0.00    +0.000 A 
BRANCH  21  23
ATOM     23  C   UNL     1       5.443   4.296  18.475  0.00  0.00    +0.000 A 
ATOM     24  N   UNL     1       6.707   4.473  18.893  0.00  0.00    +0.000 NA
ATOM     25  O   UNL     1       7.446   4.504  17.717  0.00  0.00    +0.000 OA
ATOM     26  C   UNL     1       6.565   4.337  16.684  0.00  0.00    +0.000 A 
ATOM     27  N   UNL     1       5.325   4.188  17.099  0.00  0.00    +0.000 NA
BRANCH  26  28
ATOM     28  C   UNL     1       7.024   4.345  15.229  0.00  0.00    +0.000 C 
ATOM     29  C   UNL     1       6.304   5.216  14.222  0.00  0.00    +0.000 C 
ATOM     30  C   UNL     1       6.133   3.737  14.167  0.00  0.00    +0.000 C 
ENDBRANCH  26  28
ENDBRANCH  21  23
ENDBRANCH   3  17
TORSDOF 4
ENDMDL
MODEL 7
REMARK VINA RESULT:      -7.8      3.223      9.871
REMARK  Name = 
REMARK  7 active torsions:
REMARK  status: ('A' for Active; 'I' for Inactive)
REMARK    1  A    between atoms: C_1  and  C_2
REMARK    2  A    between atoms: C_3  and  C_4
REMARK    3  A    between atoms: N_6  and  C_7
REMARK    4  A    between atoms: C_11  and  C_12
REMARK    5  A    between atoms: C_15  and  C_16
REMARK    6  A    between atoms: C_21  and  C_22
REMARK    7  A    between atoms: N_28  and  C_29
REMARK                            x       y       z     vdW  Elec       q    Type
REMARK                         _______ _______ _______ _____ _____    ______ ____
ROOT
ATOM      1  C   UNL     1       1.599   7.720  20.120  0.00  0.00    +0.000 C 
ATOM      2  O   UNL     1       1.434   6.858  20.981  0.00  0.00    +0.000 OA
ATOM      3  N   UNL     1       2.224   7.502  18.910  0.00  0.00    +0.000 N 
ATOM      4  H   UNL     1       2.348   8.287  18.289  0.00  0.00    +0.000 HD
ENDROOT
BRANCH   1   7
ATOM      5  C   UNL     1       1.209  10.213  18.137  0.00  0.00    +0.000 C 
ATOM      6  C   UNL     1       0.971  10.211  19.633  0.00  0.00    +0.000 C 
ATOM      7  C   UNL     1       1.146   9.133  20.454  0.00  0.00    +0.000 C 
ATOM      8  C   UNL     1       0.731   9.221  21.942  0.00  0.00    +0.000 C 
ATOM      9  C   UNL     1       1.948   9.225  22.870  0.00  0.00    +0.000 C 
ATOM     10  N   UNL     1      -0.068  10.410  22.201  0.00  0.00    +0.000 N 
ATOM     11  N   UNL     1      -0.744  10.626  23.334  0.00  0.00    +0.000 NA
ATOM     12  N   UNL     1      -1.226  11.856  23.203  0.00  0.00    +0.000 NA
ATOM     13  N   UNL     1      -0.856  12.408  22.000  0.00  0.00    +0.000 NA
ATOM     14  C   UNL     1      -0.152  11.486  21.372  0.00  0.00    +0.000 A 
ATOM     15  N   UNL     1       0.450  11.434  20.148  0.00  0.00    +0.000 N 
ATOM     16  C   UNL     1       0.411  12.689  19.388  0.00  0.00    +0.000 C 
ENDBRANCH   1   7
BRANCH   3  17
ATOM     17  C   UNL     1       2.680   6.252  18.399  0.00  0.00    +0.000 A 
ATOM     18  C   UNL     1       2.040   5.033  18.634  0.00  0.00    +0.000 A 
ATOM     19  C   UNL     1       2.559   3.839  18.120  0.00  0.00    +0.000 A 
ATOM     20  C   UNL     1       3.707   3.848  17.327  0.00  0.00    +0.000 A 
ATOM     21  C   UNL     1       4.350   5.056  17.037  0.00  0.00    +0.000 A 
ATOM     22  C   UNL     1       3.843   6.248  17.606  0.00  0.00    +0.000 A 
BRANCH  21  23
ATOM     23  C   UNL     1       5.494   5.081  16.120  0.00  0.00    +0.000 A 
ATOM     24  N   UNL     1       6.455   6.017  16.165  0.00  0.00    +0.000 NA
ATOM     25  O   UNL     1       7.267   5.714  15.079  0.00  0.00    +0.000 OA
ATOM     26  C   UNL     1       6.730   4.613  14.471  0.00  0.00    +0.000 A 
ATOM     27  N   UNL     1       5.649   4.176  15.082  0.00  0.00    +0.000 NA
BRANCH  26  28
ATOM     28  C   UNL     1       7.350   4.008  13.214  0.00  0.00    +0.000 C 
ATOM     29  C   UNL     1       7.220   4.732  11.892  0.00  0.00    +0.000 C 
ATOM     30  C   UNL     1       6.445   3.481  12.121  0.00  0.00    +0.000 C 
ENDBRANCH  26  28
ENDBRANCH  21  23
ENDBRANCH   3  17
TORSDOF 4
ENDMDL
MODEL 8
REMARK VINA RESULT:      -7.8      3.359      9.797
REMARK  Name = 
REMARK  7 active torsions:
REMARK  status: ('A' for Active; 'I' for Inactive)
REMARK    1  A    between atoms: C_1  and  C_2
REMARK    2  A    between atoms: C_3  and  C_4
REMARK    3  A    between atoms: N_6  and  C_7
REMARK    4  A    between atoms: C_11  and  C_12
REMARK    5  A    between atoms: C_15  and  C_16
REMARK    6  A    between atoms: C_21  and  C_22
REMARK    7  A    between atoms: N_28  and  C_29
REMARK                            x       y       z     vdW  Elec       q    Type
REMARK                         _______ _______ _______ _____ _____    ______ ____
ROOT
ATOM      1  C   UNL     1       1.543   8.728  18.784  0.00  0.00    +0.000 C 
ATOM      2  O   UNL     1       1.034   8.739  17.665  0.00  0.00    +0.000 OA
ATOM      3  N   UNL     1       2.214   7.650  19.324  0.00  0.00    +0.000 N 
ATOM      4  H   UNL     1       2.558   7.726  20.268  0.00  0.00    +0.000 HD
ENDROOT
BRANCH   1   7
ATOM      5  C   UNL     1       2.280  11.776  18.105  0.00  0.00    +0.000 C 
ATOM      6  C   UNL     1       1.652  11.270  19.387  0.00  0.00    +0.000 C 
ATOM      7  C   UNL     1       1.350   9.963  19.649  0.00  0.00    +0.000 C 
ATOM      8  C   UNL     1       0.580   9.594  20.940  0.00  0.00    +0.000 C 
ATOM      9  C   UNL     1       1.468   8.845  21.935  0.00  0.00    +0.000 C 
ATOM     10  N   UNL     1       0.031  10.777  21.587  0.00  0.00    +0.000 N 
ATOM     11  N   UNL     1      -0.859  10.740  22.585  0.00  0.00    +0.000 NA
ATOM     12  N   UNL     1      -0.995  12.007  22.955  0.00  0.00    +0.000 NA
ATOM     13  N   UNL     1      -0.199  12.833  22.197  0.00  0.00    +0.000 NA
ATOM     14  C   UNL     1       0.421  12.055  21.331  0.00  0.00    +0.000 A 
ATOM     15  N   UNL     1       1.303  12.293  20.317  0.00  0.00    +0.000 N 
ATOM     16  C   UNL     1       1.756  13.684  20.207  0.00  0.00    +0.000 C 
ENDBRANCH   1   7
BRANCH   3  17
ATOM     17  C   UNL     1       2.530   6.427  18.664  0.00  0.00    +0.000 A 
ATOM     18  C   UNL     1       1.752   5.269  18.751  0.00  0.00    +0.000 A 
ATOM     19  C   UNL     1       2.137   4.095  18.095  0.00  0.00    +0.000 A 
ATOM     20  C   UNL     1       3.289   4.067  17.308  0.00  0.00    +0.000 A 
ATOM     21  C   UNL     1       4.070   5.219  17.165  0.00  0.00    +0.000 A 
ATOM     22  C   UNL     1       3.695   6.384  17.876  0.00  0.00    +0.000 A 
BRANCH  21  23
ATOM     23  C   UNL     1       5.220   5.223  16.257  0.00  0.00    +0.000 A 
ATOM     24  N   UNL     1       6.150   6.191  16.247  0.00  0.00    +0.000 NA
ATOM     25  O   UNL     1       6.981   5.845  15.189  0.00  0.00    +0.000 OA
ATOM     26  C   UNL     1       6.486   4.690  14.650  0.00  0.00    +0.000 A 
ATOM     27  N   UNL     1       5.415   4.258  15.282  0.00  0.00    +0.000 NA
BRANCH  26  28
ATOM     28  C   UNL     1       7.138   4.024  13.441  0.00  0.00    +0.000 C 
ATOM     29  C   UNL     1       7.077   4.704  12.090  0.00  0.00    +0.000 C 
ATOM     30  C   UNL     1       6.262   3.481  12.332  0.00  0.00    +0.000 C 
ENDBRANCH  26  28
ENDBRANCH  21  23
ENDBRANCH   3  17
TORSDOF 4
ENDMDL
MODEL 9
REMARK VINA RESULT:      -7.8      1.876      2.364
REMARK  Name = 
REMARK  7 active torsions:
REMARK  status: ('A' for Active; 'I' for Inactive)
REMARK    1  A    between atoms: C_1  and  C_2
REMARK    2  A    between atoms: C_3  and  C_4
REMARK    3  A    between atoms: N_6  and  C_7
REMARK    4  A    between atoms: C_11  and  C_12
REMARK    5  A    between atoms: C_15  and  C_16
REMARK    6  A    between atoms: C_21  and  C_22
REMARK    7  A    between atoms: N_28  and  C_29
REMARK                            x       y       z     vdW  Elec       q    Type
REMARK                         _______ _______ _______ _____ _____    ______ ____
ROOT
ATOM      1  C   UNL     1       2.730   7.259  18.350  0.00  0.00    +0.000 C 
ATOM      2  O   UNL     1       2.540   8.183  17.562  0.00  0.00    +0.000 OA
ATOM      3  N   UNL     1       2.316   7.261  19.666  0.00  0.00    +0.000 N 
ATOM      4  H   UNL     1       2.559   6.471  20.243  0.00  0.00    +0.000 HD
ENDROOT
BRANCH   1   7
ATOM      5  C   UNL     1       2.127   4.129  18.726  0.00  0.00    +0.000 C 
ATOM      6  C   UNL     1       3.309   4.734  17.994  0.00  0.00    +0.000 C 
ATOM      7  C   UNL     1       3.540   6.073  17.851  0.00  0.00    +0.000 C 
ATOM      8  C   UNL     1       4.706   6.562  16.959  0.00  0.00    +0.000 C 
ATOM      9  C   UNL     1       5.832   7.182  17.789  0.00  0.00    +0.000 C 
ATOM     10  N   UNL     1       5.248   5.479  16.152  0.00  0.00    +0.000 N 
ATOM     11  N   UNL     1       6.103   5.655  15.139  0.00  0.00    +0.000 NA
ATOM     12  N   UNL     1       6.431   4.425  14.764  0.00  0.00    +0.000 NA
ATOM     13  N   UNL     1       5.790   3.485  15.536  0.00  0.00    +0.000 NA
ATOM     14  C   UNL     1       5.036   4.155  16.385  0.00  0.00    +0.000 A 
ATOM     15  N   UNL     1       4.162   3.782  17.364  0.00  0.00    +0.000 N 
ATOM     16  C   UNL     1       4.103   2.338  17.620  0.00  0.00    +0.000 C 
ENDBRANCH   1   7
BRANCH   3  17
ATOM     17  C   UNL     1       1.518   8.253  20.307  0.00  0.00    +0.000 A 
ATOM     18  C   UNL     1       1.617   8.578  21.662  0.00  0.00    +0.000 A 
ATOM     19  C   UNL     1       0.784   9.548  22.230  0.00  0.00    +0.000 A 
ATOM     20  C   UNL     1      -0.139  10.239  21.445  0.00  0.00    +0.000 A 
ATOM     21  C   UNL     1      -0.236   9.968  20.075  0.00  0.00    +0.000 A 
ATOM     22  C   UNL     1       0.578   8.949  19.526  0.00  0.00    +0.000 A 
BRANCH  21  23
ATOM     23  C   UNL     1      -1.129  10.764  19.228  0.00  0.00    +0.000 A 
ATOM     24  N   UNL     1      -1.874  11.781  19.692  0.00  0.00    +0.000 NA
ATOM     25  O   UNL     1      -2.620  12.178  18.588  0.00  0.00    +0.000 OA
ATOM     26  C   UNL     1      -2.257  11.370  17.546  0.00  0.00    +0.000 A 
ATOM     27  N   UNL     1      -1.332  10.496  17.884  0.00  0.00    +0.000 NA
BRANCH  26  28
ATOM     28  C   UNL     1      -2.898  11.503  16.167  0.00  0.00    +0.000 C 
ATOM     29  C   UNL     1      -4.130  10.690  15.833  0.00  0.00    +0.000 C 
ATOM     30  C   UNL     1      -2.828  10.339  15.202  0.00  0.00    +0.000 C 
ENDBRANCH  26  28
ENDBRANCH  21  23
ENDBRANCH   3  17
TORSDOF 4
ENDMDL
