MODEL 1
REMARK VINA RESULT:      -8.8      0.000      0.000
REMARK  Name = 
REMARK  7 active torsions:
REMARK  status: ('A' for Active; 'I' for Inactive)
REMARK    1  A    between atoms: C_1  and  C_2
REMARK    2  A    between atoms: N_8  and  C_9
REMARK    3  A    between atoms: C_9  and  C_10
REMARK    4  A    between atoms: C_9  and  C_11
REMARK    5  A    between atoms: C_13  and  C_14
REMARK    6  A    between atoms: N_16  and  C_17
REMARK    7  A    between atoms: N_21  and  C_22
REMARK                            x       y       z     vdW  Elec       q    Type
REMARK                         _______ _______ _______ _____ _____    ______ ____
ROOT
ATOM      1  C   UNL     1       2.289   7.353  18.921  0.00  0.00    +0.000 C 
ATOM      2  O   UNL     1       1.837   6.840  17.915  0.00  0.00    +0.000 OA
ATOM      3  N   UNL     1       3.528   6.876  19.480  0.00  0.00    +0.000 N 
ATOM      4  H   UNL     1       3.769   7.103  20.438  0.00  0.00    +0.000 HD
ENDROOT
BRANCH   1  14
ATOM      5  C   UNL     1       1.668  10.048  17.740  0.00  0.00    +0.000 C 
ATOM      6  C   UNL     1       1.325   9.688  19.162  0.00  0.00    +0.000 A 
ATOM      7  N   UNL     1       0.721  10.698  19.851  0.00  0.00    +0.000 NA
ATOM      8  C   UNL     1       0.383  10.391  21.119  0.00  0.00    +0.000 A 
ATOM      9  C   UNL     1       0.572   9.168  21.744  0.00  0.00    +0.000 A 
ATOM     10  C   UNL     1       0.051   9.352  23.041  0.00  0.00    +0.000 A 
ATOM     11  N   UNL     1      -0.427  10.583  23.238  0.00  0.00    +0.000 NA
ATOM     12  N   UNL     1      -0.210  11.209  22.055  0.00  0.00    +0.000 N 
ATOM     13  C   UNL     1       1.187   8.136  21.017  0.00  0.00    +0.000 A 
ATOM     14  C   UNL     1       1.581   8.411  19.697  0.00  0.00    +0.000 A 
BRANCH  12  15
ATOM     15  C   UNL     1      -0.613  12.604  21.889  0.00  0.00    +0.000 C 
ATOM     16  C   UNL     1      -1.684  12.749  20.806  0.00  0.00    +0.000 C 
ATOM     17  C   UNL     1      -1.098  13.219  23.206  0.00  0.00    +0.000 C 
ENDBRANCH  12  15
ENDBRANCH   1  14
BRANCH   3  18
ATOM     18  C   UNL     1       4.270   5.857  18.873  0.00  0.00    +0.000 A 
ATOM     19  C   UNL     1       5.403   5.979  18.111  0.00  0.00    +0.000 A 
ATOM     20  C   UNL     1       5.827   4.673  17.872  0.00  0.00    +0.000 A 
ATOM     21  N   UNL     1       5.124   3.750  18.507  0.00  0.00    +0.000 NA
ATOM     22  N   UNL     1       4.099   4.469  19.054  0.00  0.00    +0.000 N 
ATOM     23  C   UNL     1       7.050   4.572  17.057  0.00  0.00    +0.000 C 
ATOM     24  C   UNL     1       7.451   6.073  16.881  0.00  0.00    +0.000 C 
ATOM     25  C   UNL     1       6.360   6.964  17.581  0.00  0.00    +0.000 C 
BRANCH  22  26
ATOM     26  C   UNL     1       3.013   3.810  19.683  0.00  0.00    +0.000 A 
ATOM     27  C   UNL     1       1.892   3.452  18.928  0.00  0.00    +0.000 A 
ATOM     28  C   UNL     1       0.825   2.789  19.532  0.00  0.00    +0.000 A 
ATOM     29  C   UNL     1       0.859   2.515  20.899  0.00  0.00    +0.000 A 
ATOM     30  C   UNL     1       1.957   2.905  21.663  0.00  0.00    +0.000 A 
ATOM     31  C   UNL     1       3.037   3.545  21.061  0.00  0.00    +0.000 A 
ENDBRANCH  22  26
ENDBRANCH   3  18
TORSDOF 4
ENDMDL
MODEL 2
REMARK VINA RESULT:      -8.6      1.172      3.795
REMARK  Name = 
REMARK  7 active torsions:
REMARK  status: ('A' for Active; 'I' for Inactive)
REMARK    1  A    between atoms: C_1  and  C_2
REMARK    2  A    between atoms: N_8  and  C_9
REMARK    3  A    between atoms: C_9  and  C_10
REMARK    4  A    between atoms: C_9  and  C_11
REMARK    5  A    between atoms: C_13  and  C_14
REMARK    6  A    between atoms: N_16  and  C_17
REMARK    7  A    between atoms: N_21  and  C_22
REMARK                            x       y       z     vdW  Elec       q    Type
REMARK                         _______ _______ _______ _____ _____    ______ ____
ROOT
ATOM      1  C   UNL     1       2.198   6.823  19.069  0.00  0.00    +0.000 C 
ATOM      2  O   UNL     1       1.849   6.424  17.973  0.00  0.00    +0.000 OA
ATOM      3  N   UNL     1       3.118   6.047  19.860  0.00  0.00    +0.000 N 
ATOM      4  H   UNL     1       3.202   6.226  20.854  0.00  0.00    +0.000 HD
ENDROOT
BRANCH   1  14
ATOM      5  C   UNL     1       2.008   9.441  17.600  0.00  0.00    +0.000 C 
ATOM      6  C   UNL     1       1.597   9.289  19.041  0.00  0.00    +0.000 A 
ATOM      7  N   UNL     1       1.146  10.445  19.606  0.00  0.00    +0.000 NA
ATOM      8  C   UNL     1       0.749  10.328  20.890  0.00  0.00    +0.000 A 
ATOM      9  C   UNL     1       0.743   9.163  21.641  0.00  0.00    +0.000 A 
ATOM     10  C   UNL     1       0.240   9.559  22.898  0.00  0.00    +0.000 A 
ATOM     11  N   UNL     1      -0.047  10.862  22.954  0.00  0.00    +0.000 NA
ATOM     12  N   UNL     1       0.277  11.320  21.719  0.00  0.00    +0.000 N 
ATOM     13  C   UNL     1       1.203   7.980  21.041  0.00  0.00    +0.000 A 
ATOM     14  C   UNL     1       1.650   8.052  19.712  0.00  0.00    +0.000 A 
BRANCH  12  15
ATOM     15  C   UNL     1       0.092  12.734  21.400  0.00  0.00    +0.000 C 
ATOM     16  C   UNL     1      -0.758  13.437  22.461  0.00  0.00    +0.000 C 
ATOM     17  C   UNL     1       1.430  13.459  21.220  0.00  0.00    +0.000 C 
ENDBRANCH  12  15
ENDBRANCH   1  14
BRANCH   3  18
ATOM     18  C   UNL     1       3.672   4.852  19.390  0.00  0.00    +0.000 A 
ATOM     19  C   UNL     1       3.118   3.598  19.417  0.00  0.00    +0.000 A 
ATOM     20  C   UNL     1       4.001   2.791  18.702  0.00  0.00    +0.000 A 
ATOM     21  N   UNL     1       5.001   3.448  18.138  0.00  0.00    +0.000 NA
ATOM     22  N   UNL     1       4.856   4.712  18.638  0.00  0.00    +0.000 N 
ATOM     23  C   UNL     1       3.591   1.380  18.607  0.00  0.00    +0.000 C 
ATOM     24  C   UNL     1       2.189   1.398  19.298  0.00  0.00    +0.000 C 
ATOM     25  C   UNL     1       1.908   2.858  19.813  0.00  0.00    +0.000 C 
BRANCH  22  26
ATOM     26  C   UNL     1       5.850   5.696  18.405  0.00  0.00    +0.000 A 
ATOM     27  C   UNL     1       5.633   6.676  17.431  0.00  0.00    +0.000 A 
ATOM     28  C   UNL     1       6.595   7.659  17.202  0.00  0.00    +0.000 A 
ATOM     29  C   UNL     1       7.790   7.644  17.921  0.00  0.00    +0.000 A 
ATOM     30  C   UNL     1       8.027   6.647  18.865  0.00  0.00    +0.000 A 
ATOM     31  C   UNL     1       7.059   5.677  19.115  0.00  0.00    +0.000 A 
ENDBRANCH  22  26
ENDBRANCH   3  18
TORSDOF 4
ENDMDL
MODEL 3
REMARK VINA RESULT:      -8.5      1.507      2.218
REMARK  Name = 
REMARK  7 active torsions:
REMARK  status: ('A' for Active; 'I' for Inactive)
REMARK    1  A    between atoms: C_1  and  C_2
REMARK    2  A    between atoms: N_8  and  C_9
REMARK    3  A    between atoms: C_9  and  C_10
REMARK    4  A    between atoms: C_9  and  C_11
REMARK    5  A    between atoms: C_13  and  C_14
REMARK    6  A    between atoms: N_16  and  C_17
REMARK    7  A    between atoms: N_21  and  C_22
REMARK                            x       y       z     vdW  Elec       q    Type
REMARK                         _______ _______ _______ _____ _____    ______ ____
ROOT
ATOM      1  C   UNL     1       2.166   7.205  18.029  0.00  0.00    +0.000 C 
ATOM      2  O   UNL     1       1.372   6.516  17.418  0.00  0.00    +0.000 OA
ATOM      3  N   UNL     1       3.531   6.771  18.181  0.00  0.00    +0.000 N 
ATOM      4  H   UNL     1       4.116   7.188  18.895  0.00  0.00    +0.000 HD
ENDROOT
BRANCH   1  14
ATOM      5  C   UNL     1       1.319   7.221  20.916  0.00  0.00    +0.000 C 
ATOM      6  C   UNL     1       1.357   8.471  20.075  0.00  0.00    +0.000 A 
ATOM      7  N   UNL     1       0.964   9.592  20.745  0.00  0.00    +0.000 NA
ATOM      8  C   UNL     1       1.013  10.727  20.019  0.00  0.00    +0.000 A 
ATOM      9  C   UNL     1       1.437  10.841  18.705  0.00  0.00    +0.000 A 
ATOM     10  C   UNL     1       1.307  12.214  18.412  0.00  0.00    +0.000 A 
ATOM     11  N   UNL     1       0.837  12.922  19.442  0.00  0.00    +0.000 NA
ATOM     12  N   UNL     1       0.655  11.996  20.416  0.00  0.00    +0.000 N 
ATOM     13  C   UNL     1       1.846   9.678  18.033  0.00  0.00    +0.000 A 
ATOM     14  C   UNL     1       1.793   8.464  18.737  0.00  0.00    +0.000 A 
BRANCH  12  15
ATOM     15  C   UNL     1       0.140  12.409  21.721  0.00  0.00    +0.000 C 
ATOM     16  C   UNL     1       0.231  13.926  21.899  0.00  0.00    +0.000 C 
ATOM     17  C   UNL     1      -1.296  11.928  21.947  0.00  0.00    +0.000 C 
ENDBRANCH  12  15
ENDBRANCH   1  14
BRANCH   3  18
ATOM     18  C   UNL     1       3.999   5.586  17.602  0.00  0.00    +0.000 A 
ATOM     19  C   UNL     1       4.876   5.448  16.558  0.00  0.00    +0.000 A 
ATOM     20  C   UNL     1       5.126   4.080  16.466  0.00  0.00    +0.000 A 
ATOM     21  N   UNL     1       4.569   3.362  17.427  0.00  0.00    +0.000 NA
ATOM     22  N   UNL     1       3.792   4.277  18.081  0.00  0.00    +0.000 N 
ATOM     23  C   UNL     1       6.058   3.704  15.390  0.00  0.00    +0.000 C 
ATOM     24  C   UNL     1       6.495   5.098  14.833  0.00  0.00    +0.000 C 
ATOM     25  C   UNL     1       5.711   6.214  15.616  0.00  0.00    +0.000 C 
BRANCH  22  26
ATOM     26  C   UNL     1       2.885   3.862  19.089  0.00  0.00    +0.000 A 
ATOM     27  C   UNL     1       1.643   3.333  18.724  0.00  0.00    +0.000 A 
ATOM     28  C   UNL     1       0.750   2.906  19.705  0.00  0.00    +0.000 A 
ATOM     29  C   UNL     1       1.081   3.040  21.054  0.00  0.00    +0.000 A 
ATOM     30  C   UNL     1       2.301   3.603  21.423  0.00  0.00    +0.000 A 
ATOM     31  C   UNL     1       3.207   4.008  20.446  0.00  0.00    +0.000 A 
ENDBRANCH  22  26
ENDBRANCH   3  18
TORSDOF 4
ENDMDL
MODEL 4
REMARK VINA RESULT:      -8.4      1.477      4.451
REMARK  Name = 
REMARK  7 active torsions:
REMARK  status: ('A' for Active; 'I' for Inactive)
REMARK    1  A    between atoms: C_1  and  C_2
REMARK    2  A    between atoms: N_8  and  C_9
REMARK    3  A    between atoms: C_9  and  C_10
REMARK    4  A    between atoms: C_9  and  C_11
REMARK    5  A    between atoms: C_13  and  C_14
REMARK    6  A    between atoms: N_16  and  C_17
REMARK    7  A    between atoms: N_21  and  C_22
REMARK                            x       y       z     vdW  Elec       q    Type
REMARK                         _______ _______ _______ _____ _____    ______ ____
ROOT
ATOM      1  C   UNL     1       2.102   7.594  18.684  0.00  0.00    +0.000 C 
ATOM      2  O   UNL     1       1.753   7.089  17.634  0.00  0.00    +0.000 OA
ATOM      3  N   UNL     1       2.773   6.799  19.680  0.00  0.00    +0.000 N 
ATOM      4  H   UNL     1       2.824   7.128  20.637  0.00  0.00    +0.000 HD
ENDROOT
BRANCH   1  14
ATOM      5  C   UNL     1       0.644   8.274  21.226  0.00  0.00    +0.000 C 
ATOM      6  C   UNL     1       1.074   9.322  20.233  0.00  0.00    +0.000 A 
ATOM      7  N   UNL     1       0.730  10.591  20.595  0.00  0.00    +0.000 NA
ATOM      8  C   UNL     1       1.126  11.549  19.733  0.00  0.00    +0.000 A 
ATOM      9  C   UNL     1       1.847  11.353  18.566  0.00  0.00    +0.000 A 
ATOM     10  C   UNL     1       2.013  12.649  18.034  0.00  0.00    +0.000 A 
ATOM     11  N   UNL     1       1.446  13.595  18.787  0.00  0.00    +0.000 NA
ATOM     12  N   UNL     1       0.901  12.905  19.820  0.00  0.00    +0.000 N 
ATOM     13  C   UNL     1       2.200  10.041  18.212  0.00  0.00    +0.000 A 
ATOM     14  C   UNL     1       1.792   9.002  19.065  0.00  0.00    +0.000 A 
BRANCH  12  15
ATOM     15  C   UNL     1       0.182  13.623  20.871  0.00  0.00    +0.000 C 
ATOM     16  C   UNL     1       1.119  14.544  21.656  0.00  0.00    +0.000 C 
ATOM     17  C   UNL     1      -1.004  14.415  20.313  0.00  0.00    +0.000 C 
ENDBRANCH  12  15
ENDBRANCH   1  14
BRANCH   3  18
ATOM     18  C   UNL     1       3.086   5.452  19.464  0.00  0.00    +0.000 A 
ATOM     19  C   UNL     1       2.283   4.359  19.664  0.00  0.00    +0.000 A 
ATOM     20  C   UNL     1       3.006   3.277  19.165  0.00  0.00    +0.000 A 
ATOM     21  N   UNL     1       4.142   3.610  18.573  0.00  0.00    +0.000 NA
ATOM     22  N   UNL     1       4.243   4.947  18.838  0.00  0.00    +0.000 N 
ATOM     23  C   UNL     1       2.317   1.981  19.282  0.00  0.00    +0.000 C 
ATOM     24  C   UNL     1       0.924   2.401  19.853  0.00  0.00    +0.000 C 
ATOM     25  C   UNL     1       0.932   3.957  20.088  0.00  0.00    +0.000 C 
BRANCH  22  26
ATOM     26  C   UNL     1       5.427   5.657  18.515  0.00  0.00    +0.000 A 
ATOM     27  C   UNL     1       6.580   5.460  19.282  0.00  0.00    +0.000 A 
ATOM     28  C   UNL     1       7.755   6.140  18.965  0.00  0.00    +0.000 A 
ATOM     29  C   UNL     1       7.771   7.044  17.902  0.00  0.00    +0.000 A 
ATOM     30  C   UNL     1       6.614   7.272  17.160  0.00  0.00    +0.000 A 
ATOM     31  C   UNL     1       5.444   6.578  17.457  0.00  0.00    +0.000 A 
ENDBRANCH  22  26
ENDBRANCH   3  18
TORSDOF 4
ENDMDL
MODEL 5
REMARK VINA RESULT:      -8.2      1.593      3.997
REMARK  Name = 
REMARK  7 active torsions:
REMARK  status: ('A' for Active; 'I' for Inactive)
REMARK    1  A    between atoms: C_1  and  C_2
REMARK    2  A    between atoms: N_8  and  C_9
REMARK    3  A    between atoms: C_9  and  C_10
REMARK    4  A    between atoms: C_9  and  C_11
REMARK    5  A    between atoms: C_13  and  C_14
REMARK    6  A    between atoms: N_16  and  C_17
REMARK    7  A    between atoms: N_21  and  C_22
REMARK                            x       y       z     vdW  Elec       q    Type
REMARK                         _______ _______ _______ _____ _____    ______ ____
ROOT
ATOM      1  C   UNL     1       2.004   6.737  20.050  0.00  0.00    +0.000 C 
ATOM      2  O   UNL     1       1.857   5.928  20.946  0.00  0.00    +0.000 OA
ATOM      3  N   UNL     1       2.745   6.378  18.868  0.00  0.00    +0.000 N 
ATOM      4  H   UNL     1       3.096   7.104  18.254  0.00  0.00    +0.000 HD
ENDROOT
BRANCH   1  14
ATOM      5  C   UNL     1       2.266   8.638  17.733  0.00  0.00    +0.000 C 
ATOM      6  C   UNL     1       1.695   9.055  19.063  0.00  0.00    +0.000 A 
ATOM      7  N   UNL     1       1.322  10.366  19.111  0.00  0.00    +0.000 NA
ATOM      8  C   UNL     1       0.785  10.757  20.284  0.00  0.00    +0.000 A 
ATOM      9  C   UNL     1       0.568   9.954  21.393  0.00  0.00    +0.000 A 
ATOM     10  C   UNL     1      -0.012  10.818  22.344  0.00  0.00    +0.000 A 
ATOM     11  N   UNL     1      -0.153  12.067  21.892  0.00  0.00    +0.000 NA
ATOM     12  N   UNL     1       0.346  12.014  20.632  0.00  0.00    +0.000 N 
ATOM     13  C   UNL     1       0.950   8.604  21.324  0.00  0.00    +0.000 A 
ATOM     14  C   UNL     1       1.536   8.151  20.130  0.00  0.00    +0.000 A 
BRANCH  12  15
ATOM     15  C   UNL     1       0.358  13.222  19.807  0.00  0.00    +0.000 C 
ATOM     16  C   UNL     1      -0.759  13.192  18.762  0.00  0.00    +0.000 C 
ATOM     17  C   UNL     1       0.263  14.493  20.656  0.00  0.00    +0.000 C 
ENDBRANCH  12  15
ENDBRANCH   1  14
BRANCH   3  18
ATOM     18  C   UNL     1       3.273   5.096  18.687  0.00  0.00    +0.000 A 
ATOM     19  C   UNL     1       2.607   3.898  18.713  0.00  0.00    +0.000 A 
ATOM     20  C   UNL     1       3.550   2.945  18.336  0.00  0.00    +0.000 A 
ATOM     21  N   UNL     1       4.717   3.451  17.970  0.00  0.00    +0.000 NA
ATOM     22  N   UNL     1       4.583   4.776  18.276  0.00  0.00    +0.000 N 
ATOM     23  C   UNL     1       3.036   1.565  18.298  0.00  0.00    +0.000 C 
ATOM     24  C   UNL     1       1.519   1.772  18.610  0.00  0.00    +0.000 C 
ATOM     25  C   UNL     1       1.269   3.302  18.873  0.00  0.00    +0.000 C 
BRANCH  22  26
ATOM     26  C   UNL     1       5.696   5.650  18.190  0.00  0.00    +0.000 A 
ATOM     27  C   UNL     1       6.781   5.470  19.054  0.00  0.00    +0.000 A 
ATOM     28  C   UNL     1       7.889   6.312  18.970  0.00  0.00    +0.000 A 
ATOM     29  C   UNL     1       7.900   7.357  18.046  0.00  0.00    +0.000 A 
ATOM     30  C   UNL     1       6.805   7.564  17.210  0.00  0.00    +0.000 A 
ATOM     31  C   UNL     1       5.706   6.711  17.273  0.00  0.00    +0.000 A 
ENDBRANCH  22  26
ENDBRANCH   3  18
TORSDOF 4
ENDMDL
MODEL 6
REMARK VINA RESULT:      -7.9      1.176      2.011
REMARK  Name = 
REMARK  7 active torsions:
REMARK  status: ('A' for Active; 'I' for Inactive)
REMARK    1  A    between atoms: C_1  and  C_2
REMARK    2  A    between atoms: N_8  and  C_9
REMARK    3  A    between atoms: C_9  and  C_10
REMARK    4  A    between atoms: C_9  and  C_11
REMARK    5  A    between atoms: C_13  and  C_14
REMARK    6  A    between atoms: N_16  and  C_17
REMARK    7  A    between atoms: N_21  and  C_22
REMARK                            x       y       z     vdW  Elec       q    Type
REMARK                         _______ _______ _______ _____ _____    ______ ____
ROOT
ATOM      1  C   UNL     1       2.605   8.016  18.148  0.00  0.00    +0.000 C 
ATOM      2  O   UNL     1       2.720   7.928  16.940  0.00  0.00    +0.000 OA
ATOM      3  N   UNL     1       3.262   7.064  19.006  0.00  0.00    +0.000 N 
ATOM      4  H   UNL     1       2.964   6.964  19.970  0.00  0.00    +0.000 HD
ENDROOT
BRANCH   1  14
ATOM      5  C   UNL     1       1.325   7.470  20.815  0.00  0.00    +0.000 C 
ATOM      6  C   UNL     1       1.093   8.747  20.051  0.00  0.00    +0.000 A 
ATOM      7  N   UNL     1       0.248   9.614  20.679  0.00  0.00    +0.000 NA
ATOM      8  C   UNL     1       0.044  10.775  20.025  0.00  0.00    +0.000 A 
ATOM      9  C   UNL     1       0.623  11.151  18.822  0.00  0.00    +0.000 A 
ATOM     10  C   UNL     1       0.102  12.436  18.568  0.00  0.00    +0.000 A 
ATOM     11  N   UNL     1      -0.740  12.851  19.517  0.00  0.00    +0.000 NA
ATOM     12  N   UNL     1      -0.771  11.820  20.398  0.00  0.00    +0.000 N 
ATOM     13  C   UNL     1       1.498  10.250  18.193  0.00  0.00    +0.000 A 
ATOM     14  C   UNL     1       1.727   9.014  18.822  0.00  0.00    +0.000 A 
BRANCH  12  15
ATOM     15  C   UNL     1      -1.604  11.916  21.595  0.00  0.00    +0.000 C 
ATOM     16  C   UNL     1      -0.851  12.587  22.746  0.00  0.00    +0.000 C 
ATOM     17  C   UNL     1      -2.920  12.649  21.317  0.00  0.00    +0.000 C 
ENDBRANCH  12  15
ENDBRANCH   1  14
BRANCH   3  18
ATOM     18  C   UNL     1       4.081   6.050  18.497  0.00  0.00    +0.000 A 
ATOM     19  C   UNL     1       5.285   6.182  17.854  0.00  0.00    +0.000 A 
ATOM     20  C   UNL     1       5.755   4.882  17.684  0.00  0.00    +0.000 A 
ATOM     21  N   UNL     1       5.006   3.955  18.259  0.00  0.00    +0.000 NA
ATOM     22  N   UNL     1       3.917   4.663  18.684  0.00  0.00    +0.000 N 
ATOM     23  C   UNL     1       7.057   4.792  17.002  0.00  0.00    +0.000 C 
ATOM     24  C   UNL     1       7.448   6.297  16.842  0.00  0.00    +0.000 C 
ATOM     25  C   UNL     1       6.275   7.178  17.409  0.00  0.00    +0.000 C 
BRANCH  22  26
ATOM     26  C   UNL     1       2.784   3.993  19.209  0.00  0.00    +0.000 A 
ATOM     27  C   UNL     1       1.852   3.424  18.335  0.00  0.00    +0.000 A 
ATOM     28  C   UNL     1       0.742   2.748  18.839  0.00  0.00    +0.000 A 
ATOM     29  C   UNL     1       0.541   2.670  20.217  0.00  0.00    +0.000 A 
ATOM     30  C   UNL     1       1.446   3.269  21.092  0.00  0.00    +0.000 A 
ATOM     31  C   UNL     1       2.569   3.924  20.594  0.00  0.00    +0.000 A 
ENDBRANCH  22  26
ENDBRANCH   3  18
TORSDOF 4
ENDMDL
MODEL 7
REMARK VINA RESULT:      -7.8      1.289      1.555
REMARK  Name = 
REMARK  7 active torsions:
REMARK  status: ('A' for Active; 'I' for Inactive)
REMARK    1  A    between atoms: C_1  and  C_2
REMARK    2  A    between atoms: N_8  and  C_9
REMARK    3  A    between atoms: C_9  and  C_10
REMARK    4  A    between atoms: C_9  and  C_11
REMARK    5  A    between atoms: C_13  and  C_14
REMARK    6  A    between atoms: N_16  and  C_17
REMARK    7  A    between atoms: N_21  and  C_22
REMARK                            x       y       z     vdW  Elec       q    Type
REMARK                         _______ _______ _______ _____ _____    ______ ____
ROOT
ATOM      1  C   UNL     1       2.675   6.884  19.516  0.00  0.00    +0.000 C 
ATOM      2  O   UNL     1       3.457   6.386  20.304  0.00  0.00    +0.000 OA
ATOM      3  N   UNL     1       2.633   6.423  18.152  0.00  0.00    +0.000 N 
ATOM      4  H   UNL     1       2.193   6.996  17.441  0.00  0.00    +0.000 HD
ENDROOT
BRANCH   1  14
ATOM      5  C   UNL     1       2.150   9.107  17.559  0.00  0.00    +0.000 C 
ATOM      6  C   UNL     1       1.576   9.101  18.952  0.00  0.00    +0.000 A 
ATOM      7  N   UNL     1       0.812  10.195  19.233  0.00  0.00    +0.000 NA
ATOM      8  C   UNL     1       0.268  10.200  20.466  0.00  0.00    +0.000 A 
ATOM      9  C   UNL     1       0.399   9.207  21.424  0.00  0.00    +0.000 A 
ATOM     10  C   UNL     1      -0.353   9.675  22.520  0.00  0.00    +0.000 A 
ATOM     11  N   UNL     1      -0.915  10.864  22.294  0.00  0.00    +0.000 NA
ATOM     12  N   UNL     1      -0.520  11.176  21.035  0.00  0.00    +0.000 N 
ATOM     13  C   UNL     1       1.182   8.082  21.114  0.00  0.00    +0.000 A 
ATOM     14  C   UNL     1       1.791   8.038  19.849  0.00  0.00    +0.000 A 
BRANCH  12  15
ATOM     15  C   UNL     1      -0.952  12.436  20.432  0.00  0.00    +0.000 C 
ATOM     16  C   UNL     1      -2.224  12.248  19.603  0.00  0.00    +0.000 C 
ATOM     17  C   UNL     1      -1.154  13.532  21.482  0.00  0.00    +0.000 C 
ENDBRANCH  12  15
ENDBRANCH   1  14
BRANCH   3  18
ATOM     18  C   UNL     1       3.442   5.376  17.700  0.00  0.00    +0.000 A 
ATOM     19  C   UNL     1       4.374   5.404  16.695  0.00  0.00    +0.000 A 
ATOM     20  C   UNL     1       4.999   4.160  16.739  0.00  0.00    +0.000 A 
ATOM     21  N   UNL     1       4.619   3.396  17.750  0.00  0.00    +0.000 NA
ATOM     22  N   UNL     1       3.585   4.106  18.295  0.00  0.00    +0.000 N 
ATOM     23  C   UNL     1       6.053   3.974  15.726  0.00  0.00    +0.000 C 
ATOM     24  C   UNL     1       6.110   5.382  15.051  0.00  0.00    +0.000 C 
ATOM     25  C   UNL     1       5.007   6.292  15.706  0.00  0.00    +0.000 C 
BRANCH  22  26
ATOM     26  C   UNL     1       2.782   3.538  19.316  0.00  0.00    +0.000 A 
ATOM     27  C   UNL     1       3.389   3.031  20.469  0.00  0.00    +0.000 A 
ATOM     28  C   UNL     1       2.609   2.484  21.487  0.00  0.00    +0.000 A 
ATOM     29  C   UNL     1       1.224   2.410  21.340  0.00  0.00    +0.000 A 
ATOM     30  C   UNL     1       0.618   2.879  20.176  0.00  0.00    +0.000 A 
ATOM     31  C   UNL     1       1.390   3.448  19.166  0.00  0.00    +0.000 A 
ENDBRANCH  22  26
ENDBRANCH   3  18
TORSDOF 4
ENDMDL
MODEL 8
REMARK VINA RESULT:      -7.8      2.452      8.990
REMARK  Name = 
REMARK  7 active torsions:
REMARK  status: ('A' for Active; 'I' for Inactive)
REMARK    1  A    between atoms: C_1  and  C_2
REMARK    2  A    between atoms: N_8  and  C_9
REMARK    3  A    between atoms: C_9  and  C_10
REMARK    4  A    between atoms: C_9  and  C_11
REMARK    5  A    between atoms: C_13  and  C_14
REMARK    6  A    between atoms: N_16  and  C_17
REMARK    7  A    between atoms: N_21  and  C_22
REMARK                            x       y       z     vdW  Elec       q    Type
REMARK                         _______ _______ _______ _____ _____    ______ ____
ROOT
ATOM      1  C   UNL     1       0.371   9.781  20.237  0.00  0.00    +0.000 C 
ATOM      2  O   UNL     1      -0.722   9.992  19.746  0.00  0.00    +0.000 OA
ATOM      3  N   UNL     1       0.968  10.753  21.116  0.00  0.00    +0.000 N 
ATOM      4  H   UNL     1       1.962  10.715  21.308  0.00  0.00    +0.000 HD
ENDROOT
BRANCH   1  14
ATOM      5  C   UNL     1       2.089   9.668  17.770  0.00  0.00    +0.000 C 
ATOM      6  C   UNL     1       1.979   8.516  18.735  0.00  0.00    +0.000 A 
ATOM      7  N   UNL     1       2.721   7.429  18.375  0.00  0.00    +0.000 NA
ATOM      8  C   UNL     1       2.657   6.394  19.237  0.00  0.00    +0.000 A 
ATOM      9  C   UNL     1       1.944   6.360  20.424  0.00  0.00    +0.000 A 
ATOM     10  C   UNL     1       2.205   5.079  20.953  0.00  0.00    +0.000 A 
ATOM     11  N   UNL     1       3.009   4.351  20.176  0.00  0.00    +0.000 NA
ATOM     12  N   UNL     1       3.272   5.168  19.125  0.00  0.00    +0.000 N 
ATOM     13  C   UNL     1       1.193   7.491  20.784  0.00  0.00    +0.000 A 
ATOM     14  C   UNL     1       1.206   8.589  19.909  0.00  0.00    +0.000 A 
BRANCH  12  15
ATOM     15  C   UNL     1       4.141   4.701  18.046  0.00  0.00    +0.000 C 
ATOM     16  C   UNL     1       5.559   4.430  18.551  0.00  0.00    +0.000 C 
ATOM     17  C   UNL     1       3.573   3.459  17.352  0.00  0.00    +0.000 C 
ENDBRANCH  12  15
ENDBRANCH   1  14
BRANCH   3  18
ATOM     18  C   UNL     1       0.307  11.934  21.470  0.00  0.00    +0.000 A 
ATOM     19  C   UNL     1      -0.797  12.075  22.270  0.00  0.00    +0.000 A 
ATOM     20  C   UNL     1      -0.967  13.449  22.424  0.00  0.00    +0.000 A 
ATOM     21  N   UNL     1      -0.005  14.178  21.884  0.00  0.00    +0.000 NA
ATOM     22  N   UNL     1       0.739  13.251  21.209  0.00  0.00    +0.000 N 
ATOM     23  C   UNL     1      -2.117  13.828  23.263  0.00  0.00    +0.000 C 
ATOM     24  C   UNL     1      -2.638  12.438  23.752  0.00  0.00    +0.000 C 
ATOM     25  C   UNL     1      -1.756  11.316  23.092  0.00  0.00    +0.000 C 
BRANCH  22  26
ATOM     26  C   UNL     1       1.784  13.658  20.342  0.00  0.00    +0.000 A 
ATOM     27  C   UNL     1       1.652  13.464  18.964  0.00  0.00    +0.000 A 
ATOM     28  C   UNL     1       2.666  13.874  18.100  0.00  0.00    +0.000 A 
ATOM     29  C   UNL     1       3.829  14.449  18.614  0.00  0.00    +0.000 A 
ATOM     30  C   UNL     1       3.981  14.609  19.989  0.00  0.00    +0.000 A 
ATOM     31  C   UNL     1       2.961  14.223  20.855  0.00  0.00    +0.000 A 
ENDBRANCH  22  26
ENDBRANCH   3  18
TORSDOF 4
ENDMDL
MODEL 9
REMARK VINA RESULT:      -7.7      1.715      4.467
REMARK  Name = 
REMARK  7 active torsions:
REMARK  status: ('A' for Active; 'I' for Inactive)
REMARK    1  A    between atoms: C_1  and  C_2
REMARK    2  A    between atoms: N_8  and  C_9
REMARK    3  A    between atoms: C_9  and  C_10
REMARK    4  A    between atoms: C_9  and  C_11
REMARK    5  A    between atoms: C_13  and  C_14
REMARK    6  A    between atoms: N_16  and  C_17
REMARK    7  A    between atoms: N_21  and  C_22
REMARK                            x       y       z     vdW  Elec       q    Type
REMARK                         _______ _______ _______ _____ _____    ______ ____
ROOT
ATOM      1  C   UNL     1       2.004   7.189  19.755  0.00  0.00    +0.000 C 
ATOM      2  O   UNL     1       1.819   6.486  20.730  0.00  0.00    +0.000 OA
ATOM      3  N   UNL     1       2.707   6.666  18.611  0.00  0.00    +0.000 N 
ATOM      4  H   UNL     1       3.094   7.302  17.924  0.00  0.00    +0.000 HD
ENDROOT
BRANCH   1  14
ATOM      5  C   UNL     1      -0.001   8.393  21.646  0.00  0.00    +0.000 C 
ATOM      6  C   UNL     1       0.657   9.188  20.549  0.00  0.00    +0.000 A 
ATOM      7  N   UNL     1       0.249  10.488  20.496  0.00  0.00    +0.000 NA
ATOM      8  C   UNL     1       0.843  11.226  19.537  0.00  0.00    +0.000 A 
ATOM      9  C   UNL     1       1.815  10.788  18.651  0.00  0.00    +0.000 A 
ATOM     10  C   UNL     1       2.111  11.922  17.867  0.00  0.00    +0.000 A 
ATOM     11  N   UNL     1       1.392  12.993  18.212  0.00  0.00    +0.000 NA
ATOM     12  N   UNL     1       0.616  12.549  19.231  0.00  0.00    +0.000 N 
ATOM     13  C   UNL     1       2.230   9.449  18.725  0.00  0.00    +0.000 A 
ATOM     14  C   UNL     1       1.625   8.630  19.693  0.00  0.00    +0.000 A 
BRANCH  12  15
ATOM     15  C   UNL     1      -0.323  13.465  19.878  0.00  0.00    +0.000 C 
ATOM     16  C   UNL     1      -0.164  14.891  19.347  0.00  0.00    +0.000 C 
ATOM     17  C   UNL     1      -1.773  12.996  19.727  0.00  0.00    +0.000 C 
ENDBRANCH  12  15
ENDBRANCH   1  14
BRANCH   3  18
ATOM     18  C   UNL     1       3.154   5.342  18.560  0.00  0.00    +0.000 A 
ATOM     19  C   UNL     1       2.404   4.196  18.623  0.00  0.00    +0.000 A 
ATOM     20  C   UNL     1       3.300   3.157  18.382  0.00  0.00    +0.000 A 
ATOM     21  N   UNL     1       4.521   3.555  18.066  0.00  0.00    +0.000 NA
ATOM     22  N   UNL     1       4.462   4.906  18.267  0.00  0.00    +0.000 N 
ATOM     23  C   UNL     1       2.694   1.815  18.405  0.00  0.00    +0.000 C 
ATOM     24  C   UNL     1       1.177   2.144  18.593  0.00  0.00    +0.000 C 
ATOM     25  C   UNL     1       1.020   3.703  18.728  0.00  0.00    +0.000 C 
BRANCH  22  26
ATOM     26  C   UNL     1       5.638   5.696  18.199  0.00  0.00    +0.000 A 
ATOM     27  C   UNL     1       6.686   5.449  19.092  0.00  0.00    +0.000 A 
ATOM     28  C   UNL     1       7.853   6.207  19.026  0.00  0.00    +0.000 A 
ATOM     29  C   UNL     1       7.963   7.237  18.092  0.00  0.00    +0.000 A 
ATOM     30  C   UNL     1       6.906   7.512  17.226  0.00  0.00    +0.000 A 
ATOM     31  C   UNL     1       5.747   6.742  17.271  0.00  0.00    +0.000 A 
ENDBRANCH  22  26
ENDBRANCH   3  18
TORSDOF 4
ENDMDL
