MODEL 1
REMARK VINA RESULT:      -8.6      0.000      0.000
REMARK  Name = 
REMARK  7 active torsions:
REMARK  status: ('A' for Active; 'I' for Inactive)
REMARK    1  A    between atoms: C_1  and  C_2
REMARK    2  A    between atoms: C_2  and  C_3
REMARK    3  A    between atoms: C_2  and  C_25
REMARK    4  A    between atoms: C_3  and  N_4
REMARK    5  A    between atoms: N_4  and  C_5
REMARK    6  A    between atoms: C_9  and  C_10
REMARK    7  A    between atoms: N_16  and  C_17
REMARK                            x       y       z     vdW  Elec       q    Type
REMARK                         _______ _______ _______ _____ _____    ______ ____
ROOT
ATOM      1  C   UNL     1       3.806   5.202  17.789  0.00  0.00    +0.000 A 
ATOM      2  C   UNL     1       3.379   6.523  17.897  0.00  0.00    +0.000 A 
ATOM      3  C   UNL     1       2.602   6.874  18.978  0.00  0.00    +0.000 A 
ATOM      4  C   UNL     1       2.195   5.980  19.955  0.00  0.00    +0.000 A 
ATOM      5  C   UNL     1       2.563   4.645  19.865  0.00  0.00    +0.000 A 
ATOM      6  C   UNL     1       3.376   4.274  18.767  0.00  0.00    +0.000 A 
ATOM      7  C   UNL     1       1.365   6.710  20.961  0.00  0.00    +0.000 C 
ATOM      8  N   UNL     1       1.323   8.073  20.445  0.00  0.00    +0.000 N 
ATOM      9  C   UNL     1       2.055   8.195  19.267  0.00  0.00    +0.000 C 
ATOM     10  O   UNL     1       2.269   9.146  18.538  0.00  0.00    +0.000 OA
ENDROOT
BRANCH   8  11
ATOM     11  C   UNL     1       0.559   9.094  21.057  0.00  0.00    +0.000 A 
ATOM     12  C   UNL     1      -0.075  10.088  20.296  0.00  0.00    +0.000 A 
ATOM     13  C   UNL     1      -0.866  11.065  20.897  0.00  0.00    +0.000 A 
ATOM     14  C   UNL     1      -1.027  11.080  22.279  0.00  0.00    +0.000 A 
ATOM     15  C   UNL     1      -0.393  10.116  23.053  0.00  0.00    +0.000 A 
ATOM     16  C   UNL     1       0.393   9.131  22.449  0.00  0.00    +0.000 A 
ENDBRANCH   8  11
BRANCH   5  17
ATOM     17  C   UNL     1       2.110   3.610  20.859  0.00  0.00    +0.000 C 
ATOM     18  F   UNL     1       0.758   3.440  20.887  0.00  0.00    +0.000 F 
ATOM     19  F   UNL     1       2.631   2.380  20.605  0.00  0.00    +0.000 F 
ATOM     20  F   UNL     1       2.469   3.918  22.134  0.00  0.00    +0.000 F 
ENDBRANCH   5  17
BRANCH   1  21
ATOM     21  N   UNL     1       4.564   4.736  16.702  0.00  0.00    +0.000 N 
ATOM     22  H   UNL     1       5.078   3.900  16.974  0.00  0.00    +0.000 HD
BRANCH  21  23
ATOM     23  C   UNL     1       5.360   5.726  15.962  0.00  0.00    +0.000 C 
BRANCH  23  25
ATOM     24  C   UNL     1       7.261   4.421  17.006  0.00  0.00    +0.000 C 
ATOM     25  C   UNL     1       6.818   5.755  16.405  0.00  0.00    +0.000 C 
BRANCH  25  26
ATOM     26  C   UNL     1       7.004   6.899  17.405  0.00  0.00    +0.000 C 
ATOM     27  F   UNL     1       7.104   6.454  18.676  0.00  0.00    +0.000 F 
ATOM     28  F   UNL     1       8.137   7.585  17.132  0.00  0.00    +0.000 F 
ATOM     29  F   UNL     1       5.986   7.784  17.380  0.00  0.00    +0.000 F 
ENDBRANCH  25  26
ENDBRANCH  23  25
ENDBRANCH  21  23
ENDBRANCH   1  21
TORSDOF 6
ENDMDL
MODEL 2
REMARK VINA RESULT:      -8.5      1.401      1.678
REMARK  Name = 
REMARK  7 active torsions:
REMARK  status: ('A' for Active; 'I' for Inactive)
REMARK    1  A    between atoms: C_1  and  C_2
REMARK    2  A    between atoms: C_2  and  C_3
REMARK    3  A    between atoms: C_2  and  C_25
REMARK    4  A    between atoms: C_3  and  N_4
REMARK    5  A    between atoms: N_4  and  C_5
REMARK    6  A    between atoms: C_9  and  C_10
REMARK    7  A    between atoms: N_16  and  C_17
REMARK                            x       y       z     vdW  Elec       q    Type
REMARK                         _______ _______ _______ _____ _____    ______ ____
ROOT
ATOM      1  C   UNL     1       4.111   5.886  17.433  0.00  0.00    +0.000 A 
ATOM      2  C   UNL     1       3.632   7.190  17.348  0.00  0.00    +0.000 A 
ATOM      3  C   UNL     1       2.749   7.628  18.309  0.00  0.00    +0.000 A 
ATOM      4  C   UNL     1       2.286   6.835  19.346  0.00  0.00    +0.000 A 
ATOM      5  C   UNL     1       2.705   5.516  19.446  0.00  0.00    +0.000 A 
ATOM      6  C   UNL     1       3.626   5.057  18.473  0.00  0.00    +0.000 A 
ATOM      7  C   UNL     1       1.344   7.638  20.184  0.00  0.00    +0.000 C 
ATOM      8  N   UNL     1       1.303   8.930  19.509  0.00  0.00    +0.000 N 
ATOM      9  C   UNL     1       2.134   8.948  18.392  0.00  0.00    +0.000 C 
ATOM     10  O   UNL     1       2.382   9.818  17.577  0.00  0.00    +0.000 OA
ENDROOT
BRANCH   8  11
ATOM     11  C   UNL     1       0.453   9.980  19.929  0.00  0.00    +0.000 A 
ATOM     12  C   UNL     1      -0.640  10.389  19.150  0.00  0.00    +0.000 A 
ATOM     13  C   UNL     1      -1.504  11.392  19.587  0.00  0.00    +0.000 A 
ATOM     14  C   UNL     1      -1.284  12.020  20.809  0.00  0.00    +0.000 A 
ATOM     15  C   UNL     1      -0.196  11.642  21.587  0.00  0.00    +0.000 A 
ATOM     16  C   UNL     1       0.665  10.630  21.152  0.00  0.00    +0.000 A 
ENDBRANCH   8  11
BRANCH   5  17
ATOM     17  C   UNL     1       2.199   4.582  20.513  0.00  0.00    +0.000 C 
ATOM     18  F   UNL     1       0.844   4.430  20.502  0.00  0.00    +0.000 F 
ATOM     19  F   UNL     1       2.712   3.328  20.394  0.00  0.00    +0.000 F 
ATOM     20  F   UNL     1       2.512   5.003  21.767  0.00  0.00    +0.000 F 
ENDBRANCH   5  17
BRANCH   1  21
ATOM     21  N   UNL     1       4.980   5.331  16.478  0.00  0.00    +0.000 N 
ATOM     22  H   UNL     1       4.906   4.316  16.494  0.00  0.00    +0.000 HD
BRANCH  21  23
ATOM     23  C   UNL     1       6.358   5.842  16.445  0.00  0.00    +0.000 C 
BRANCH  23  25
ATOM     24  C   UNL     1       7.637   7.778  17.455  0.00  0.00    +0.000 C 
ATOM     25  C   UNL     1       6.745   6.567  17.729  0.00  0.00    +0.000 C 
BRANCH  25  26
ATOM     26  C   UNL     1       7.438   5.573  18.664  0.00  0.00    +0.000 C 
ATOM     27  F   UNL     1       6.619   5.138  19.645  0.00  0.00    +0.000 F 
ATOM     28  F   UNL     1       7.849   4.484  17.975  0.00  0.00    +0.000 F 
ATOM     29  F   UNL     1       8.526   6.097  19.267  0.00  0.00    +0.000 F 
ENDBRANCH  25  26
ENDBRANCH  23  25
ENDBRANCH  21  23
ENDBRANCH   1  21
TORSDOF 6
ENDMDL
MODEL 3
REMARK VINA RESULT:      -8.5      0.932      1.330
REMARK  Name = 
REMARK  7 active torsions:
REMARK  status: ('A' for Active; 'I' for Inactive)
REMARK    1  A    between atoms: C_1  and  C_2
REMARK    2  A    between atoms: C_2  and  C_3
REMARK    3  A    between atoms: C_2  and  C_25
REMARK    4  A    between atoms: C_3  and  N_4
REMARK    5  A    between atoms: N_4  and  C_5
REMARK    6  A    between atoms: C_9  and  C_10
REMARK    7  A    between atoms: N_16  and  C_17
REMARK                            x       y       z     vdW  Elec       q    Type
REMARK                         _______ _______ _______ _____ _____    ______ ____
ROOT
ATOM      1  C   UNL     1       3.451   4.621  17.643  0.00  0.00    +0.000 A 
ATOM      2  C   UNL     1       3.149   5.979  17.698  0.00  0.00    +0.000 A 
ATOM      3  C   UNL     1       2.523   6.465  18.824  0.00  0.00    +0.000 A 
ATOM      4  C   UNL     1       2.152   5.675  19.899  0.00  0.00    +0.000 A 
ATOM      5  C   UNL     1       2.396   4.310  19.869  0.00  0.00    +0.000 A 
ATOM      6  C   UNL     1       3.054   3.798  18.724  0.00  0.00    +0.000 A 
ATOM      7  C   UNL     1       1.497   6.538  20.929  0.00  0.00    +0.000 C 
ATOM      8  N   UNL     1       1.513   7.865  20.322  0.00  0.00    +0.000 N 
ATOM      9  C   UNL     1       2.121   7.846  19.070  0.00  0.00    +0.000 C 
ATOM     10  O   UNL     1       2.333   8.725  18.256  0.00  0.00    +0.000 OA
ENDROOT
BRANCH   8  11
ATOM     11  C   UNL     1       0.905   8.987  20.933  0.00  0.00    +0.000 A 
ATOM     12  C   UNL     1       0.695  10.179  20.225  0.00  0.00    +0.000 A 
ATOM     13  C   UNL     1       0.055  11.267  20.814  0.00  0.00    +0.000 A 
ATOM     14  C   UNL     1      -0.378  11.192  22.135  0.00  0.00    +0.000 A 
ATOM     15  C   UNL     1      -0.163  10.026  22.860  0.00  0.00    +0.000 A 
ATOM     16  C   UNL     1       0.472   8.932  22.265  0.00  0.00    +0.000 A 
ENDBRANCH   8  11
BRANCH   5  17
ATOM     17  C   UNL     1       1.969   3.384  20.976  0.00  0.00    +0.000 C 
ATOM     18  F   UNL     1       2.452   2.117  20.840  0.00  0.00    +0.000 F 
ATOM     19  F   UNL     1       2.385   3.807  22.200  0.00  0.00    +0.000 F 
ATOM     20  F   UNL     1       0.618   3.257  21.059  0.00  0.00    +0.000 F 
ENDBRANCH   5  17
BRANCH   1  21
ATOM     21  N   UNL     1       4.047   4.020  16.521  0.00  0.00    +0.000 N 
ATOM     22  H   UNL     1       3.486   3.228  16.215  0.00  0.00    +0.000 HD
BRANCH  21  23
ATOM     23  C   UNL     1       5.492   3.753  16.588  0.00  0.00    +0.000 C 
BRANCH  23  25
ATOM     24  C   UNL     1       7.144   4.945  15.086  0.00  0.00    +0.000 C 
ATOM     25  C   UNL     1       6.330   5.009  16.379  0.00  0.00    +0.000 C 
BRANCH  25  26
ATOM     26  C   UNL     1       7.241   5.199  17.594  0.00  0.00    +0.000 C 
ATOM     27  F   UNL     1       8.193   4.245  17.673  0.00  0.00    +0.000 F 
ATOM     28  F   UNL     1       7.876   6.392  17.526  0.00  0.00    +0.000 F 
ATOM     29  F   UNL     1       6.565   5.174  18.761  0.00  0.00    +0.000 F 
ENDBRANCH  25  26
ENDBRANCH  23  25
ENDBRANCH  21  23
ENDBRANCH   1  21
TORSDOF 6
ENDMDL
MODEL 4
REMARK VINA RESULT:      -8.5      1.385      2.012
REMARK  Name = 
REMARK  7 active torsions:
REMARK  status: ('A' for Active; 'I' for Inactive)
REMARK    1  A    between atoms: C_1  and  C_2
REMARK    2  A    between atoms: C_2  and  C_3
REMARK    3  A    between atoms: C_2  and  C_25
REMARK    4  A    between atoms: C_3  and  N_4
REMARK    5  A    between atoms: N_4  and  C_5
REMARK    6  A    between atoms: C_9  and  C_10
REMARK    7  A    between atoms: N_16  and  C_17
REMARK                            x       y       z     vdW  Elec       q    Type
REMARK                         _______ _______ _______ _____ _____    ______ ____
ROOT
ATOM      1  C   UNL     1       4.195   5.938  17.343  0.00  0.00    +0.000 A 
ATOM      2  C   UNL     1       3.681   7.231  17.285  0.00  0.00    +0.000 A 
ATOM      3  C   UNL     1       2.799   7.629  18.264  0.00  0.00    +0.000 A 
ATOM      4  C   UNL     1       2.371   6.808  19.294  0.00  0.00    +0.000 A 
ATOM      5  C   UNL     1       2.825   5.499  19.367  0.00  0.00    +0.000 A 
ATOM      6  C   UNL     1       3.746   5.080  18.376  0.00  0.00    +0.000 A 
ATOM      7  C   UNL     1       1.419   7.572  20.157  0.00  0.00    +0.000 C 
ATOM      8  N   UNL     1       1.336   8.873  19.503  0.00  0.00    +0.000 N 
ATOM      9  C   UNL     1       2.151   8.931  18.377  0.00  0.00    +0.000 C 
ATOM     10  O   UNL     1       2.365   9.820  17.573  0.00  0.00    +0.000 OA
ENDROOT
BRANCH   8  11
ATOM     11  C   UNL     1       0.463   9.893  19.951  0.00  0.00    +0.000 A 
ATOM     12  C   UNL     1       0.651  10.521  21.192  0.00  0.00    +0.000 A 
ATOM     13  C   UNL     1      -0.181  11.558  21.610  0.00  0.00    +0.000 A 
ATOM     14  C   UNL     1      -1.232  11.980  20.801  0.00  0.00    +0.000 A 
ATOM     15  C   UNL     1      -1.446  11.358  19.577  0.00  0.00    +0.000 A 
ATOM     16  C   UNL     1      -0.606  10.325  19.154  0.00  0.00    +0.000 A 
ENDBRANCH   8  11
BRANCH   5  17
ATOM     17  C   UNL     1       2.358   4.535  20.425  0.00  0.00    +0.000 C 
ATOM     18  F   UNL     1       3.004   3.336  20.389  0.00  0.00    +0.000 F 
ATOM     19  F   UNL     1       2.539   5.015  21.685  0.00  0.00    +0.000 F 
ATOM     20  F   UNL     1       1.034   4.244  20.317  0.00  0.00    +0.000 F 
ENDBRANCH   5  17
BRANCH   1  21
ATOM     21  N   UNL     1       5.065   5.422  16.368  0.00  0.00    +0.000 N 
ATOM     22  H   UNL     1       4.890   4.427  16.242  0.00  0.00    +0.000 HD
BRANCH  21  23
ATOM     23  C   UNL     1       6.487   5.781  16.477  0.00  0.00    +0.000 C 
BRANCH  23  25
ATOM     24  C   UNL     1       7.627   7.829  17.433  0.00  0.00    +0.000 C 
ATOM     25  C   UNL     1       6.794   6.583  17.737  0.00  0.00    +0.000 C 
BRANCH  25  26
ATOM     26  C   UNL     1       7.511   5.672  18.736  0.00  0.00    +0.000 C 
ATOM     27  F   UNL     1       6.700   5.280  19.741  0.00  0.00    +0.000 F 
ATOM     28  F   UNL     1       7.954   4.552  18.120  0.00  0.00    +0.000 F 
ATOM     29  F   UNL     1       8.581   6.264  19.306  0.00  0.00    +0.000 F 
ENDBRANCH  25  26
ENDBRANCH  23  25
ENDBRANCH  21  23
ENDBRANCH   1  21
TORSDOF 6
ENDMDL
MODEL 5
REMARK VINA RESULT:      -8.5      0.912      1.720
REMARK  Name = 
REMARK  7 active torsions:
REMARK  status: ('A' for Active; 'I' for Inactive)
REMARK    1  A    between atoms: C_1  and  C_2
REMARK    2  A    between atoms: C_2  and  C_3
REMARK    3  A    between atoms: C_2  and  C_25
REMARK    4  A    between atoms: C_3  and  N_4
REMARK    5  A    between atoms: N_4  and  C_5
REMARK    6  A    between atoms: C_9  and  C_10
REMARK    7  A    between atoms: N_16  and  C_17
REMARK                            x       y       z     vdW  Elec       q    Type
REMARK                         _______ _______ _______ _____ _____    ______ ____
ROOT
ATOM      1  C   UNL     1       3.486   4.758  17.682  0.00  0.00    +0.000 A 
ATOM      2  C   UNL     1       3.144   6.106  17.749  0.00  0.00    +0.000 A 
ATOM      3  C   UNL     1       2.502   6.564  18.878  0.00  0.00    +0.000 A 
ATOM      4  C   UNL     1       2.152   5.753  19.945  0.00  0.00    +0.000 A 
ATOM      5  C   UNL     1       2.435   4.396  19.903  0.00  0.00    +0.000 A 
ATOM      6  C   UNL     1       3.110   3.914  18.754  0.00  0.00    +0.000 A 
ATOM      7  C   UNL     1       1.470   6.588  20.981  0.00  0.00    +0.000 C 
ATOM      8  N   UNL     1       1.449   7.919  20.387  0.00  0.00    +0.000 N 
ATOM      9  C   UNL     1       2.061   7.930  19.137  0.00  0.00    +0.000 C 
ATOM     10  O   UNL     1       2.250   8.823  18.331  0.00  0.00    +0.000 OA
ENDROOT
BRANCH   8  11
ATOM     11  C   UNL     1       0.809   9.018  21.007  0.00  0.00    +0.000 A 
ATOM     12  C   UNL     1       0.208   8.895  22.270  0.00  0.00    +0.000 A 
ATOM     13  C   UNL     1      -0.381   9.989  22.899  0.00  0.00    +0.000 A 
ATOM     14  C   UNL     1      -0.397  11.231  22.272  0.00  0.00    +0.000 A 
ATOM     15  C   UNL     1       0.176  11.370  21.013  0.00  0.00    +0.000 A 
ATOM     16  C   UNL     1       0.774  10.274  20.386  0.00  0.00    +0.000 A 
ENDBRANCH   8  11
BRANCH   5  17
ATOM     17  C   UNL     1       2.032   3.448  21.000  0.00  0.00    +0.000 C 
ATOM     18  F   UNL     1       2.524   2.187  20.836  0.00  0.00    +0.000 F 
ATOM     19  F   UNL     1       2.462   3.854  22.225  0.00  0.00    +0.000 F 
ATOM     20  F   UNL     1       0.683   3.307  21.100  0.00  0.00    +0.000 F 
ENDBRANCH   5  17
BRANCH   1  21
ATOM     21  N   UNL     1       4.101   4.185  16.556  0.00  0.00    +0.000 N 
ATOM     22  H   UNL     1       3.512   3.445  16.181  0.00  0.00    +0.000 HD
BRANCH  21  23
ATOM     23  C   UNL     1       5.523   3.831  16.674  0.00  0.00    +0.000 C 
BRANCH  23  25
ATOM     24  C   UNL     1       7.288   4.974  15.264  0.00  0.00    +0.000 C 
ATOM     25  C   UNL     1       6.441   5.040  16.535  0.00  0.00    +0.000 C 
BRANCH  25  26
ATOM     26  C   UNL     1       7.326   5.129  17.782  0.00  0.00    +0.000 C 
ATOM     27  F   UNL     1       7.951   6.322  17.879  0.00  0.00    +0.000 F 
ATOM     28  F   UNL     1       6.581   4.976  18.900  0.00  0.00    +0.000 F 
ATOM     29  F   UNL     1       8.285   4.181  17.808  0.00  0.00    +0.000 F 
ENDBRANCH  25  26
ENDBRANCH  23  25
ENDBRANCH  21  23
ENDBRANCH   1  21
TORSDOF 6
ENDMDL
MODEL 6
REMARK VINA RESULT:      -8.4      1.090      1.501
REMARK  Name = 
REMARK  7 active torsions:
REMARK  status: ('A' for Active; 'I' for Inactive)
REMARK    1  A    between atoms: C_1  and  C_2
REMARK    2  A    between atoms: C_2  and  C_3
REMARK    3  A    between atoms: C_2  and  C_25
REMARK    4  A    between atoms: C_3  and  N_4
REMARK    5  A    between atoms: N_4  and  C_5
REMARK    6  A    between atoms: C_9  and  C_10
REMARK    7  A    between atoms: N_16  and  C_17
REMARK                            x       y       z     vdW  Elec       q    Type
REMARK                         _______ _______ _______ _____ _____    ______ ____
ROOT
ATOM      1  C   UNL     1       3.819   6.018  17.608  0.00  0.00    +0.000 A 
ATOM      2  C   UNL     1       3.309   7.303  17.773  0.00  0.00    +0.000 A 
ATOM      3  C   UNL     1       2.518   7.558  18.870  0.00  0.00    +0.000 A 
ATOM      4  C   UNL     1       2.177   6.601  19.812  0.00  0.00    +0.000 A 
ATOM      5  C   UNL     1       2.628   5.297  19.665  0.00  0.00    +0.000 A 
ATOM      6  C   UNL     1       3.456   5.024  18.549  0.00  0.00    +0.000 A 
ATOM      7  C   UNL     1       1.308   7.234  20.851  0.00  0.00    +0.000 C 
ATOM      8  N   UNL     1       1.176   8.612  20.391  0.00  0.00    +0.000 N 
ATOM      9  C   UNL     1       1.890   8.829  19.216  0.00  0.00    +0.000 C 
ATOM     10  O   UNL     1       2.038   9.820  18.526  0.00  0.00    +0.000 OA
ENDROOT
BRANCH   8  11
ATOM     11  C   UNL     1       0.352   9.556  21.049  0.00  0.00    +0.000 A 
ATOM     12  C   UNL     1      -0.272  10.596  20.344  0.00  0.00    +0.000 A 
ATOM     13  C   UNL     1      -1.120  11.496  20.985  0.00  0.00    +0.000 A 
ATOM     14  C   UNL     1      -1.351  11.386  22.353  0.00  0.00    +0.000 A 
ATOM     15  C   UNL     1      -0.727  10.374  23.073  0.00  0.00    +0.000 A 
ATOM     16  C   UNL     1       0.116   9.466  22.428  0.00  0.00    +0.000 A 
ENDBRANCH   8  11
BRANCH   5  17
ATOM     17  C   UNL     1       2.249   4.195  20.617  0.00  0.00    +0.000 C 
ATOM     18  F   UNL     1       2.559   4.470  21.916  0.00  0.00    +0.000 F 
ATOM     19  F   UNL     1       0.916   3.930  20.604  0.00  0.00    +0.000 F 
ATOM     20  F   UNL     1       2.872   3.020  20.330  0.00  0.00    +0.000 F 
ENDBRANCH   5  17
BRANCH   1  21
ATOM     21  N   UNL     1       4.597   5.646  16.499  0.00  0.00    +0.000 N 
ATOM     22  H   UNL     1       4.155   4.870  16.012  0.00  0.00    +0.000 HD
BRANCH  21  23
ATOM     23  C   UNL     1       6.043   5.484  16.715  0.00  0.00    +0.000 C 
BRANCH  23  25
ATOM     24  C   UNL     1       7.435   7.557  17.131  0.00  0.00    +0.000 C 
ATOM     25  C   UNL     1       6.590   6.449  17.761  0.00  0.00    +0.000 C 
BRANCH  25  26
ATOM     26  C   UNL     1       7.402   5.653  18.786  0.00  0.00    +0.000 C 
ATOM     27  F   UNL     1       7.993   4.570  18.239  0.00  0.00    +0.000 F 
ATOM     28  F   UNL     1       8.384   6.422  19.309  0.00  0.00    +0.000 F 
ATOM     29  F   UNL     1       6.651   5.211  19.815  0.00  0.00    +0.000 F 
ENDBRANCH  25  26
ENDBRANCH  23  25
ENDBRANCH  21  23
ENDBRANCH   1  21
TORSDOF 6
ENDMDL
MODEL 7
REMARK VINA RESULT:      -8.4      1.088      1.516
REMARK  Name = 
REMARK  7 active torsions:
REMARK  status: ('A' for Active; 'I' for Inactive)
REMARK    1  A    between atoms: C_1  and  C_2
REMARK    2  A    between atoms: C_2  and  C_3
REMARK    3  A    between atoms: C_2  and  C_25
REMARK    4  A    between atoms: C_3  and  N_4
REMARK    5  A    between atoms: N_4  and  C_5
REMARK    6  A    between atoms: C_9  and  C_10
REMARK    7  A    between atoms: N_16  and  C_17
REMARK                            x       y       z     vdW  Elec       q    Type
REMARK                         _______ _______ _______ _____ _____    ______ ____
ROOT
ATOM      1  C   UNL     1       3.686   6.288  17.633  0.00  0.00    +0.000 A 
ATOM      2  C   UNL     1       3.167   7.567  17.816  0.00  0.00    +0.000 A 
ATOM      3  C   UNL     1       2.370   7.798  18.915  0.00  0.00    +0.000 A 
ATOM      4  C   UNL     1       2.031   6.823  19.838  0.00  0.00    +0.000 A 
ATOM      5  C   UNL     1       2.491   5.525  19.672  0.00  0.00    +0.000 A 
ATOM      6  C   UNL     1       3.326   5.276  18.555  0.00  0.00    +0.000 A 
ATOM      7  C   UNL     1       1.154   7.433  20.884  0.00  0.00    +0.000 C 
ATOM      8  N   UNL     1       1.014   8.817  20.447  0.00  0.00    +0.000 N 
ATOM      9  C   UNL     1       1.732   9.059  19.279  0.00  0.00    +0.000 C 
ATOM     10  O   UNL     1       1.876  10.062  18.606  0.00  0.00    +0.000 OA
ENDROOT
BRANCH   8  11
ATOM     11  C   UNL     1       0.181   9.745  21.117  0.00  0.00    +0.000 A 
ATOM     12  C   UNL     1      -0.437  10.800  20.429  0.00  0.00    +0.000 A 
ATOM     13  C   UNL     1      -1.294  11.684  21.081  0.00  0.00    +0.000 A 
ATOM     14  C   UNL     1      -1.540  11.542  22.443  0.00  0.00    +0.000 A 
ATOM     15  C   UNL     1      -0.923  10.514  23.147  0.00  0.00    +0.000 A 
ATOM     16  C   UNL     1      -0.070   9.623  22.490  0.00  0.00    +0.000 A 
ENDBRANCH   8  11
BRANCH   5  17
ATOM     17  C   UNL     1       2.116   4.404  20.604  0.00  0.00    +0.000 C 
ATOM     18  F   UNL     1       2.670   3.207  20.263  0.00  0.00    +0.000 F 
ATOM     19  F   UNL     1       2.505   4.639  21.885  0.00  0.00    +0.000 F 
ATOM     20  F   UNL     1       0.774   4.190  20.649  0.00  0.00    +0.000 F 
ENDBRANCH   5  17
BRANCH   1  21
ATOM     21  N   UNL     1       4.472   5.939  16.521  0.00  0.00    +0.000 N 
ATOM     22  H   UNL     1       4.358   4.949  16.316  0.00  0.00    +0.000 HD
BRANCH  21  23
ATOM     23  C   UNL     1       5.865   6.409  16.508  0.00  0.00    +0.000 C 
BRANCH  23  25
ATOM     24  C   UNL     1       6.274   4.046  15.696  0.00  0.00    +0.000 C 
ATOM     25  C   UNL     1       6.867   5.264  16.404  0.00  0.00    +0.000 C 
BRANCH  25  26
ATOM     26  C   UNL     1       7.347   4.903  17.812  0.00  0.00    +0.000 C 
ATOM     27  F   UNL     1       6.398   4.262  18.526  0.00  0.00    +0.000 F 
ATOM     28  F   UNL     1       8.421   4.083  17.748  0.00  0.00    +0.000 F 
ATOM     29  F   UNL     1       7.714   5.984  18.531  0.00  0.00    +0.000 F 
ENDBRANCH  25  26
ENDBRANCH  23  25
ENDBRANCH  21  23
ENDBRANCH   1  21
TORSDOF 6
ENDMDL
MODEL 8
REMARK VINA RESULT:      -8.4      0.793      1.460
REMARK  Name = 
REMARK  7 active torsions:
REMARK  status: ('A' for Active; 'I' for Inactive)
REMARK    1  A    between atoms: C_1  and  C_2
REMARK    2  A    between atoms: C_2  and  C_3
REMARK    3  A    between atoms: C_2  and  C_25
REMARK    4  A    between atoms: C_3  and  N_4
REMARK    5  A    between atoms: N_4  and  C_5
REMARK    6  A    between atoms: C_9  and  C_10
REMARK    7  A    between atoms: N_16  and  C_17
REMARK                            x       y       z     vdW  Elec       q    Type
REMARK                         _______ _______ _______ _____ _____    ______ ____
ROOT
ATOM      1  C   UNL     1       3.538   4.648  17.690  0.00  0.00    +0.000 A 
ATOM      2  C   UNL     1       3.206   6.000  17.731  0.00  0.00    +0.000 A 
ATOM      3  C   UNL     1       2.546   6.479  18.840  0.00  0.00    +0.000 A 
ATOM      4  C   UNL     1       2.168   5.687  19.912  0.00  0.00    +0.000 A 
ATOM      5  C   UNL     1       2.441   4.327  19.895  0.00  0.00    +0.000 A 
ATOM      6  C   UNL     1       3.134   3.823  18.767  0.00  0.00    +0.000 A 
ATOM      7  C   UNL     1       1.473   6.542  20.922  0.00  0.00    +0.000 C 
ATOM      8  N   UNL     1       1.475   7.865  20.308  0.00  0.00    +0.000 N 
ATOM      9  C   UNL     1       2.111   7.852  19.070  0.00  0.00    +0.000 C 
ATOM     10  O   UNL     1       2.323   8.731  18.255  0.00  0.00    +0.000 OA
ENDROOT
BRANCH   8  11
ATOM     11  C   UNL     1       0.831   8.978  20.900  0.00  0.00    +0.000 A 
ATOM     12  C   UNL     1       0.438   8.962  22.246  0.00  0.00    +0.000 A 
ATOM     13  C   UNL     1      -0.154  10.076  22.840  0.00  0.00    +0.000 A 
ATOM     14  C   UNL     1      -0.380  11.228  22.092  0.00  0.00    +0.000 A 
ATOM     15  C   UNL     1      -0.015  11.256  20.752  0.00  0.00    +0.000 A 
ATOM     16  C   UNL     1       0.586  10.143  20.159  0.00  0.00    +0.000 A 
ENDBRANCH   8  11
BRANCH   5  17
ATOM     17  C   UNL     1       2.009   3.398  20.998  0.00  0.00    +0.000 C 
ATOM     18  F   UNL     1       2.388   3.817  22.238  0.00  0.00    +0.000 F 
ATOM     19  F   UNL     1       0.658   3.250  21.056  0.00  0.00    +0.000 F 
ATOM     20  F   UNL     1       2.522   2.147  20.858  0.00  0.00    +0.000 F 
ENDBRANCH   5  17
BRANCH   1  21
ATOM     21  N   UNL     1       4.171   4.054  16.585  0.00  0.00    +0.000 N 
ATOM     22  H   UNL     1       3.695   3.188  16.340  0.00  0.00    +0.000 HD
BRANCH  21  23
ATOM     23  C   UNL     1       5.637   3.953  16.623  0.00  0.00    +0.000 C 
BRANCH  23  25
ATOM     24  C   UNL     1       7.207   5.005  14.939  0.00  0.00    +0.000 C 
ATOM     25  C   UNL     1       6.324   5.235  16.166  0.00  0.00    +0.000 C 
BRANCH  25  26
ATOM     26  C   UNL     1       7.139   5.798  17.333  0.00  0.00    +0.000 C 
ATOM     27  F   UNL     1       8.055   4.917  17.787  0.00  0.00    +0.000 F 
ATOM     28  F   UNL     1       7.809   6.908  16.948  0.00  0.00    +0.000 F 
ATOM     29  F   UNL     1       6.370   6.142  18.387  0.00  0.00    +0.000 F 
ENDBRANCH  25  26
ENDBRANCH  23  25
ENDBRANCH  21  23
ENDBRANCH   1  21
TORSDOF 6
ENDMDL
MODEL 9
REMARK VINA RESULT:      -8.4      1.488      1.715
REMARK  Name = 
REMARK  7 active torsions:
REMARK  status: ('A' for Active; 'I' for Inactive)
REMARK    1  A    between atoms: C_1  and  C_2
REMARK    2  A    between atoms: C_2  and  C_3
REMARK    3  A    between atoms: C_2  and  C_25
REMARK    4  A    between atoms: C_3  and  N_4
REMARK    5  A    between atoms: N_4  and  C_5
REMARK    6  A    between atoms: C_9  and  C_10
REMARK    7  A    between atoms: N_16  and  C_17
REMARK                            x       y       z     vdW  Elec       q    Type
REMARK                         _______ _______ _______ _____ _____    ______ ____
ROOT
ATOM      1  C   UNL     1       3.788   4.945  17.785  0.00  0.00    +0.000 A 
ATOM      2  C   UNL     1       3.400   6.281  17.849  0.00  0.00    +0.000 A 
ATOM      3  C   UNL     1       2.635   6.689  18.919  0.00  0.00    +0.000 A 
ATOM      4  C   UNL     1       2.206   5.840  19.926  0.00  0.00    +0.000 A 
ATOM      5  C   UNL     1       2.534   4.493  19.880  0.00  0.00    +0.000 A 
ATOM      6  C   UNL     1       3.335   4.062  18.793  0.00  0.00    +0.000 A 
ATOM      7  C   UNL     1       1.399   6.626  20.909  0.00  0.00    +0.000 C 
ATOM      8  N   UNL     1       1.396   7.973  20.348  0.00  0.00    +0.000 N 
ATOM      9  C   UNL     1       2.128   8.035  19.165  0.00  0.00    +0.000 C 
ATOM     10  O   UNL     1       2.368   8.954  18.404  0.00  0.00    +0.000 OA
ENDROOT
BRANCH   8  11
ATOM     11  C   UNL     1       0.663   9.035  20.927  0.00  0.00    +0.000 A 
ATOM     12  C   UNL     1       0.061  10.024  20.134  0.00  0.00    +0.000 A 
ATOM     13  C   UNL     1      -0.700  11.044  20.704  0.00  0.00    +0.000 A 
ATOM     14  C   UNL     1      -0.863  11.105  22.084  0.00  0.00    +0.000 A 
ATOM     15  C   UNL     1      -0.260  10.146  22.888  0.00  0.00    +0.000 A 
ATOM     16  C   UNL     1       0.496   9.119  22.316  0.00  0.00    +0.000 A 
ENDBRANCH   8  11
BRANCH   5  17
ATOM     17  C   UNL     1       2.054   3.505  20.908  0.00  0.00    +0.000 C 
ATOM     18  F   UNL     1       0.698   3.378  20.946  0.00  0.00    +0.000 F 
ATOM     19  F   UNL     1       2.536   2.251  20.692  0.00  0.00    +0.000 F 
ATOM     20  F   UNL     1       2.429   3.842  22.171  0.00  0.00    +0.000 F 
ENDBRANCH   5  17
BRANCH   1  21
ATOM     21  N   UNL     1       4.530   4.421  16.712  0.00  0.00    +0.000 N 
ATOM     22  H   UNL     1       3.955   3.771  16.181  0.00  0.00    +0.000 HD
BRANCH  21  23
ATOM     23  C   UNL     1       5.886   3.935  17.006  0.00  0.00    +0.000 C 
BRANCH  23  25
ATOM     24  C   UNL     1       7.081   6.165  16.897  0.00  0.00    +0.000 C 
ATOM     25  C   UNL     1       6.966   4.757  16.311  0.00  0.00    +0.000 C 
BRANCH  25  26
ATOM     26  C   UNL     1       6.655   4.809  14.813  0.00  0.00    +0.000 C 
ATOM     27  F   UNL     1       5.667   5.683  14.526  0.00  0.00    +0.000 F 
ATOM     28  F   UNL     1       7.748   5.200  14.118  0.00  0.00    +0.000 F 
ATOM     29  F   UNL     1       6.276   3.613  14.318  0.00  0.00    +0.000 F 
ENDBRANCH  25  26
ENDBRANCH  23  25
ENDBRANCH  21  23
ENDBRANCH   1  21
TORSDOF 6
ENDMDL
