MODEL 1
REMARK VINA RESULT:      -9.3      0.000      0.000
REMARK  Name = 
REMARK  7 active torsions:
REMARK  status: ('A' for Active; 'I' for Inactive)
REMARK    1  A    between atoms: C_1  and  C_2
REMARK    2  A    between atoms: N_4  and  C_5
REMARK    3  A    between atoms: C_5  and  C_6
REMARK    4  A    between atoms: C_6  and  N_7
REMARK    5  A    between atoms: C_8  and  C_10
REMARK    6  A    between atoms: N_12  and  C_13
REMARK    7  A    between atoms: C_28  and  C_29
REMARK                            x       y       z     vdW  Elec       q    Type
REMARK                         _______ _______ _______ _____ _____    ______ ____
ROOT
ATOM      1  C   UNL     1       6.334   5.356  17.944  0.00  0.00    +0.000 A 
ATOM      2  N   UNL     1       5.400   5.053  18.800  0.00  0.00    +0.000 NA
ATOM      3  N   UNL     1       4.364   4.217  18.403  0.00  0.00    +0.000 N 
ATOM      4  C   UNL     1       4.225   3.738  17.090  0.00  0.00    +0.000 A 
ATOM      5  O   UNL     1       3.324   3.022  16.654  0.00  0.00    +0.000 OA
ATOM      6  C   UNL     1       5.251   4.152  16.123  0.00  0.00    +0.000 A 
ATOM      7  C   UNL     1       5.102   3.818  14.767  0.00  0.00    +0.000 A 
ATOM      8  C   UNL     1       6.071   4.192  13.841  0.00  0.00    +0.000 A 
ATOM      9  C   UNL     1       7.218   4.845  14.277  0.00  0.00    +0.000 A 
ATOM     10  C   UNL     1       7.370   5.167  15.629  0.00  0.00    +0.000 A 
ATOM     11  C   UNL     1       6.353   4.875  16.548  0.00  0.00    +0.000 A 
ENDROOT
BRANCH   3  12
ATOM     12  C   UNL     1       3.388   3.942  19.426  0.00  0.00    +0.000 A 
ATOM     13  C   UNL     1       2.258   4.755  19.615  0.00  0.00    +0.000 A 
ATOM     14  C   UNL     1       1.338   4.507  20.642  0.00  0.00    +0.000 A 
ATOM     15  C   UNL     1       1.534   3.432  21.498  0.00  0.00    +0.000 A 
ATOM     16  C   UNL     1       2.632   2.601  21.321  0.00  0.00    +0.000 A 
ATOM     17  C   UNL     1       3.547   2.846  20.289  0.00  0.00    +0.000 A 
ENDBRANCH   3  12
BRANCH   1  19
ATOM     18  N   UNL     1       7.394   7.587  17.870  0.00  0.00    +0.000 N 
ATOM     19  C   UNL     1       7.426   6.319  18.415  0.00  0.00    +0.000 C 
ATOM     20  O   UNL     1       8.267   5.947  19.221  0.00  0.00    +0.000 OA
ATOM     21  H   UNL     1       6.886   7.697  16.997  0.00  0.00    +0.000 HD
BRANCH  18  22
ATOM     22  C   UNL     1       8.442   8.519  18.248  0.00  0.00    +0.000 C 
BRANCH  22  23
ATOM     23  C   UNL     1       8.153   9.978  17.865  0.00  0.00    +0.000 C 
BRANCH  23  27
ATOM     24  C   UNL     1      12.080  11.467  19.403  0.00  0.00    +0.000 C 
ATOM     25  C   UNL     1      10.729  11.863  20.000  0.00  0.00    +0.000 C 
ATOM     26  C   UNL     1       9.609  10.860  19.647  0.00  0.00    +0.000 C 
ATOM     27  N   UNL     1       9.249  10.907  18.210  0.00  0.00    +0.000 NA
ATOM     28  C   UNL     1       8.866  12.300  17.884  0.00  0.00    +0.000 C 
ATOM     29  C   UNL     1       9.989  13.300  18.245  0.00  0.00    +0.000 C 
ATOM     30  C   UNL     1       9.542  14.735  17.994  0.00  0.00    +0.000 C 
ATOM     31  O   UNL     1      10.357  13.199  19.630  0.00  0.00    +0.000 OA
ENDBRANCH  23  27
ENDBRANCH  22  23
ENDBRANCH  18  22
ENDBRANCH   1  19
TORSDOF 5
ENDMDL
MODEL 2
REMARK VINA RESULT:      -8.8      4.869      7.609
REMARK  Name = 
REMARK  7 active torsions:
REMARK  status: ('A' for Active; 'I' for Inactive)
REMARK    1  A    between atoms: C_1  and  C_2
REMARK    2  A    between atoms: N_4  and  C_5
REMARK    3  A    between atoms: C_5  and  C_6
REMARK    4  A    between atoms: C_6  and  N_7
REMARK    5  A    between atoms: C_8  and  C_10
REMARK    6  A    between atoms: N_12  and  C_13
REMARK    7  A    between atoms: C_28  and  C_29
REMARK                            x       y       z     vdW  Elec       q    Type
REMARK                         _______ _______ _______ _____ _____    ______ ____
ROOT
ATOM      1  C   UNL     1       2.856   5.937  18.402  0.00  0.00    +0.000 A 
ATOM      2  N   UNL     1       3.749   5.855  17.458  0.00  0.00    +0.000 NA
ATOM      3  N   UNL     1       4.213   4.603  17.073  0.00  0.00    +0.000 N 
ATOM      4  C   UNL     1       3.825   3.412  17.709  0.00  0.00    +0.000 A 
ATOM      5  O   UNL     1       4.212   2.273  17.449  0.00  0.00    +0.000 OA
ATOM      6  C   UNL     1       2.872   3.536  18.821  0.00  0.00    +0.000 A 
ATOM      7  C   UNL     1       2.543   2.403  19.583  0.00  0.00    +0.000 A 
ATOM      8  C   UNL     1       1.633   2.502  20.631  0.00  0.00    +0.000 A 
ATOM      9  C   UNL     1       1.004   3.717  20.879  0.00  0.00    +0.000 A 
ATOM     10  C   UNL     1       1.324   4.841  20.112  0.00  0.00    +0.000 A 
ATOM     11  C   UNL     1       2.309   4.766  19.118  0.00  0.00    +0.000 A 
ENDROOT
BRANCH   3  12
ATOM     12  C   UNL     1       5.194   4.623  16.019  0.00  0.00    +0.000 A 
ATOM     13  C   UNL     1       4.917   4.125  14.735  0.00  0.00    +0.000 A 
ATOM     14  C   UNL     1       5.892   4.105  13.728  0.00  0.00    +0.000 A 
ATOM     15  C   UNL     1       7.165   4.590  13.993  0.00  0.00    +0.000 A 
ATOM     16  C   UNL     1       7.460   5.106  15.248  0.00  0.00    +0.000 A 
ATOM     17  C   UNL     1       6.482   5.132  16.250  0.00  0.00    +0.000 A 
ENDBRANCH   3  12
BRANCH   1  19
ATOM     18  N   UNL     1       2.162   8.231  17.799  0.00  0.00    +0.000 N 
ATOM     19  C   UNL     1       2.413   7.340  18.823  0.00  0.00    +0.000 C 
ATOM     20  O   UNL     1       2.307   7.621  20.009  0.00  0.00    +0.000 OA
ATOM     21  H   UNL     1       2.581   8.019  16.897  0.00  0.00    +0.000 HD
BRANCH  18  22
ATOM     22  C   UNL     1       1.790   9.589  18.151  0.00  0.00    +0.000 C 
BRANCH  22  23
ATOM     23  C   UNL     1       0.274   9.824  18.234  0.00  0.00    +0.000 C 
BRANCH  23  27
ATOM     24  C   UNL     1      -0.871  13.497  20.514  0.00  0.00    +0.000 C 
ATOM     25  C   UNL     1       0.401  12.692  20.784  0.00  0.00    +0.000 C 
ATOM     26  C   UNL     1       0.813  11.815  19.581  0.00  0.00    +0.000 C 
ATOM     27  N   UNL     1      -0.128  10.692  19.359  0.00  0.00    +0.000 NA
ATOM     28  C   UNL     1      -0.203   9.909  20.614  0.00  0.00    +0.000 C 
ATOM     29  C   UNL     1      -0.610  10.793  21.815  0.00  0.00    +0.000 C 
ATOM     30  C   UNL     1      -0.587   9.993  23.112  0.00  0.00    +0.000 C 
ATOM     31  O   UNL     1       0.286  11.904  21.978  0.00  0.00    +0.000 OA
ENDBRANCH  23  27
ENDBRANCH  22  23
ENDBRANCH  18  22
ENDBRANCH   1  19
TORSDOF 5
ENDMDL
MODEL 3
REMARK VINA RESULT:      -8.5      0.707      1.626
REMARK  Name = 
REMARK  7 active torsions:
REMARK  status: ('A' for Active; 'I' for Inactive)
REMARK    1  A    between atoms: C_1  and  C_2
REMARK    2  A    between atoms: N_4  and  C_5
REMARK    3  A    between atoms: C_5  and  C_6
REMARK    4  A    between atoms: C_6  and  N_7
REMARK    5  A    between atoms: C_8  and  C_10
REMARK    6  A    between atoms: N_12  and  C_13
REMARK    7  A    between atoms: C_28  and  C_29
REMARK                            x       y       z     vdW  Elec       q    Type
REMARK                         _______ _______ _______ _____ _____    ______ ____
ROOT
ATOM      1  C   UNL     1       6.273   5.289  18.069  0.00  0.00    +0.000 A 
ATOM      2  N   UNL     1       5.338   4.981  18.921  0.00  0.00    +0.000 NA
ATOM      3  N   UNL     1       4.296   4.157  18.513  0.00  0.00    +0.000 N 
ATOM      4  C   UNL     1       4.154   3.696  17.193  0.00  0.00    +0.000 A 
ATOM      5  O   UNL     1       3.249   2.992  16.748  0.00  0.00    +0.000 OA
ATOM      6  C   UNL     1       5.183   4.117  16.232  0.00  0.00    +0.000 A 
ATOM      7  C   UNL     1       5.032   3.801  14.871  0.00  0.00    +0.000 A 
ATOM      8  C   UNL     1       6.004   4.182  13.950  0.00  0.00    +0.000 A 
ATOM      9  C   UNL     1       7.155   4.822  14.396  0.00  0.00    +0.000 A 
ATOM     10  C   UNL     1       7.309   5.125  15.751  0.00  0.00    +0.000 A 
ATOM     11  C   UNL     1       6.290   4.827  16.666  0.00  0.00    +0.000 A 
ENDROOT
BRANCH   3  12
ATOM     12  C   UNL     1       3.318   3.874  19.531  0.00  0.00    +0.000 A 
ATOM     13  C   UNL     1       3.528   2.890  20.513  0.00  0.00    +0.000 A 
ATOM     14  C   UNL     1       2.552   2.588  21.471  0.00  0.00    +0.000 A 
ATOM     15  C   UNL     1       1.345   3.274  21.465  0.00  0.00    +0.000 A 
ATOM     16  C   UNL     1       1.120   4.265  20.518  0.00  0.00    +0.000 A 
ATOM     17  C   UNL     1       2.100   4.570  19.565  0.00  0.00    +0.000 A 
ENDBRANCH   3  12
BRANCH   1  19
ATOM     18  N   UNL     1       7.334   7.521  18.043  0.00  0.00    +0.000 N 
ATOM     19  C   UNL     1       7.372   6.238  18.553  0.00  0.00    +0.000 C 
ATOM     20  O   UNL     1       8.222   5.845  19.339  0.00  0.00    +0.000 OA
ATOM     21  H   UNL     1       6.816   7.654  17.179  0.00  0.00    +0.000 HD
BRANCH  18  22
ATOM     22  C   UNL     1       8.387   8.441  18.433  0.00  0.00    +0.000 C 
BRANCH  22  23
ATOM     23  C   UNL     1       8.544   9.650  17.498  0.00  0.00    +0.000 C 
BRANCH  23  27
ATOM     24  C   UNL     1      10.114  13.790  18.130  0.00  0.00    +0.000 C 
ATOM     25  C   UNL     1      10.837  12.527  18.597  0.00  0.00    +0.000 C 
ATOM     26  C   UNL     1      10.374  11.263  17.839  0.00  0.00    +0.000 C 
ATOM     27  N   UNL     1       8.987  10.878  18.189  0.00  0.00    +0.000 NA
ATOM     28  C   UNL     1       8.925  10.694  19.658  0.00  0.00    +0.000 C 
ATOM     29  C   UNL     1       9.395  11.959  20.412  0.00  0.00    +0.000 C 
ATOM     30  C   UNL     1       9.418  11.719  21.916  0.00  0.00    +0.000 C 
ATOM     31  O   UNL     1      10.722  12.344  20.017  0.00  0.00    +0.000 OA
ENDBRANCH  23  27
ENDBRANCH  22  23
ENDBRANCH  18  22
ENDBRANCH   1  19
TORSDOF 5
ENDMDL
MODEL 4
REMARK VINA RESULT:      -8.3      4.897      7.810
REMARK  Name = 
REMARK  7 active torsions:
REMARK  status: ('A' for Active; 'I' for Inactive)
REMARK    1  A    between atoms: C_1  and  C_2
REMARK    2  A    between atoms: N_4  and  C_5
REMARK    3  A    between atoms: C_5  and  C_6
REMARK    4  A    between atoms: C_6  and  N_7
REMARK    5  A    between atoms: C_8  and  C_10
REMARK    6  A    between atoms: N_12  and  C_13
REMARK    7  A    between atoms: C_28  and  C_29
REMARK                            x       y       z     vdW  Elec       q    Type
REMARK                         _______ _______ _______ _____ _____    ______ ____
ROOT
ATOM      1  C   UNL     1       2.843   5.942  18.405  0.00  0.00    +0.000 A 
ATOM      2  N   UNL     1       3.736   5.859  17.460  0.00  0.00    +0.000 NA
ATOM      3  N   UNL     1       4.203   4.607  17.079  0.00  0.00    +0.000 N 
ATOM      4  C   UNL     1       3.818   3.417  17.719  0.00  0.00    +0.000 A 
ATOM      5  O   UNL     1       4.207   2.278  17.462  0.00  0.00    +0.000 OA
ATOM      6  C   UNL     1       2.864   3.542  18.830  0.00  0.00    +0.000 A 
ATOM      7  C   UNL     1       2.539   2.411  19.596  0.00  0.00    +0.000 A 
ATOM      8  C   UNL     1       1.629   2.510  20.644  0.00  0.00    +0.000 A 
ATOM      9  C   UNL     1       0.997   3.725  20.888  0.00  0.00    +0.000 A 
ATOM     10  C   UNL     1       1.314   4.847  20.118  0.00  0.00    +0.000 A 
ATOM     11  C   UNL     1       2.299   4.772  19.124  0.00  0.00    +0.000 A 
ENDROOT
BRANCH   3  12
ATOM     12  C   UNL     1       5.183   4.626  16.024  0.00  0.00    +0.000 A 
ATOM     13  C   UNL     1       4.908   4.119  14.743  0.00  0.00    +0.000 A 
ATOM     14  C   UNL     1       5.883   4.098  13.736  0.00  0.00    +0.000 A 
ATOM     15  C   UNL     1       7.153   4.593  13.998  0.00  0.00    +0.000 A 
ATOM     16  C   UNL     1       7.446   5.119  15.250  0.00  0.00    +0.000 A 
ATOM     17  C   UNL     1       6.468   5.145  16.252  0.00  0.00    +0.000 A 
ENDBRANCH   3  12
BRANCH   1  19
ATOM     18  N   UNL     1       2.184   8.245  17.797  0.00  0.00    +0.000 N 
ATOM     19  C   UNL     1       2.397   7.345  18.822  0.00  0.00    +0.000 C 
ATOM     20  O   UNL     1       2.256   7.619  20.006  0.00  0.00    +0.000 OA
ATOM     21  H   UNL     1       2.630   8.037  16.907  0.00  0.00    +0.000 HD
BRANCH  18  22
ATOM     22  C   UNL     1       1.811   9.603  18.147  0.00  0.00    +0.000 C 
BRANCH  22  23
ATOM     23  C   UNL     1       0.296   9.860  18.144  0.00  0.00    +0.000 C 
BRANCH  23  27
ATOM     24  C   UNL     1       0.542  13.136  21.178  0.00  0.00    +0.000 C 
ATOM     25  C   UNL     1      -0.250  11.844  21.385  0.00  0.00    +0.000 C 
ATOM     26  C   UNL     1       0.223  10.704  20.457  0.00  0.00    +0.000 C 
ATOM     27  N   UNL     1      -0.119  10.959  19.038  0.00  0.00    +0.000 NA
ATOM     28  C   UNL     1      -1.583  11.167  18.955  0.00  0.00    +0.000 C 
ATOM     29  C   UNL     1      -2.052  12.306  19.891  0.00  0.00    +0.000 C 
ATOM     30  C   UNL     1      -3.569  12.440  19.866  0.00  0.00    +0.000 C 
ATOM     31  O   UNL     1      -1.663  12.061  21.252  0.00  0.00    +0.000 OA
ENDBRANCH  23  27
ENDBRANCH  22  23
ENDBRANCH  18  22
ENDBRANCH   1  19
TORSDOF 5
ENDMDL
MODEL 5
REMARK VINA RESULT:      -8.1      4.766      7.419
REMARK  Name = 
REMARK  7 active torsions:
REMARK  status: ('A' for Active; 'I' for Inactive)
REMARK    1  A    between atoms: C_1  and  C_2
REMARK    2  A    between atoms: N_4  and  C_5
REMARK    3  A    between atoms: C_5  and  C_6
REMARK    4  A    between atoms: C_6  and  N_7
REMARK    5  A    between atoms: C_8  and  C_10
REMARK    6  A    between atoms: N_12  and  C_13
REMARK    7  A    between atoms: C_28  and  C_29
REMARK                            x       y       z     vdW  Elec       q    Type
REMARK                         _______ _______ _______ _____ _____    ______ ____
ROOT
ATOM      1  C   UNL     1       2.886   5.956  18.337  0.00  0.00    +0.000 A 
ATOM      2  N   UNL     1       3.787   5.844  17.404  0.00  0.00    +0.000 NA
ATOM      3  N   UNL     1       4.236   4.579  17.045  0.00  0.00    +0.000 N 
ATOM      4  C   UNL     1       3.821   3.405  17.695  0.00  0.00    +0.000 A 
ATOM      5  O   UNL     1       4.192   2.255  17.457  0.00  0.00    +0.000 OA
ATOM      6  C   UNL     1       2.857   3.562  18.793  0.00  0.00    +0.000 A 
ATOM      7  C   UNL     1       2.502   2.447  19.570  0.00  0.00    +0.000 A 
ATOM      8  C   UNL     1       1.582   2.577  20.606  0.00  0.00    +0.000 A 
ATOM      9  C   UNL     1       0.970   3.806  20.827  0.00  0.00    +0.000 A 
ATOM     10  C   UNL     1       1.317   4.913  20.046  0.00  0.00    +0.000 A 
ATOM     11  C   UNL     1       2.311   4.806  19.064  0.00  0.00    +0.000 A 
ENDROOT
BRANCH   3  12
ATOM     12  C   UNL     1       5.228   4.566  16.001  0.00  0.00    +0.000 A 
ATOM     13  C   UNL     1       6.532   5.046  16.208  0.00  0.00    +0.000 A 
ATOM     14  C   UNL     1       7.478   5.074  15.175  0.00  0.00    +0.000 A 
ATOM     15  C   UNL     1       7.131   4.614  13.912  0.00  0.00    +0.000 A 
ATOM     16  C   UNL     1       5.855   4.116  13.685  0.00  0.00    +0.000 A 
ATOM     17  C   UNL     1       4.913   4.082  14.721  0.00  0.00    +0.000 A 
ENDBRANCH   3  12
BRANCH   1  19
ATOM     18  N   UNL     1       2.214   8.244  17.688  0.00  0.00    +0.000 N 
ATOM     19  C   UNL     1       2.461   7.372  18.730  0.00  0.00    +0.000 C 
ATOM     20  O   UNL     1       2.366   7.680  19.910  0.00  0.00    +0.000 OA
ATOM     21  H   UNL     1       2.625   8.009  16.789  0.00  0.00    +0.000 HD
BRANCH  18  22
ATOM     22  C   UNL     1       1.860   9.614  18.014  0.00  0.00    +0.000 C 
BRANCH  22  23
ATOM     23  C   UNL     1       0.412   9.790  18.499  0.00  0.00    +0.000 C 
BRANCH  23  27
ATOM     24  C   UNL     1      -1.040  11.291  22.454  0.00  0.00    +0.000 C 
ATOM     25  C   UNL     1      -1.175  12.073  21.148  0.00  0.00    +0.000 C 
ATOM     26  C   UNL     1      -1.074  11.166  19.901  0.00  0.00    +0.000 C 
ATOM     27  N   UNL     1       0.293  10.630  19.709  0.00  0.00    +0.000 NA
ATOM     28  C   UNL     1       1.225  11.780  19.632  0.00  0.00    +0.000 C 
ATOM     29  C   UNL     1       1.116  12.687  20.880  0.00  0.00    +0.000 C 
ATOM     30  C   UNL     1       2.007  13.914  20.739  0.00  0.00    +0.000 C 
ATOM     31  O   UNL     1      -0.230  13.152  21.075  0.00  0.00    +0.000 OA
ENDBRANCH  23  27
ENDBRANCH  22  23
ENDBRANCH  18  22
ENDBRANCH   1  19
TORSDOF 5
ENDMDL
MODEL 6
REMARK VINA RESULT:      -8.1      4.954      7.597
REMARK  Name = 
REMARK  7 active torsions:
REMARK  status: ('A' for Active; 'I' for Inactive)
REMARK    1  A    between atoms: C_1  and  C_2
REMARK    2  A    between atoms: N_4  and  C_5
REMARK    3  A    between atoms: C_5  and  C_6
REMARK    4  A    between atoms: C_6  and  N_7
REMARK    5  A    between atoms: C_8  and  C_10
REMARK    6  A    between atoms: N_12  and  C_13
REMARK    7  A    between atoms: C_28  and  C_29
REMARK                            x       y       z     vdW  Elec       q    Type
REMARK                         _______ _______ _______ _____ _____    ______ ____
ROOT
ATOM      1  C   UNL     1       2.850   5.941  18.409  0.00  0.00    +0.000 A 
ATOM      2  N   UNL     1       3.740   5.858  17.461  0.00  0.00    +0.000 NA
ATOM      3  N   UNL     1       4.210   4.606  17.083  0.00  0.00    +0.000 N 
ATOM      4  C   UNL     1       3.830   3.417  17.728  0.00  0.00    +0.000 A 
ATOM      5  O   UNL     1       4.222   2.279  17.473  0.00  0.00    +0.000 OA
ATOM      6  C   UNL     1       2.880   3.544  18.842  0.00  0.00    +0.000 A 
ATOM      7  C   UNL     1       2.560   2.414  19.613  0.00  0.00    +0.000 A 
ATOM      8  C   UNL     1       1.652   2.514  20.663  0.00  0.00    +0.000 A 
ATOM      9  C   UNL     1       1.018   3.728  20.905  0.00  0.00    +0.000 A 
ATOM     10  C   UNL     1       1.330   4.849  20.130  0.00  0.00    +0.000 A 
ATOM     11  C   UNL     1       2.312   4.773  19.133  0.00  0.00    +0.000 A 
ENDROOT
BRANCH   3  12
ATOM     12  C   UNL     1       5.187   4.625  16.025  0.00  0.00    +0.000 A 
ATOM     13  C   UNL     1       4.894   4.155  14.734  0.00  0.00    +0.000 A 
ATOM     14  C   UNL     1       5.865   4.132  13.723  0.00  0.00    +0.000 A 
ATOM     15  C   UNL     1       7.149   4.587  13.991  0.00  0.00    +0.000 A 
ATOM     16  C   UNL     1       7.459   5.075  15.253  0.00  0.00    +0.000 A 
ATOM     17  C   UNL     1       6.486   5.103  16.260  0.00  0.00    +0.000 A 
ENDBRANCH   3  12
BRANCH   1  19
ATOM     18  N   UNL     1       2.176   8.239  17.794  0.00  0.00    +0.000 N 
ATOM     19  C   UNL     1       2.402   7.345  18.822  0.00  0.00    +0.000 C 
ATOM     20  O   UNL     1       2.270   7.624  20.006  0.00  0.00    +0.000 OA
ATOM     21  H   UNL     1       2.615   8.028  16.902  0.00  0.00    +0.000 HD
BRANCH  18  22
ATOM     22  C   UNL     1       1.800   9.597  18.141  0.00  0.00    +0.000 C 
BRANCH  22  23
ATOM     23  C   UNL     1       0.283   9.829  18.219  0.00  0.00    +0.000 C 
BRANCH  23  27
ATOM     24  C   UNL     1      -1.961  12.322  21.177  0.00  0.00    +0.000 C 
ATOM     25  C   UNL     1      -1.859  12.656  19.689  0.00  0.00    +0.000 C 
ATOM     26  C   UNL     1      -1.489  11.427  18.829  0.00  0.00    +0.000 C 
ATOM     27  N   UNL     1      -0.095  10.981  19.061  0.00  0.00    +0.000 NA
ATOM     28  C   UNL     1       0.799  12.132  18.793  0.00  0.00    +0.000 C 
ATOM     29  C   UNL     1       0.420  13.361  19.652  0.00  0.00    +0.000 C 
ATOM     30  C   UNL     1       1.286  14.563  19.293  0.00  0.00    +0.000 C 
ATOM     31  O   UNL     1      -0.951  13.742  19.450  0.00  0.00    +0.000 OA
ENDBRANCH  23  27
ENDBRANCH  22  23
ENDBRANCH  18  22
ENDBRANCH   1  19
TORSDOF 5
ENDMDL
MODEL 7
REMARK VINA RESULT:      -8.1      4.869      7.660
REMARK  Name = 
REMARK  7 active torsions:
REMARK  status: ('A' for Active; 'I' for Inactive)
REMARK    1  A    between atoms: C_1  and  C_2
REMARK    2  A    between atoms: N_4  and  C_5
REMARK    3  A    between atoms: C_5  and  C_6
REMARK    4  A    between atoms: C_6  and  N_7
REMARK    5  A    between atoms: C_8  and  C_10
REMARK    6  A    between atoms: N_12  and  C_13
REMARK    7  A    between atoms: C_28  and  C_29
REMARK                            x       y       z     vdW  Elec       q    Type
REMARK                         _______ _______ _______ _____ _____    ______ ____
ROOT
ATOM      1  C   UNL     1       2.874   5.961  18.380  0.00  0.00    +0.000 A 
ATOM      2  N   UNL     1       3.766   5.869  17.435  0.00  0.00    +0.000 NA
ATOM      3  N   UNL     1       4.197   4.611  17.033  0.00  0.00    +0.000 N 
ATOM      4  C   UNL     1       3.777   3.422  17.651  0.00  0.00    +0.000 A 
ATOM      5  O   UNL     1       4.134   2.277  17.375  0.00  0.00    +0.000 OA
ATOM      6  C   UNL     1       2.825   3.555  18.763  0.00  0.00    +0.000 A 
ATOM      7  C   UNL     1       2.465   2.421  19.508  0.00  0.00    +0.000 A 
ATOM      8  C   UNL     1       1.556   2.528  20.557  0.00  0.00    +0.000 A 
ATOM      9  C   UNL     1       0.959   3.756  20.821  0.00  0.00    +0.000 A 
ATOM     10  C   UNL     1       1.310   4.882  20.071  0.00  0.00    +0.000 A 
ATOM     11  C   UNL     1       2.294   4.795  19.077  0.00  0.00    +0.000 A 
ENDROOT
BRANCH   3  12
ATOM     12  C   UNL     1       5.180   4.620  15.980  0.00  0.00    +0.000 A 
ATOM     13  C   UNL     1       4.901   4.122  14.697  0.00  0.00    +0.000 A 
ATOM     14  C   UNL     1       5.877   4.091  13.692  0.00  0.00    +0.000 A 
ATOM     15  C   UNL     1       7.154   4.566  13.957  0.00  0.00    +0.000 A 
ATOM     16  C   UNL     1       7.451   5.083  15.212  0.00  0.00    +0.000 A 
ATOM     17  C   UNL     1       6.472   5.119  16.213  0.00  0.00    +0.000 A 
ENDBRANCH   3  12
BRANCH   1  19
ATOM     18  N   UNL     1       2.145   8.253  17.810  0.00  0.00    +0.000 N 
ATOM     19  C   UNL     1       2.468   7.369  18.821  0.00  0.00    +0.000 C 
ATOM     20  O   UNL     1       2.450   7.661  20.008  0.00  0.00    +0.000 OA
ATOM     21  H   UNL     1       2.496   8.033  16.882  0.00  0.00    +0.000 HD
BRANCH  18  22
ATOM     22  C   UNL     1       1.805   9.616  18.178  0.00  0.00    +0.000 C 
BRANCH  22  23
ATOM     23  C   UNL     1       0.377   9.782  18.720  0.00  0.00    +0.000 C 
BRANCH  23  27
ATOM     24  C   UNL     1       0.791   9.402  23.157  0.00  0.00    +0.000 C 
ATOM     25  C   UNL     1      -0.550   9.561  22.439  0.00  0.00    +0.000 C 
ATOM     26  C   UNL     1      -0.475   9.167  20.948  0.00  0.00    +0.000 C 
ATOM     27  N   UNL     1       0.327  10.128  20.155  0.00  0.00    +0.000 NA
ATOM     28  C   UNL     1      -0.265  11.473  20.341  0.00  0.00    +0.000 C 
ATOM     29  C   UNL     1      -0.343  11.861  21.836  0.00  0.00    +0.000 C 
ATOM     30  C   UNL     1      -1.042  13.202  22.014  0.00  0.00    +0.000 C 
ATOM     31  O   UNL     1      -1.080  10.887  22.594  0.00  0.00    +0.000 OA
ENDBRANCH  23  27
ENDBRANCH  22  23
ENDBRANCH  18  22
ENDBRANCH   1  19
TORSDOF 5
ENDMDL
MODEL 8
REMARK VINA RESULT:      -8.1      4.875      7.918
REMARK  Name = 
REMARK  7 active torsions:
REMARK  status: ('A' for Active; 'I' for Inactive)
REMARK    1  A    between atoms: C_1  and  C_2
REMARK    2  A    between atoms: N_4  and  C_5
REMARK    3  A    between atoms: C_5  and  C_6
REMARK    4  A    between atoms: C_6  and  N_7
REMARK    5  A    between atoms: C_8  and  C_10
REMARK    6  A    between atoms: N_12  and  C_13
REMARK    7  A    between atoms: C_28  and  C_29
REMARK                            x       y       z     vdW  Elec       q    Type
REMARK                         _______ _______ _______ _____ _____    ______ ____
ROOT
ATOM      1  C   UNL     1       2.802   5.822  18.733  0.00  0.00    +0.000 A 
ATOM      2  N   UNL     1       3.707   5.785  17.796  0.00  0.00    +0.000 NA
ATOM      3  N   UNL     1       4.196   4.553  17.378  0.00  0.00    +0.000 N 
ATOM      4  C   UNL     1       3.820   3.336  17.971  0.00  0.00    +0.000 A 
ATOM      5  O   UNL     1       4.228   2.212  17.679  0.00  0.00    +0.000 OA
ATOM      6  C   UNL     1       2.852   3.410  19.075  0.00  0.00    +0.000 A 
ATOM      7  C   UNL     1       2.533   2.248  19.797  0.00  0.00    +0.000 A 
ATOM      8  C   UNL     1       1.610   2.299  20.837  0.00  0.00    +0.000 A 
ATOM      9  C   UNL     1       0.959   3.495  21.115  0.00  0.00    +0.000 A 
ATOM     10  C   UNL     1       1.269   4.648  20.388  0.00  0.00    +0.000 A 
ATOM     11  C   UNL     1       2.266   4.621  19.404  0.00  0.00    +0.000 A 
ENDROOT
BRANCH   3  12
ATOM     12  C   UNL     1       5.188   4.622  16.336  0.00  0.00    +0.000 A 
ATOM     13  C   UNL     1       6.496   5.072  16.582  0.00  0.00    +0.000 A 
ATOM     14  C   UNL     1       7.441   5.182  15.553  0.00  0.00    +0.000 A 
ATOM     15  C   UNL     1       7.090   4.835  14.256  0.00  0.00    +0.000 A 
ATOM     16  C   UNL     1       5.810   4.367  13.989  0.00  0.00    +0.000 A 
ATOM     17  C   UNL     1       4.869   4.252  15.020  0.00  0.00    +0.000 A 
ENDBRANCH   3  12
BRANCH   1  19
ATOM     18  N   UNL     1       2.134   7.357  20.551  0.00  0.00    +0.000 N 
ATOM     19  C   UNL     1       2.332   7.204  19.193  0.00  0.00    +0.000 C 
ATOM     20  O   UNL     1       2.145   8.093  18.374  0.00  0.00    +0.000 OA
ATOM     21  H   UNL     1       1.997   6.508  21.091  0.00  0.00    +0.000 HD
BRANCH  18  22
ATOM     22  C   UNL     1       1.638   8.636  21.027  0.00  0.00    +0.000 C 
BRANCH  22  23
ATOM     23  C   UNL     1       0.140   8.640  21.371  0.00  0.00    +0.000 C 
BRANCH  23  27
ATOM     24  C   UNL     1      -1.944  11.770  18.951  0.00  0.00    +0.000 C 
ATOM     25  C   UNL     1      -0.572  11.969  19.596  0.00  0.00    +0.000 C 
ATOM     26  C   UNL     1       0.129  10.632  19.922  0.00  0.00    +0.000 C 
ATOM     27  N   UNL     1      -0.541   9.903  21.025  0.00  0.00    +0.000 NA
ATOM     28  C   UNL     1      -0.588  10.804  22.200  0.00  0.00    +0.000 C 
ATOM     29  C   UNL     1      -1.285  12.143  21.866  0.00  0.00    +0.000 C 
ATOM     30  C   UNL     1      -1.237  13.093  23.057  0.00  0.00    +0.000 C 
ATOM     31  O   UNL     1      -0.650  12.805  20.760  0.00  0.00    +0.000 OA
ENDBRANCH  23  27
ENDBRANCH  22  23
ENDBRANCH  18  22
ENDBRANCH   1  19
TORSDOF 5
ENDMDL
MODEL 9
REMARK VINA RESULT:      -8.0      4.965      8.092
REMARK  Name = 
REMARK  7 active torsions:
REMARK  status: ('A' for Active; 'I' for Inactive)
REMARK    1  A    between atoms: C_1  and  C_2
REMARK    2  A    between atoms: N_4  and  C_5
REMARK    3  A    between atoms: C_5  and  C_6
REMARK    4  A    between atoms: C_6  and  N_7
REMARK    5  A    between atoms: C_8  and  C_10
REMARK    6  A    between atoms: N_12  and  C_13
REMARK    7  A    between atoms: C_28  and  C_29
REMARK                            x       y       z     vdW  Elec       q    Type
REMARK                         _______ _______ _______ _____ _____    ______ ____
ROOT
ATOM      1  C   UNL     1       2.860   5.920  18.397  0.00  0.00    +0.000 A 
ATOM      2  N   UNL     1       3.752   5.837  17.452  0.00  0.00    +0.000 NA
ATOM      3  N   UNL     1       4.208   4.584  17.061  0.00  0.00    +0.000 N 
ATOM      4  C   UNL     1       3.811   3.392  17.689  0.00  0.00    +0.000 A 
ATOM      5  O   UNL     1       4.190   2.252  17.423  0.00  0.00    +0.000 OA
ATOM      6  C   UNL     1       2.858   3.517  18.802  0.00  0.00    +0.000 A 
ATOM      7  C   UNL     1       2.522   2.382  19.558  0.00  0.00    +0.000 A 
ATOM      8  C   UNL     1       1.612   2.481  20.606  0.00  0.00    +0.000 A 
ATOM      9  C   UNL     1       0.992   3.699  20.861  0.00  0.00    +0.000 A 
ATOM     10  C   UNL     1       1.319   4.825  20.100  0.00  0.00    +0.000 A 
ATOM     11  C   UNL     1       2.304   4.749  19.106  0.00  0.00    +0.000 A 
ENDROOT
BRANCH   3  12
ATOM     12  C   UNL     1       5.189   4.603  16.006  0.00  0.00    +0.000 A 
ATOM     13  C   UNL     1       4.911   4.105  14.722  0.00  0.00    +0.000 A 
ATOM     14  C   UNL     1       5.886   4.084  13.716  0.00  0.00    +0.000 A 
ATOM     15  C   UNL     1       7.160   4.569  13.980  0.00  0.00    +0.000 A 
ATOM     16  C   UNL     1       7.454   5.086  15.235  0.00  0.00    +0.000 A 
ATOM     17  C   UNL     1       6.476   5.112  16.237  0.00  0.00    +0.000 A 
ENDBRANCH   3  12
BRANCH   1  19
ATOM     18  N   UNL     1       2.108   8.199  17.807  0.00  0.00    +0.000 N 
ATOM     19  C   UNL     1       2.427   7.324  18.826  0.00  0.00    +0.000 C 
ATOM     20  O   UNL     1       2.387   7.619  20.013  0.00  0.00    +0.000 OA
ATOM     21  H   UNL     1       2.476   7.981  16.886  0.00  0.00    +0.000 HD
BRANCH  18  22
ATOM     22  C   UNL     1       1.742   9.558  18.165  0.00  0.00    +0.000 C 
BRANCH  22  23
ATOM     23  C   UNL     1       0.639   9.653  19.230  0.00  0.00    +0.000 C 
BRANCH  23  27
ATOM     24  C   UNL     1      -1.200  13.701  19.711  0.00  0.00    +0.000 C 
ATOM     25  C   UNL     1      -1.915  12.396  20.062  0.00  0.00    +0.000 C 
ATOM     26  C   UNL     1      -0.934  11.225  20.289  0.00  0.00    +0.000 C 
ATOM     27  N   UNL     1      -0.275  10.796  19.034  0.00  0.00    +0.000 NA
ATOM     28  C   UNL     1      -1.336  10.446  18.061  0.00  0.00    +0.000 C 
ATOM     29  C   UNL     1      -2.319  11.620  17.842  0.00  0.00    +0.000 C 
ATOM     30  C   UNL     1      -3.457  11.211  16.916  0.00  0.00    +0.000 C 
ATOM     31  O   UNL     1      -2.905  12.053  19.081  0.00  0.00    +0.000 OA
ENDBRANCH  23  27
ENDBRANCH  22  23
ENDBRANCH  18  22
ENDBRANCH   1  19
TORSDOF 5
ENDMDL
