MODEL 1
REMARK VINA RESULT:      -9.2      0.000      0.000
REMARK  Name = 
REMARK  5 active torsions:
REMARK  status: ('A' for Active; 'I' for Inactive)
REMARK    1  A    between atoms: C_2  and  C_3
REMARK    2  A    between atoms: C_3  and  C_4
REMARK    3  A    between atoms: C_4  and  N_5
REMARK    4  A    between atoms: C_6  and  C_8
REMARK    5  A    between atoms: N_18  and  C_19
REMARK                            x       y       z     vdW  Elec       q    Type
REMARK                         _______ _______ _______ _____ _____    ______ ____
ROOT
ATOM      1  O   UNL     1       2.159   3.744  17.097  0.00  0.00    +0.000 OA
ATOM      2  C   UNL     1       2.745   3.709  18.175  0.00  0.00    +0.000 C 
ATOM      3  N   UNL     1       4.106   3.926  18.359  0.00  0.00    +0.000 N 
ATOM      4  H   UNL     1       4.493   3.709  19.267  0.00  0.00    +0.000 HD
ENDROOT
BRANCH   3   5
ATOM      5  C   UNL     1       5.017   4.353  17.357  0.00  0.00    +0.000 A 
ATOM      6  C   UNL     1       5.983   5.339  17.589  0.00  0.00    +0.000 A 
ATOM      7  C   UNL     1       6.902   5.695  16.596  0.00  0.00    +0.000 A 
ATOM      8  C   UNL     1       6.861   5.078  15.355  0.00  0.00    +0.000 A 
ATOM      9  C   UNL     1       5.902   4.094  15.108  0.00  0.00    +0.000 A 
ATOM     10  C   UNL     1       4.982   3.731  16.104  0.00  0.00    +0.000 A 
ATOM     11  N   UNL     1       5.886   3.441  13.872  0.00  0.00    +0.000 N 
ATOM     12  C   UNL     1       6.737   3.802  12.861  0.00  0.00    +0.000 C 
ATOM     13  O   UNL     1       6.765   3.187  11.796  0.00  0.00    +0.000 OA
ATOM     14  C   UNL     1       7.559   5.063  13.123  0.00  0.00    +0.000 C 
ATOM     15  O   UNL     1       7.828   5.444  14.462  0.00  0.00    +0.000 OA
ATOM     16  H   UNL     1       5.275   2.659  13.695  0.00  0.00    +0.000 HD
ENDBRANCH   3   5
BRANCH   2  17
ATOM     17  C   UNL     1       1.998   3.426  19.461  0.00  0.00    +0.000 C 
BRANCH  17  18
ATOM     18  C   UNL     1       2.558   4.277  20.602  0.00  0.00    +0.000 C 
BRANCH  18  19
ATOM     19  N   UNL     1       1.885   5.559  20.701  0.00  0.00    +0.000 N 
ATOM     20  C   UNL     1       2.387   6.685  20.081  0.00  0.00    +0.000 C 
ATOM     21  O   UNL     1       3.407   6.682  19.403  0.00  0.00    +0.000 OA
ATOM     22  H   UNL     1       0.959   5.579  21.105  0.00  0.00    +0.000 HD
BRANCH  20  23
ATOM     23  C   UNL     1       1.588   7.933  20.229  0.00  0.00    +0.000 A 
ATOM     24  C   UNL     1       1.408   8.827  19.170  0.00  0.00    +0.000 A 
ATOM     25  C   UNL     1       0.653   9.988  19.356  0.00  0.00    +0.000 A 
ATOM     26  C   UNL     1       0.060  10.267  20.597  0.00  0.00    +0.000 A 
ATOM     27  C   UNL     1      -0.705  11.427  20.793  0.00  0.00    +0.000 A 
ATOM     28  C   UNL     1      -1.295  11.691  22.030  0.00  0.00    +0.000 A 
ATOM     29  C   UNL     1      -1.128  10.799  23.086  0.00  0.00    +0.000 A 
ATOM     30  C   UNL     1      -0.372   9.640  22.907  0.00  0.00    +0.000 A 
ATOM     31  C   UNL     1       0.227   9.359  21.668  0.00  0.00    +0.000 A 
ATOM     32  C   UNL     1       0.988   8.194  21.468  0.00  0.00    +0.000 A 
ENDBRANCH  20  23
ENDBRANCH  18  19
ENDBRANCH  17  18
ENDBRANCH   2  17
TORSDOF 5
ENDMDL
MODEL 2
REMARK VINA RESULT:      -9.2      6.843      9.511
REMARK  Name = 
REMARK  5 active torsions:
REMARK  status: ('A' for Active; 'I' for Inactive)
REMARK    1  A    between atoms: C_2  and  C_3
REMARK    2  A    between atoms: C_3  and  C_4
REMARK    3  A    between atoms: C_4  and  N_5
REMARK    4  A    between atoms: C_6  and  C_8
REMARK    5  A    between atoms: N_18  and  C_19
REMARK                            x       y       z     vdW  Elec       q    Type
REMARK                         _______ _______ _______ _____ _____    ______ ____
ROOT
ATOM      1  O   UNL     1       9.163  10.587  20.220  0.00  0.00    +0.000 OA
ATOM      2  C   UNL     1       9.082  10.154  19.074  0.00  0.00    +0.000 C 
ATOM      3  N   UNL     1       9.223  10.911  17.915  0.00  0.00    +0.000 N 
ATOM      4  H   UNL     1       8.973  10.471  17.040  0.00  0.00    +0.000 HD
ENDROOT
BRANCH   3   5
ATOM      5  C   UNL     1       9.614  12.274  17.863  0.00  0.00    +0.000 A 
ATOM      6  C   UNL     1      10.885  12.677  17.436  0.00  0.00    +0.000 A 
ATOM      7  C   UNL     1      11.219  14.031  17.342  0.00  0.00    +0.000 A 
ATOM      8  C   UNL     1      10.289  15.003  17.683  0.00  0.00    +0.000 A 
ATOM      9  C   UNL     1       9.018  14.618  18.113  0.00  0.00    +0.000 A 
ATOM     10  C   UNL     1       8.679  13.258  18.203  0.00  0.00    +0.000 A 
ATOM     11  N   UNL     1       8.067  15.596  18.417  0.00  0.00    +0.000 N 
ATOM     12  C   UNL     1       8.376  16.930  18.386  0.00  0.00    +0.000 C 
ATOM     13  O   UNL     1       7.523  17.791  18.592  0.00  0.00    +0.000 OA
ATOM     14  C   UNL     1       9.855  17.248  18.175  0.00  0.00    +0.000 C 
ATOM     15  O   UNL     1      10.676  16.302  17.509  0.00  0.00    +0.000 OA
ATOM     16  H   UNL     1       7.112  15.355  18.632  0.00  0.00    +0.000 HD
ENDBRANCH   3   5
BRANCH   2  17
ATOM     17  C   UNL     1       8.821   8.686  18.810  0.00  0.00    +0.000 C 
BRANCH  17  18
ATOM     18  C   UNL     1       8.038   8.509  17.509  0.00  0.00    +0.000 C 
BRANCH  18  19
ATOM     19  N   UNL     1       6.776   7.824  17.725  0.00  0.00    +0.000 N 
ATOM     20  C   UNL     1       6.456   6.672  17.036  0.00  0.00    +0.000 C 
ATOM     21  O   UNL     1       7.202   6.146  16.219  0.00  0.00    +0.000 OA
ATOM     22  H   UNL     1       6.203   8.121  18.502  0.00  0.00    +0.000 HD
BRANCH  20  23
ATOM     23  C   UNL     1       5.147   6.045  17.370  0.00  0.00    +0.000 A 
ATOM     24  C   UNL     1       4.003   6.807  17.619  0.00  0.00    +0.000 A 
ATOM     25  C   UNL     1       2.797   6.174  17.932  0.00  0.00    +0.000 A 
ATOM     26  C   UNL     1       2.714   4.775  17.990  0.00  0.00    +0.000 A 
ATOM     27  C   UNL     1       1.507   4.129  18.298  0.00  0.00    +0.000 A 
ATOM     28  C   UNL     1       1.436   2.736  18.348  0.00  0.00    +0.000 A 
ATOM     29  C   UNL     1       2.570   1.972  18.091  0.00  0.00    +0.000 A 
ATOM     30  C   UNL     1       3.778   2.598  17.781  0.00  0.00    +0.000 A 
ATOM     31  C   UNL     1       3.866   3.999  17.726  0.00  0.00    +0.000 A 
ATOM     32  C   UNL     1       5.073   4.647  17.410  0.00  0.00    +0.000 A 
ENDBRANCH  20  23
ENDBRANCH  18  19
ENDBRANCH  17  18
ENDBRANCH   2  17
TORSDOF 5
ENDMDL
MODEL 3
REMARK VINA RESULT:      -8.9      6.459      9.330
REMARK  Name = 
REMARK  5 active torsions:
REMARK  status: ('A' for Active; 'I' for Inactive)
REMARK    1  A    between atoms: C_2  and  C_3
REMARK    2  A    between atoms: C_3  and  C_4
REMARK    3  A    between atoms: C_4  and  N_5
REMARK    4  A    between atoms: C_6  and  C_8
REMARK    5  A    between atoms: N_18  and  C_19
REMARK                            x       y       z     vdW  Elec       q    Type
REMARK                         _______ _______ _______ _____ _____    ______ ____
ROOT
ATOM      1  O   UNL     1       8.082  10.262  17.811  0.00  0.00    +0.000 OA
ATOM      2  C   UNL     1       8.633   9.463  18.564  0.00  0.00    +0.000 C 
ATOM      3  N   UNL     1       9.532   9.795  19.571  0.00  0.00    +0.000 N 
ATOM      4  H   UNL     1      10.037   9.038  20.011  0.00  0.00    +0.000 HD
ENDROOT
BRANCH   3   5
ATOM      5  C   UNL     1       9.860  11.113  19.984  0.00  0.00    +0.000 A 
ATOM      6  C   UNL     1      10.790  11.906  19.302  0.00  0.00    +0.000 A 
ATOM      7  C   UNL     1      11.047  13.221  19.702  0.00  0.00    +0.000 A 
ATOM      8  C   UNL     1      10.385  13.759  20.796  0.00  0.00    +0.000 A 
ATOM      9  C   UNL     1       9.457  12.980  21.489  0.00  0.00    +0.000 A 
ATOM     10  C   UNL     1       9.193  11.661  21.086  0.00  0.00    +0.000 A 
ATOM     11  N   UNL     1       8.759  13.533  22.566  0.00  0.00    +0.000 N 
ATOM     12  C   UNL     1       9.024  14.799  23.016  0.00  0.00    +0.000 C 
ATOM     13  O   UNL     1       8.367  15.308  23.923  0.00  0.00    +0.000 OA
ATOM     14  C   UNL     1      10.238  15.473  22.380  0.00  0.00    +0.000 C 
ATOM     15  O   UNL     1      10.653  15.067  21.086  0.00  0.00    +0.000 OA
ATOM     16  H   UNL     1       8.011  13.034  23.023  0.00  0.00    +0.000 HD
ENDBRANCH   3   5
BRANCH   2  17
ATOM     17  C   UNL     1       8.357   7.978  18.463  0.00  0.00    +0.000 C 
BRANCH  17  18
ATOM     18  C   UNL     1       7.416   7.688  17.293  0.00  0.00    +0.000 C 
BRANCH  18  19
ATOM     19  N   UNL     1       6.374   6.744  17.656  0.00  0.00    +0.000 N 
ATOM     20  C   UNL     1       5.395   6.373  16.758  0.00  0.00    +0.000 C 
ATOM     21  O   UNL     1       5.342   6.792  15.608  0.00  0.00    +0.000 OA
ATOM     22  H   UNL     1       6.470   6.246  18.530  0.00  0.00    +0.000 HD
BRANCH  20  23
ATOM     23  C   UNL     1       4.402   5.372  17.238  0.00  0.00    +0.000 A 
ATOM     24  C   UNL     1       4.232   4.137  16.606  0.00  0.00    +0.000 A 
ATOM     25  C   UNL     1       3.286   3.230  17.090  0.00  0.00    +0.000 A 
ATOM     26  C   UNL     1       2.505   3.538  18.215  0.00  0.00    +0.000 A 
ATOM     27  C   UNL     1       1.557   2.631  18.712  0.00  0.00    +0.000 A 
ATOM     28  C   UNL     1       0.790   2.947  19.835  0.00  0.00    +0.000 A 
ATOM     29  C   UNL     1       0.963   4.172  20.474  0.00  0.00    +0.000 A 
ATOM     30  C   UNL     1       1.903   5.083  19.993  0.00  0.00    +0.000 A 
ATOM     31  C   UNL     1       2.684   4.780  18.865  0.00  0.00    +0.000 A 
ATOM     32  C   UNL     1       3.640   5.684  18.370  0.00  0.00    +0.000 A 
ENDBRANCH  20  23
ENDBRANCH  18  19
ENDBRANCH  17  18
ENDBRANCH   2  17
TORSDOF 5
ENDMDL
MODEL 4
REMARK VINA RESULT:      -8.9      6.559      9.025
REMARK  Name = 
REMARK  5 active torsions:
REMARK  status: ('A' for Active; 'I' for Inactive)
REMARK    1  A    between atoms: C_2  and  C_3
REMARK    2  A    between atoms: C_3  and  C_4
REMARK    3  A    between atoms: C_4  and  N_5
REMARK    4  A    between atoms: C_6  and  C_8
REMARK    5  A    between atoms: N_18  and  C_19
REMARK                            x       y       z     vdW  Elec       q    Type
REMARK                         _______ _______ _______ _____ _____    ______ ____
ROOT
ATOM      1  O   UNL     1       9.140  10.054  20.038  0.00  0.00    +0.000 OA
ATOM      2  C   UNL     1       8.882   9.734  18.881  0.00  0.00    +0.000 C 
ATOM      3  N   UNL     1       8.884  10.596  17.789  0.00  0.00    +0.000 N 
ATOM      4  H   UNL     1       8.499  10.247  16.922  0.00  0.00    +0.000 HD
ENDROOT
BRANCH   3   5
ATOM      5  C   UNL     1       9.311  11.950  17.806  0.00  0.00    +0.000 A 
ATOM      6  C   UNL     1      10.633  12.325  17.543  0.00  0.00    +0.000 A 
ATOM      7  C   UNL     1      11.007  13.673  17.512  0.00  0.00    +0.000 A 
ATOM      8  C   UNL     1      10.066  14.663  17.752  0.00  0.00    +0.000 A 
ATOM      9  C   UNL     1       8.744  14.304  18.019  0.00  0.00    +0.000 A 
ATOM     10  C   UNL     1       8.365  12.952  18.045  0.00  0.00    +0.000 A 
ATOM     11  N   UNL     1       7.785  15.301  18.220  0.00  0.00    +0.000 N 
ATOM     12  C   UNL     1       8.127  16.627  18.248  0.00  0.00    +0.000 C 
ATOM     13  O   UNL     1       7.275  17.507  18.363  0.00  0.00    +0.000 OA
ATOM     14  C   UNL     1       9.628  16.911  18.224  0.00  0.00    +0.000 C 
ATOM     15  O   UNL     1      10.501  15.953  17.648  0.00  0.00    +0.000 OA
ATOM     16  H   UNL     1       6.805  15.081  18.314  0.00  0.00    +0.000 HD
ENDBRANCH   3   5
BRANCH   2  17
ATOM     17  C   UNL     1       8.537   8.304  18.524  0.00  0.00    +0.000 C 
BRANCH  17  18
ATOM     18  C   UNL     1       7.404   8.269  17.498  0.00  0.00    +0.000 C 
BRANCH  18  19
ATOM     19  N   UNL     1       6.401   7.275  17.831  0.00  0.00    +0.000 N 
ATOM     20  C   UNL     1       5.556   6.755  16.872  0.00  0.00    +0.000 C 
ATOM     21  O   UNL     1       5.600   7.076  15.691  0.00  0.00    +0.000 OA
ATOM     22  H   UNL     1       6.436   6.856  18.750  0.00  0.00    +0.000 HD
BRANCH  20  23
ATOM     23  C   UNL     1       4.593   5.716  17.332  0.00  0.00    +0.000 A 
ATOM     24  C   UNL     1       4.484   4.475  16.699  0.00  0.00    +0.000 A 
ATOM     25  C   UNL     1       3.564   3.532  17.164  0.00  0.00    +0.000 A 
ATOM     26  C   UNL     1       2.747   3.811  18.270  0.00  0.00    +0.000 A 
ATOM     27  C   UNL     1       1.823   2.869  18.748  0.00  0.00    +0.000 A 
ATOM     28  C   UNL     1       1.020   3.156  19.853  0.00  0.00    +0.000 A 
ATOM     29  C   UNL     1       1.130   4.387  20.493  0.00  0.00    +0.000 A 
ATOM     30  C   UNL     1       2.045   5.334  20.032  0.00  0.00    +0.000 A 
ATOM     31  C   UNL     1       2.863   5.061  18.922  0.00  0.00    +0.000 A 
ATOM     32  C   UNL     1       3.793   6.000  18.446  0.00  0.00    +0.000 A 
ENDBRANCH  20  23
ENDBRANCH  18  19
ENDBRANCH  17  18
ENDBRANCH   2  17
TORSDOF 5
ENDMDL
MODEL 5
REMARK VINA RESULT:      -8.8      6.472      8.988
REMARK  Name = 
REMARK  5 active torsions:
REMARK  status: ('A' for Active; 'I' for Inactive)
REMARK    1  A    between atoms: C_2  and  C_3
REMARK    2  A    between atoms: C_3  and  C_4
REMARK    3  A    between atoms: C_4  and  N_5
REMARK    4  A    between atoms: C_6  and  C_8
REMARK    5  A    between atoms: N_18  and  C_19
REMARK                            x       y       z     vdW  Elec       q    Type
REMARK                         _______ _______ _______ _____ _____    ______ ____
ROOT
ATOM      1  O   UNL     1       7.604   5.913  18.243  0.00  0.00    +0.000 OA
ATOM      2  C   UNL     1       6.887   6.742  17.691  0.00  0.00    +0.000 C 
ATOM      3  N   UNL     1       5.550   6.554  17.356  0.00  0.00    +0.000 N 
ATOM      4  H   UNL     1       5.118   7.248  16.761  0.00  0.00    +0.000 HD
ENDROOT
BRANCH   3   5
ATOM      5  C   UNL     1       4.759   5.431  17.713  0.00  0.00    +0.000 A 
ATOM      6  C   UNL     1       4.556   4.348  16.850  0.00  0.00    +0.000 A 
ATOM      7  C   UNL     1       3.818   3.231  17.256  0.00  0.00    +0.000 A 
ATOM      8  C   UNL     1       3.264   3.186  18.526  0.00  0.00    +0.000 A 
ATOM      9  C   UNL     1       3.455   4.260  19.398  0.00  0.00    +0.000 A 
ATOM     10  C   UNL     1       4.200   5.379  18.995  0.00  0.00    +0.000 A 
ATOM     11  N   UNL     1       2.933   4.199  20.693  0.00  0.00    +0.000 N 
ATOM     12  C   UNL     1       2.161   3.144  21.105  0.00  0.00    +0.000 C 
ATOM     13  O   UNL     1       1.755   3.061  22.262  0.00  0.00    +0.000 OA
ATOM     14  C   UNL     1       1.776   2.154  20.007  0.00  0.00    +0.000 C 
ATOM     15  O   UNL     1       2.606   2.037  18.863  0.00  0.00    +0.000 OA
ATOM     16  H   UNL     1       3.137   4.909  21.379  0.00  0.00    +0.000 HD
ENDBRANCH   3   5
BRANCH   2  17
ATOM     17  C   UNL     1       7.417   8.111  17.320  0.00  0.00    +0.000 C 
BRANCH  17  18
ATOM     18  C   UNL     1       8.372   8.622  18.400  0.00  0.00    +0.000 C 
BRANCH  18  19
ATOM     19  N   UNL     1       8.982   9.886  18.029  0.00  0.00    +0.000 N 
ATOM     20  C   UNL     1       9.363  10.808  18.983  0.00  0.00    +0.000 C 
ATOM     21  O   UNL     1       9.232  10.624  20.187  0.00  0.00    +0.000 OA
ATOM     22  H   UNL     1       9.263  10.013  17.067  0.00  0.00    +0.000 HD
BRANCH  20  23
ATOM     23  C   UNL     1      10.009  12.052  18.480  0.00  0.00    +0.000 A 
ATOM     24  C   UNL     1      11.033  12.022  17.530  0.00  0.00    +0.000 A 
ATOM     25  C   UNL     1      11.611  13.215  17.088  0.00  0.00    +0.000 A 
ATOM     26  C   UNL     1      11.169  14.453  17.581  0.00  0.00    +0.000 A 
ATOM     27  C   UNL     1      11.739  15.657  17.141  0.00  0.00    +0.000 A 
ATOM     28  C   UNL     1      11.287  16.882  17.634  0.00  0.00    +0.000 A 
ATOM     29  C   UNL     1      10.260  16.918  18.573  0.00  0.00    +0.000 A 
ATOM     30  C   UNL     1       9.681  15.730  19.020  0.00  0.00    +0.000 A 
ATOM     31  C   UNL     1      10.124  14.488  18.532  0.00  0.00    +0.000 A 
ATOM     32  C   UNL     1       9.549  13.282  18.967  0.00  0.00    +0.000 A 
ENDBRANCH  20  23
ENDBRANCH  18  19
ENDBRANCH  17  18
ENDBRANCH   2  17
TORSDOF 5
ENDMDL
MODEL 6
REMARK VINA RESULT:      -8.7      6.639      9.012
REMARK  Name = 
REMARK  5 active torsions:
REMARK  status: ('A' for Active; 'I' for Inactive)
REMARK    1  A    between atoms: C_2  and  C_3
REMARK    2  A    between atoms: C_3  and  C_4
REMARK    3  A    between atoms: C_4  and  N_5
REMARK    4  A    between atoms: C_6  and  C_8
REMARK    5  A    between atoms: N_18  and  C_19
REMARK                            x       y       z     vdW  Elec       q    Type
REMARK                         _______ _______ _______ _____ _____    ______ ____
ROOT
ATOM      1  O   UNL     1       8.947   9.002  19.463  0.00  0.00    +0.000 OA
ATOM      2  C   UNL     1       8.522   9.321  18.356  0.00  0.00    +0.000 C 
ATOM      3  N   UNL     1       8.756  10.538  17.724  0.00  0.00    +0.000 N 
ATOM      4  H   UNL     1       8.220  10.739  16.892  0.00  0.00    +0.000 HD
ENDROOT
BRANCH   3   5
ATOM      5  C   UNL     1       9.629  11.556  18.190  0.00  0.00    +0.000 A 
ATOM      6  C   UNL     1      10.590  11.327  19.182  0.00  0.00    +0.000 A 
ATOM      7  C   UNL     1      11.472  12.338  19.577  0.00  0.00    +0.000 A 
ATOM      8  C   UNL     1      11.399  13.594  18.993  0.00  0.00    +0.000 A 
ATOM      9  C   UNL     1      10.445  13.838  18.005  0.00  0.00    +0.000 A 
ATOM     10  C   UNL     1       9.562  12.824  17.602  0.00  0.00    +0.000 A 
ATOM     11  N   UNL     1      10.397  15.091  17.386  0.00  0.00    +0.000 N 
ATOM     12  C   UNL     1      11.210  16.118  17.786  0.00  0.00    +0.000 C 
ATOM     13  O   UNL     1      11.212  17.199  17.200  0.00  0.00    +0.000 OA
ATOM     14  C   UNL     1      12.025  15.847  19.049  0.00  0.00    +0.000 C 
ATOM     15  O   UNL     1      12.333  14.506  19.396  0.00  0.00    +0.000 OA
ATOM     16  H   UNL     1       9.790  15.269  16.601  0.00  0.00    +0.000 HD
ENDBRANCH   3   5
BRANCH   2  17
ATOM     17  C   UNL     1       7.677   8.366  17.539  0.00  0.00    +0.000 C 
BRANCH  17  18
ATOM     18  C   UNL     1       7.888   6.928  18.013  0.00  0.00    +0.000 C 
BRANCH  18  19
ATOM     19  N   UNL     1       6.629   6.235  18.218  0.00  0.00    +0.000 N 
ATOM     20  C   UNL     1       6.317   5.088  17.518  0.00  0.00    +0.000 C 
ATOM     21  O   UNL     1       7.070   4.573  16.699  0.00  0.00    +0.000 OA
ATOM     22  H   UNL     1       6.052   6.521  18.996  0.00  0.00    +0.000 HD
BRANCH  20  23
ATOM     23  C   UNL     1       5.011   4.450  17.841  0.00  0.00    +0.000 A 
ATOM     24  C   UNL     1       4.501   3.386  17.092  0.00  0.00    +0.000 A 
ATOM     25  C   UNL     1       3.269   2.821  17.431  0.00  0.00    +0.000 A 
ATOM     26  C   UNL     1       2.535   3.302  18.526  0.00  0.00    +0.000 A 
ATOM     27  C   UNL     1       1.299   2.738  18.878  0.00  0.00    +0.000 A 
ATOM     28  C   UNL     1       0.581   3.221  19.973  0.00  0.00    +0.000 A 
ATOM     29  C   UNL     1       1.089   4.275  20.728  0.00  0.00    +0.000 A 
ATOM     30  C   UNL     1       2.317   4.845  20.393  0.00  0.00    +0.000 A 
ATOM     31  C   UNL     1       3.054   4.369  19.295  0.00  0.00    +0.000 A 
ATOM     32  C   UNL     1       4.294   4.928  18.945  0.00  0.00    +0.000 A 
ENDBRANCH  20  23
ENDBRANCH  18  19
ENDBRANCH  17  18
ENDBRANCH   2  17
TORSDOF 5
ENDMDL
MODEL 7
REMARK VINA RESULT:      -8.7      2.290      9.138
REMARK  Name = 
REMARK  5 active torsions:
REMARK  status: ('A' for Active; 'I' for Inactive)
REMARK    1  A    between atoms: C_2  and  C_3
REMARK    2  A    between atoms: C_3  and  C_4
REMARK    3  A    between atoms: C_4  and  N_5
REMARK    4  A    between atoms: C_6  and  C_8
REMARK    5  A    between atoms: N_18  and  C_19
REMARK                            x       y       z     vdW  Elec       q    Type
REMARK                         _______ _______ _______ _____ _____    ______ ____
ROOT
ATOM      1  O   UNL     1       1.726   4.772  18.520  0.00  0.00    +0.000 OA
ATOM      2  C   UNL     1       2.476   4.969  19.471  0.00  0.00    +0.000 C 
ATOM      3  N   UNL     1       2.800   6.216  19.996  0.00  0.00    +0.000 N 
ATOM      4  H   UNL     1       3.551   6.256  20.670  0.00  0.00    +0.000 HD
ENDROOT
BRANCH   3   5
ATOM      5  C   UNL     1       2.218   7.452  19.607  0.00  0.00    +0.000 A 
ATOM      6  C   UNL     1       2.331   7.962  18.309  0.00  0.00    +0.000 A 
ATOM      7  C   UNL     1       1.696   9.154  17.945  0.00  0.00    +0.000 A 
ATOM      8  C   UNL     1       0.948   9.858  18.877  0.00  0.00    +0.000 A 
ATOM      9  C   UNL     1       0.828   9.363  20.177  0.00  0.00    +0.000 A 
ATOM     10  C   UNL     1       1.460   8.164  20.543  0.00  0.00    +0.000 A 
ATOM     11  N   UNL     1       0.041  10.049  21.106  0.00  0.00    +0.000 N 
ATOM     12  C   UNL     1      -0.551  11.246  20.799  0.00  0.00    +0.000 C 
ATOM     13  O   UNL     1      -1.293  11.817  21.595  0.00  0.00    +0.000 OA
ATOM     14  C   UNL     1      -0.143  11.845  19.454  0.00  0.00    +0.000 C 
ATOM     15  O   UNL     1       0.316  10.982  18.426  0.00  0.00    +0.000 OA
ATOM     16  H   UNL     1      -0.150   9.669  22.021  0.00  0.00    +0.000 HD
ENDBRANCH   3   5
BRANCH   2  17
ATOM     17  C   UNL     1       3.136   3.817  20.199  0.00  0.00    +0.000 C 
BRANCH  17  18
ATOM     18  C   UNL     1       3.457   2.684  19.223  0.00  0.00    +0.000 C 
BRANCH  18  19
ATOM     19  N   UNL     1       4.158   3.165  18.047  0.00  0.00    +0.000 N 
ATOM     20  C   UNL     1       5.362   3.832  18.149  0.00  0.00    +0.000 C 
ATOM     21  O   UNL     1       5.923   4.049  19.216  0.00  0.00    +0.000 OA
ATOM     22  H   UNL     1       3.824   2.867  17.141  0.00  0.00    +0.000 HD
BRANCH  20  23
ATOM     23  C   UNL     1       5.999   4.245  16.868  0.00  0.00    +0.000 A 
ATOM     24  C   UNL     1       6.977   5.243  16.816  0.00  0.00    +0.000 A 
ATOM     25  C   UNL     1       7.545   5.600  15.591  0.00  0.00    +0.000 A 
ATOM     26  C   UNL     1       7.153   4.962  14.404  0.00  0.00    +0.000 A 
ATOM     27  C   UNL     1       7.722   5.310  13.169  0.00  0.00    +0.000 A 
ATOM     28  C   UNL     1       7.328   4.664  11.996  0.00  0.00    +0.000 A 
ATOM     29  C   UNL     1       6.362   3.663  12.043  0.00  0.00    +0.000 A 
ATOM     30  C   UNL     1       5.789   3.304  13.263  0.00  0.00    +0.000 A 
ATOM     31  C   UNL     1       6.175   3.943  14.453  0.00  0.00    +0.000 A 
ATOM     32  C   UNL     1       5.612   3.591  15.692  0.00  0.00    +0.000 A 
ENDBRANCH  20  23
ENDBRANCH  18  19
ENDBRANCH  17  18
ENDBRANCH   2  17
TORSDOF 5
ENDMDL
MODEL 8
REMARK VINA RESULT:      -8.6      2.885      8.300
REMARK  Name = 
REMARK  5 active torsions:
REMARK  status: ('A' for Active; 'I' for Inactive)
REMARK    1  A    between atoms: C_2  and  C_3
REMARK    2  A    between atoms: C_3  and  C_4
REMARK    3  A    between atoms: C_4  and  N_5
REMARK    4  A    between atoms: C_6  and  C_8
REMARK    5  A    between atoms: N_18  and  C_19
REMARK                            x       y       z     vdW  Elec       q    Type
REMARK                         _______ _______ _______ _____ _____    ______ ____
ROOT
ATOM      1  O   UNL     1       0.654   4.138  19.890  0.00  0.00    +0.000 OA
ATOM      2  C   UNL     1       1.483   4.308  20.780  0.00  0.00    +0.000 C 
ATOM      3  N   UNL     1       2.245   5.458  20.962  0.00  0.00    +0.000 N 
ATOM      4  H   UNL     1       3.004   5.412  21.628  0.00  0.00    +0.000 HD
ENDROOT
BRANCH   3   5
ATOM      5  C   UNL     1       2.099   6.668  20.235  0.00  0.00    +0.000 A 
ATOM      6  C   UNL     1       2.561   6.819  18.922  0.00  0.00    +0.000 A 
ATOM      7  C   UNL     1       2.350   8.007  18.215  0.00  0.00    +0.000 A 
ATOM      8  C   UNL     1       1.682   9.065  18.814  0.00  0.00    +0.000 A 
ATOM      9  C   UNL     1       1.218   8.931  20.124  0.00  0.00    +0.000 A 
ATOM     10  C   UNL     1       1.424   7.738  20.834  0.00  0.00    +0.000 A 
ATOM     11  N   UNL     1       0.509   9.981  20.715  0.00  0.00    +0.000 N 
ATOM     12  C   UNL     1       0.330  11.176  20.070  0.00  0.00    +0.000 C 
ATOM     13  O   UNL     1      -0.346  12.076  20.564  0.00  0.00    +0.000 OA
ATOM     14  C   UNL     1       1.103  11.330  18.762  0.00  0.00    +0.000 C 
ATOM     15  O   UNL     1       1.469  10.167  18.036  0.00  0.00    +0.000 OA
ATOM     16  H   UNL     1       0.073   9.881  21.619  0.00  0.00    +0.000 HD
ENDBRANCH   3   5
BRANCH   2  17
ATOM     17  C   UNL     1       1.750   3.235  21.815  0.00  0.00    +0.000 C 
BRANCH  17  18
ATOM     18  C   UNL     1       2.826   2.270  21.316  0.00  0.00    +0.000 C 
BRANCH  18  19
ATOM     19  N   UNL     1       3.735   2.908  20.381  0.00  0.00    +0.000 N 
ATOM     20  C   UNL     1       3.644   2.685  19.023  0.00  0.00    +0.000 C 
ATOM     21  O   UNL     1       2.798   1.958  18.515  0.00  0.00    +0.000 OA
ATOM     22  H   UNL     1       4.338   3.640  20.731  0.00  0.00    +0.000 HD
BRANCH  20  23
ATOM     23  C   UNL     1       4.611   3.423  18.164  0.00  0.00    +0.000 A 
ATOM     24  C   UNL     1       5.536   4.325  18.698  0.00  0.00    +0.000 A 
ATOM     25  C   UNL     1       6.422   4.998  17.854  0.00  0.00    +0.000 A 
ATOM     26  C   UNL     1       6.405   4.773  16.469  0.00  0.00    +0.000 A 
ATOM     27  C   UNL     1       7.295   5.440  15.613  0.00  0.00    +0.000 A 
ATOM     28  C   UNL     1       7.272   5.204  14.237  0.00  0.00    +0.000 A 
ATOM     29  C   UNL     1       6.359   4.300  13.701  0.00  0.00    +0.000 A 
ATOM     30  C   UNL     1       5.469   3.627  14.539  0.00  0.00    +0.000 A 
ATOM     31  C   UNL     1       5.480   3.852  15.926  0.00  0.00    +0.000 A 
ATOM     32  C   UNL     1       4.595   3.180  16.785  0.00  0.00    +0.000 A 
ENDBRANCH  20  23
ENDBRANCH  18  19
ENDBRANCH  17  18
ENDBRANCH   2  17
TORSDOF 5
ENDMDL
MODEL 9
REMARK VINA RESULT:      -8.6      2.405      8.980
REMARK  Name = 
REMARK  5 active torsions:
REMARK  status: ('A' for Active; 'I' for Inactive)
REMARK    1  A    between atoms: C_2  and  C_3
REMARK    2  A    between atoms: C_3  and  C_4
REMARK    3  A    between atoms: C_4  and  N_5
REMARK    4  A    between atoms: C_6  and  C_8
REMARK    5  A    between atoms: N_18  and  C_19
REMARK                            x       y       z     vdW  Elec       q    Type
REMARK                         _______ _______ _______ _____ _____    ______ ____
ROOT
ATOM      1  O   UNL     1       2.070   4.400  21.410  0.00  0.00    +0.000 OA
ATOM      2  C   UNL     1       2.376   4.160  20.246  0.00  0.00    +0.000 C 
ATOM      3  N   UNL     1       2.343   5.076  19.200  0.00  0.00    +0.000 N 
ATOM      4  H   UNL     1       2.461   4.716  18.263  0.00  0.00    +0.000 HD
ENDROOT
BRANCH   3   5
ATOM      5  C   UNL     1       2.081   6.465  19.327  0.00  0.00    +0.000 A 
ATOM      6  C   UNL     1       2.259   7.365  18.269  0.00  0.00    +0.000 A 
ATOM      7  C   UNL     1       1.936   8.718  18.412  0.00  0.00    +0.000 A 
ATOM      8  C   UNL     1       1.441   9.193  19.617  0.00  0.00    +0.000 A 
ATOM      9  C   UNL     1       1.260   8.309  20.682  0.00  0.00    +0.000 A 
ATOM     10  C   UNL     1       1.578   6.949  20.540  0.00  0.00    +0.000 A 
ATOM     11  N   UNL     1       0.722   8.778  21.884  0.00  0.00    +0.000 N 
ATOM     12  C   UNL     1       0.444  10.105  22.075  0.00  0.00    +0.000 C 
ATOM     13  O   UNL     1      -0.087  10.507  23.108  0.00  0.00    +0.000 OA
ATOM     14  C   UNL     1       0.928  11.035  20.963  0.00  0.00    +0.000 C 
ATOM     15  O   UNL     1       1.099  10.515  19.655  0.00  0.00    +0.000 OA
ATOM     16  H   UNL     1       0.484   8.150  22.637  0.00  0.00    +0.000 HD
ENDBRANCH   3   5
BRANCH   2  17
ATOM     17  C   UNL     1       2.851   2.783  19.831  0.00  0.00    +0.000 C 
BRANCH  17  18
ATOM     18  C   UNL     1       4.379   2.724  19.831  0.00  0.00    +0.000 C 
BRANCH  18  19
ATOM     19  N   UNL     1       4.935   3.074  18.536  0.00  0.00    +0.000 N 
ATOM     20  C   UNL     1       5.465   4.325  18.296  0.00  0.00    +0.000 C 
ATOM     21  O   UNL     1       5.518   5.208  19.143  0.00  0.00    +0.000 OA
ATOM     22  H   UNL     1       5.067   2.334  17.861  0.00  0.00    +0.000 HD
BRANCH  20  23
ATOM     23  C   UNL     1       6.036   4.552  16.939  0.00  0.00    +0.000 A 
ATOM     24  C   UNL     1       7.061   5.475  16.712  0.00  0.00    +0.000 A 
ATOM     25  C   UNL     1       7.563   5.656  15.422  0.00  0.00    +0.000 A 
ATOM     26  C   UNL     1       7.058   4.915  14.343  0.00  0.00    +0.000 A 
ATOM     27  C   UNL     1       7.559   5.086  13.043  0.00  0.00    +0.000 A 
ATOM     28  C   UNL     1       7.051   4.338  11.980  0.00  0.00    +0.000 A 
ATOM     29  C   UNL     1       6.037   3.411  12.202  0.00  0.00    +0.000 A 
ATOM     30  C   UNL     1       5.529   3.227  13.488  0.00  0.00    +0.000 A 
ATOM     31  C   UNL     1       6.030   3.971  14.570  0.00  0.00    +0.000 A 
ATOM     32  C   UNL     1       5.534   3.796  15.873  0.00  0.00    +0.000 A 
ENDBRANCH  20  23
ENDBRANCH  18  19
ENDBRANCH  17  18
ENDBRANCH   2  17
TORSDOF 5
ENDMDL
