MODEL 1
REMARK VINA RESULT:      -9.0      0.000      0.000
REMARK  Name = 
REMARK  8 active torsions:
REMARK  status: ('A' for Active; 'I' for Inactive)
REMARK    1  A    between atoms: C_1  and  C_2
REMARK    2  A    between atoms: C_2  and  C_3
REMARK    3  A    between atoms: C_2  and  C_10
REMARK    4  A    between atoms: C_3  and  C_4
REMARK    5  A    between atoms: N_8  and  C_9
REMARK    6  A    between atoms: C_14  and  N_15
REMARK    7  A    between atoms: C_16  and  C_18
REMARK    8  A    between atoms: C_20  and  C_21
REMARK                            x       y       z     vdW  Elec       q    Type
REMARK                         _______ _______ _______ _____ _____    ______ ____
ROOT
ATOM      1  C   UNL     1       4.518   4.927  17.153  0.00  0.00    +0.000 A 
ATOM      2  C   UNL     1       3.798   3.728  17.038  0.00  0.00    +0.000 A 
ATOM      3  C   UNL     1       2.466   3.658  17.439  0.00  0.00    +0.000 A 
ATOM      4  C   UNL     1       1.843   4.776  17.991  0.00  0.00    +0.000 A 
ATOM      5  C   UNL     1       2.540   5.972  18.156  0.00  0.00    +0.000 A 
ATOM      6  C   UNL     1       3.868   6.049  17.708  0.00  0.00    +0.000 A 
ENDROOT
BRANCH   5   7
ATOM      7  N   UNL     1       1.976   7.107  18.779  0.00  0.00    +0.000 N 
ATOM      8  C   UNL     1       1.957   8.395  18.265  0.00  0.00    +0.000 C 
ATOM      9  O   UNL     1       2.448   8.770  17.205  0.00  0.00    +0.000 OA
ATOM     10  H   UNL     1       1.426   6.970  19.624  0.00  0.00    +0.000 HD
BRANCH   8  11
ATOM     11  C   UNL     1       1.193   9.388  19.089  0.00  0.00    +0.000 A 
ATOM     12  C   UNL     1       0.987   9.123  20.443  0.00  0.00    +0.000 A 
ATOM     13  C   UNL     1       0.310  10.064  21.221  0.00  0.00    +0.000 A 
ATOM     14  C   UNL     1      -0.132  11.235  20.603  0.00  0.00    +0.000 A 
ATOM     15  C   UNL     1       0.123  11.402  19.249  0.00  0.00    +0.000 A 
ATOM     16 CL   UNL     1      -0.390  12.822  18.435  0.00  0.00    +0.000 Cl
ATOM     17  N   UNL     1       0.780  10.519  18.469  0.00  0.00    +0.000 NA
BRANCH  13  18
ATOM     18  C   UNL     1       0.110   9.839  22.697  0.00  0.00    +0.000 C 
ATOM     19  F   UNL     1      -0.978   9.066  22.965  0.00  0.00    +0.000 F 
ATOM     20  F   UNL     1       1.166   9.212  23.283  0.00  0.00    +0.000 F 
ENDBRANCH  13  18
ENDBRANCH   8  11
ENDBRANCH   5   7
BRANCH   1  22
ATOM     21  C   UNL     1       6.962   4.666  17.857  0.00  0.00    +0.000 C 
ATOM     22  C   UNL     1       5.980   4.935  16.709  0.00  0.00    +0.000 C 
BRANCH  22  23
ATOM     23  C   UNL     1       6.181   3.956  15.529  0.00  0.00    +0.000 C 
BRANCH  23  24
ATOM     24  C   UNL     1       6.919   4.582  14.392  0.00  0.00    +0.000 A 
ATOM     25  N   UNL     1       7.846   5.515  14.485  0.00  0.00    +0.000 NA
ATOM     26  N   UNL     1       8.318   5.785  13.221  0.00  0.00    +0.000 NA
ATOM     27  C   UNL     1       7.661   5.017  12.383  0.00  0.00    +0.000 A 
ATOM     28  N   UNL     1       6.764   4.258  13.069  0.00  0.00    +0.000 N 
ATOM     29  C   UNL     1       5.848   3.310  12.498  0.00  0.00    +0.000 C 
ENDBRANCH  23  24
ENDBRANCH  22  23
ENDBRANCH   1  22
TORSDOF 6
ENDMDL
MODEL 2
REMARK VINA RESULT:      -8.7      2.120      2.454
REMARK  Name = 
REMARK  8 active torsions:
REMARK  status: ('A' for Active; 'I' for Inactive)
REMARK    1  A    between atoms: C_1  and  C_2
REMARK    2  A    between atoms: C_2  and  C_3
REMARK    3  A    between atoms: C_2  and  C_10
REMARK    4  A    between atoms: C_3  and  C_4
REMARK    5  A    between atoms: N_8  and  C_9
REMARK    6  A    between atoms: C_14  and  N_15
REMARK    7  A    between atoms: C_16  and  C_18
REMARK    8  A    between atoms: C_20  and  C_21
REMARK                            x       y       z     vdW  Elec       q    Type
REMARK                         _______ _______ _______ _____ _____    ______ ____
ROOT
ATOM      1  C   UNL     1       4.736   5.403  17.105  0.00  0.00    +0.000 A 
ATOM      2  C   UNL     1       4.084   4.164  17.000  0.00  0.00    +0.000 A 
ATOM      3  C   UNL     1       2.787   4.001  17.478  0.00  0.00    +0.000 A 
ATOM      4  C   UNL     1       2.132   5.063  18.099  0.00  0.00    +0.000 A 
ATOM      5  C   UNL     1       2.764   6.297  18.256  0.00  0.00    +0.000 A 
ATOM      6  C   UNL     1       4.055   6.468  17.729  0.00  0.00    +0.000 A 
ENDROOT
BRANCH   5   7
ATOM      7  N   UNL     1       2.172   7.379  18.944  0.00  0.00    +0.000 N 
ATOM      8  C   UNL     1       1.877   8.623  18.408  0.00  0.00    +0.000 C 
ATOM      9  O   UNL     1       2.104   9.003  17.264  0.00  0.00    +0.000 OA
ATOM     10  H   UNL     1       1.813   7.215  19.882  0.00  0.00    +0.000 HD
BRANCH   8  11
ATOM     11  C   UNL     1       1.147   9.548  19.336  0.00  0.00    +0.000 A 
ATOM     12  C   UNL     1       0.594  10.720  18.820  0.00  0.00    +0.000 A 
ATOM     13  C   UNL     1      -0.121  11.564  19.674  0.00  0.00    +0.000 A 
ATOM     14  C   UNL     1      -0.249  11.191  21.013  0.00  0.00    +0.000 A 
ATOM     15  C   UNL     1       0.339  10.005  21.426  0.00  0.00    +0.000 A 
ATOM     16 CL   UNL     1       0.211   9.490  23.057  0.00  0.00    +0.000 Cl
ATOM     17  N   UNL     1       1.029   9.162  20.629  0.00  0.00    +0.000 NA
BRANCH  13  18
ATOM     18  C   UNL     1      -0.775  12.814  19.147  0.00  0.00    +0.000 C 
ATOM     19  F   UNL     1       0.040  13.902  19.221  0.00  0.00    +0.000 F 
ATOM     20  F   UNL     1      -1.137  12.710  17.839  0.00  0.00    +0.000 F 
ENDBRANCH  13  18
ENDBRANCH   8  11
ENDBRANCH   5   7
BRANCH   1  22
ATOM     21  C   UNL     1       7.211   5.681  17.682  0.00  0.00    +0.000 C 
ATOM     22  C   UNL     1       6.164   5.514  16.572  0.00  0.00    +0.000 C 
BRANCH  22  23
ATOM     23  C   UNL     1       6.480   4.315  15.649  0.00  0.00    +0.000 C 
BRANCH  23  24
ATOM     24  C   UNL     1       7.054   4.744  14.339  0.00  0.00    +0.000 A 
ATOM     25  N   UNL     1       8.046   5.595  14.165  0.00  0.00    +0.000 NA
ATOM     26  N   UNL     1       8.312   5.681  12.817  0.00  0.00    +0.000 NA
ATOM     27  C   UNL     1       7.469   4.887  12.198  0.00  0.00    +0.000 A 
ATOM     28  N   UNL     1       6.652   4.291  13.109  0.00  0.00    +0.000 N 
ATOM     29  C   UNL     1       5.588   3.372  12.815  0.00  0.00    +0.000 C 
ENDBRANCH  23  24
ENDBRANCH  22  23
ENDBRANCH   1  22
TORSDOF 6
ENDMDL
MODEL 3
REMARK VINA RESULT:      -8.6      1.304      1.363
REMARK  Name = 
REMARK  8 active torsions:
REMARK  status: ('A' for Active; 'I' for Inactive)
REMARK    1  A    between atoms: C_1  and  C_2
REMARK    2  A    between atoms: C_2  and  C_3
REMARK    3  A    between atoms: C_2  and  C_10
REMARK    4  A    between atoms: C_3  and  C_4
REMARK    5  A    between atoms: N_8  and  C_9
REMARK    6  A    between atoms: C_14  and  N_15
REMARK    7  A    between atoms: C_16  and  C_18
REMARK    8  A    between atoms: C_20  and  C_21
REMARK                            x       y       z     vdW  Elec       q    Type
REMARK                         _______ _______ _______ _____ _____    ______ ____
ROOT
ATOM      1  C   UNL     1       4.803   4.769  16.999  0.00  0.00    +0.000 A 
ATOM      2  C   UNL     1       4.223   3.499  17.145  0.00  0.00    +0.000 A 
ATOM      3  C   UNL     1       2.959   3.356  17.711  0.00  0.00    +0.000 A 
ATOM      4  C   UNL     1       2.269   4.476  18.171  0.00  0.00    +0.000 A 
ATOM      5  C   UNL     1       2.832   5.749  18.079  0.00  0.00    +0.000 A 
ATOM      6  C   UNL     1       4.087   5.891  17.465  0.00  0.00    +0.000 A 
ENDROOT
BRANCH   5   7
ATOM      7  N   UNL     1       2.206   6.903  18.600  0.00  0.00    +0.000 N 
ATOM      8  C   UNL     1       1.743   7.064  19.897  0.00  0.00    +0.000 C 
ATOM      9  O   UNL     1       1.771   6.230  20.797  0.00  0.00    +0.000 OA
ATOM     10  H   UNL     1       2.190   7.743  18.027  0.00  0.00    +0.000 HD
BRANCH   8  11
ATOM     11  C   UNL     1       1.220   8.434  20.210  0.00  0.00    +0.000 A 
ATOM     12  C   UNL     1       0.506   8.628  21.393  0.00  0.00    +0.000 A 
ATOM     13  C   UNL     1       0.053   9.911  21.707  0.00  0.00    +0.000 A 
ATOM     14  C   UNL     1       0.337  10.947  20.815  0.00  0.00    +0.000 A 
ATOM     15  C   UNL     1       1.054  10.649  19.666  0.00  0.00    +0.000 A 
ATOM     16 CL   UNL     1       1.440  11.879  18.535  0.00  0.00    +0.000 Cl
ATOM     17  N   UNL     1       1.515   9.424  19.335  0.00  0.00    +0.000 NA
BRANCH  13  18
ATOM     18  C   UNL     1      -0.680  10.173  22.997  0.00  0.00    +0.000 C 
ATOM     19  F   UNL     1      -0.089   9.570  24.066  0.00  0.00    +0.000 F 
ATOM     20  F   UNL     1      -0.748  11.496  23.306  0.00  0.00    +0.000 F 
ENDBRANCH  13  18
ENDBRANCH   8  11
ENDBRANCH   5   7
BRANCH   1  22
ATOM     21  C   UNL     1       7.324   4.649  17.403  0.00  0.00    +0.000 C 
ATOM     22  C   UNL     1       6.198   4.857  16.382  0.00  0.00    +0.000 C 
BRANCH  22  23
ATOM     23  C   UNL     1       6.310   3.886  15.185  0.00  0.00    +0.000 C 
BRANCH  23  24
ATOM     24  C   UNL     1       6.961   4.519  14.000  0.00  0.00    +0.000 A 
ATOM     25  N   UNL     1       7.839   5.503  14.026  0.00  0.00    +0.000 NA
ATOM     26  N   UNL     1       8.238   5.763  12.734  0.00  0.00    +0.000 NA
ATOM     27  C   UNL     1       7.586   4.939  11.948  0.00  0.00    +0.000 A 
ATOM     28  N   UNL     1       6.763   4.152  12.694  0.00  0.00    +0.000 N 
ATOM     29  C   UNL     1       5.875   3.142  12.189  0.00  0.00    +0.000 C 
ENDBRANCH  23  24
ENDBRANCH  22  23
ENDBRANCH   1  22
TORSDOF 6
ENDMDL
MODEL 4
REMARK VINA RESULT:      -8.4      2.208      2.466
REMARK  Name = 
REMARK  8 active torsions:
REMARK  status: ('A' for Active; 'I' for Inactive)
REMARK    1  A    between atoms: C_1  and  C_2
REMARK    2  A    between atoms: C_2  and  C_3
REMARK    3  A    between atoms: C_2  and  C_10
REMARK    4  A    between atoms: C_3  and  C_4
REMARK    5  A    between atoms: N_8  and  C_9
REMARK    6  A    between atoms: C_14  and  N_15
REMARK    7  A    between atoms: C_16  and  C_18
REMARK    8  A    between atoms: C_20  and  C_21
REMARK                            x       y       z     vdW  Elec       q    Type
REMARK                         _______ _______ _______ _____ _____    ______ ____
ROOT
ATOM      1  C   UNL     1       4.641   4.829  17.033  0.00  0.00    +0.000 A 
ATOM      2  C   UNL     1       3.960   3.602  17.012  0.00  0.00    +0.000 A 
ATOM      3  C   UNL     1       2.649   3.510  17.470  0.00  0.00    +0.000 A 
ATOM      4  C   UNL     1       2.008   4.634  17.988  0.00  0.00    +0.000 A 
ATOM      5  C   UNL     1       2.669   5.861  18.060  0.00  0.00    +0.000 A 
ATOM      6  C   UNL     1       3.975   5.957  17.553  0.00  0.00    +0.000 A 
ENDROOT
BRANCH   5   7
ATOM      7  N   UNL     1       2.090   7.009  18.645  0.00  0.00    +0.000 N 
ATOM      8  C   UNL     1       1.720   7.148  19.974  0.00  0.00    +0.000 C 
ATOM      9  O   UNL     1       1.805   6.297  20.854  0.00  0.00    +0.000 OA
ATOM     10  H   UNL     1       2.040   7.860  18.090  0.00  0.00    +0.000 HD
BRANCH   8  11
ATOM     11  C   UNL     1       1.231   8.515  20.349  0.00  0.00    +0.000 A 
ATOM     12  C   UNL     1       1.405   9.563  19.445  0.00  0.00    +0.000 A 
ATOM     13  C   UNL     1       0.914  10.829  19.774  0.00  0.00    +0.000 A 
ATOM     14  C   UNL     1       0.270  10.987  21.002  0.00  0.00    +0.000 A 
ATOM     15  C   UNL     1       0.149   9.881  21.830  0.00  0.00    +0.000 A 
ATOM     16 CL   UNL     1      -0.639  10.010  23.348  0.00  0.00    +0.000 Cl
ATOM     17  N   UNL     1       0.602   8.643  21.541  0.00  0.00    +0.000 NA
BRANCH  13  18
ATOM     18  C   UNL     1       1.039  11.976  18.805  0.00  0.00    +0.000 C 
ATOM     19  F   UNL     1      -0.050  12.793  18.819  0.00  0.00    +0.000 F 
ATOM     20  F   UNL     1       2.107  12.775  19.068  0.00  0.00    +0.000 F 
ENDBRANCH  13  18
ENDBRANCH   8  11
ENDBRANCH   5   7
BRANCH   1  22
ATOM     21  C   UNL     1       7.115   4.588  17.631  0.00  0.00    +0.000 C 
ATOM     22  C   UNL     1       6.083   4.861  16.528  0.00  0.00    +0.000 C 
BRANCH  22  23
ATOM     23  C   UNL     1       6.246   3.902  15.327  0.00  0.00    +0.000 C 
BRANCH  23  24
ATOM     24  C   UNL     1       6.947   4.547  14.177  0.00  0.00    +0.000 A 
ATOM     25  N   UNL     1       7.857   5.498  14.253  0.00  0.00    +0.000 NA
ATOM     26  N   UNL     1       8.295   5.782  12.980  0.00  0.00    +0.000 NA
ATOM     27  C   UNL     1       7.636   5.004  12.154  0.00  0.00    +0.000 A 
ATOM     28  N   UNL     1       6.768   4.224  12.857  0.00  0.00    +0.000 N 
ATOM     29  C   UNL     1       5.859   3.261  12.301  0.00  0.00    +0.000 C 
ENDBRANCH  23  24
ENDBRANCH  22  23
ENDBRANCH   1  22
TORSDOF 6
ENDMDL
MODEL 5
REMARK VINA RESULT:      -8.2      4.304      9.312
REMARK  Name = 
REMARK  8 active torsions:
REMARK  status: ('A' for Active; 'I' for Inactive)
REMARK    1  A    between atoms: C_1  and  C_2
REMARK    2  A    between atoms: C_2  and  C_3
REMARK    3  A    between atoms: C_2  and  C_10
REMARK    4  A    between atoms: C_3  and  C_4
REMARK    5  A    between atoms: N_8  and  C_9
REMARK    6  A    between atoms: C_14  and  N_15
REMARK    7  A    between atoms: C_16  and  C_18
REMARK    8  A    between atoms: C_20  and  C_21
REMARK                            x       y       z     vdW  Elec       q    Type
REMARK                         _______ _______ _______ _____ _____    ______ ____
ROOT
ATOM      1  C   UNL     1      -0.105  10.374  20.120  0.00  0.00    +0.000 A 
ATOM      2  C   UNL     1      -0.108  10.394  21.524  0.00  0.00    +0.000 A 
ATOM      3  C   UNL     1       0.655   9.483  22.248  0.00  0.00    +0.000 A 
ATOM      4  C   UNL     1       1.407   8.516  21.584  0.00  0.00    +0.000 A 
ATOM      5  C   UNL     1       1.402   8.442  20.191  0.00  0.00    +0.000 A 
ATOM      6  C   UNL     1       0.668   9.393  19.465  0.00  0.00    +0.000 A 
ENDROOT
BRANCH   5   7
ATOM      7  N   UNL     1       2.086   7.434  19.476  0.00  0.00    +0.000 N 
ATOM      8  C   UNL     1       2.651   7.568  18.216  0.00  0.00    +0.000 C 
ATOM      9  O   UNL     1       2.628   8.566  17.503  0.00  0.00    +0.000 OA
ATOM     10  H   UNL     1       2.299   6.562  19.955  0.00  0.00    +0.000 HD
BRANCH   8  11
ATOM     11  C   UNL     1       3.414   6.369  17.741  0.00  0.00    +0.000 A 
ATOM     12  C   UNL     1       4.732   6.535  17.315  0.00  0.00    +0.000 A 
ATOM     13  C   UNL     1       5.459   5.413  16.910  0.00  0.00    +0.000 A 
ATOM     14  C   UNL     1       4.827   4.169  16.949  0.00  0.00    +0.000 A 
ATOM     15  C   UNL     1       3.513   4.111  17.389  0.00  0.00    +0.000 A 
ATOM     16 CL   UNL     1       2.685   2.611  17.467  0.00  0.00    +0.000 Cl
ATOM     17  N   UNL     1       2.784   5.171  17.796  0.00  0.00    +0.000 NA
BRANCH  13  18
ATOM     18  C   UNL     1       6.900   5.543  16.489  0.00  0.00    +0.000 C 
ATOM     19  F   UNL     1       7.529   6.589  17.091  0.00  0.00    +0.000 F 
ATOM     20  F   UNL     1       7.639   4.441  16.790  0.00  0.00    +0.000 F 
ENDBRANCH  13  18
ENDBRANCH   8  11
ENDBRANCH   5   7
BRANCH   1  22
ATOM     21  C   UNL     1      -0.277  12.744  19.179  0.00  0.00    +0.000 C 
ATOM     22  C   UNL     1      -0.974  11.392  19.383  0.00  0.00    +0.000 C 
BRANCH  22  23
ATOM     23  C   UNL     1      -1.480  10.791  18.051  0.00  0.00    +0.000 C 
BRANCH  23  24
ATOM     24  C   UNL     1      -2.891  11.181  17.754  0.00  0.00    +0.000 A 
ATOM     25  N   UNL     1      -3.759  11.679  18.613  0.00  0.00    +0.000 NA
ATOM     26  N   UNL     1      -4.926  11.956  17.939  0.00  0.00    +0.000 NA
ATOM     27  C   UNL     1      -4.748  11.610  16.686  0.00  0.00    +0.000 A 
ATOM     28  N   UNL     1      -3.494  11.105  16.525  0.00  0.00    +0.000 N 
ATOM     29  C   UNL     1      -2.936  10.602  15.301  0.00  0.00    +0.000 C 
ENDBRANCH  23  24
ENDBRANCH  22  23
ENDBRANCH   1  22
TORSDOF 6
ENDMDL
MODEL 6
REMARK VINA RESULT:      -8.1      2.245      2.558
REMARK  Name = 
REMARK  8 active torsions:
REMARK  status: ('A' for Active; 'I' for Inactive)
REMARK    1  A    between atoms: C_1  and  C_2
REMARK    2  A    between atoms: C_2  and  C_3
REMARK    3  A    between atoms: C_2  and  C_10
REMARK    4  A    between atoms: C_3  and  C_4
REMARK    5  A    between atoms: N_8  and  C_9
REMARK    6  A    between atoms: C_14  and  N_15
REMARK    7  A    between atoms: C_16  and  C_18
REMARK    8  A    between atoms: C_20  and  C_21
REMARK                            x       y       z     vdW  Elec       q    Type
REMARK                         _______ _______ _______ _____ _____    ______ ____
ROOT
ATOM      1  C   UNL     1       4.483   5.189  17.279  0.00  0.00    +0.000 A 
ATOM      2  C   UNL     1       3.594   4.102  17.239  0.00  0.00    +0.000 A 
ATOM      3  C   UNL     1       2.288   4.236  17.703  0.00  0.00    +0.000 A 
ATOM      4  C   UNL     1       1.859   5.446  18.244  0.00  0.00    +0.000 A 
ATOM      5  C   UNL     1       2.727   6.535  18.336  0.00  0.00    +0.000 A 
ATOM      6  C   UNL     1       4.028   6.407  17.824  0.00  0.00    +0.000 A 
ENDROOT
BRANCH   5   7
ATOM      7  N   UNL     1       2.362   7.756  18.945  0.00  0.00    +0.000 N 
ATOM      8  C   UNL     1       1.551   8.734  18.389  0.00  0.00    +0.000 C 
ATOM      9  O   UNL     1       1.040   8.718  17.274  0.00  0.00    +0.000 OA
ATOM     10  H   UNL     1       2.606   7.899  19.922  0.00  0.00    +0.000 HD
BRANCH   8  11
ATOM     11  C   UNL     1       1.237   9.881  19.303  0.00  0.00    +0.000 A 
ATOM     12  C   UNL     1       1.526  11.178  18.878  0.00  0.00    +0.000 A 
ATOM     13  C   UNL     1       1.198  12.251  19.710  0.00  0.00    +0.000 A 
ATOM     14  C   UNL     1       0.592  11.972  20.937  0.00  0.00    +0.000 A 
ATOM     15  C   UNL     1       0.348  10.647  21.265  0.00  0.00    +0.000 A 
ATOM     16 CL   UNL     1      -0.401  10.242  22.755  0.00  0.00    +0.000 Cl
ATOM     17  N   UNL     1       0.642   9.587  20.484  0.00  0.00    +0.000 NA
BRANCH  13  18
ATOM     18  C   UNL     1       1.450  13.669  19.269  0.00  0.00    +0.000 C 
ATOM     19  F   UNL     1       1.911  13.745  17.990  0.00  0.00    +0.000 F 
ATOM     20  F   UNL     1       0.330  14.440  19.307  0.00  0.00    +0.000 F 
ENDBRANCH  13  18
ENDBRANCH   8  11
ENDBRANCH   5   7
BRANCH   1  22
ATOM     21  C   UNL     1       6.863   4.448  17.846  0.00  0.00    +0.000 C 
ATOM     22  C   UNL     1       5.906   4.974  16.767  0.00  0.00    +0.000 C 
BRANCH  22  23
ATOM     23  C   UNL     1       5.888   4.070  15.513  0.00  0.00    +0.000 C 
BRANCH  23  24
ATOM     24  C   UNL     1       6.722   4.622  14.404  0.00  0.00    +0.000 A 
ATOM     25  N   UNL     1       7.690   5.509  14.525  0.00  0.00    +0.000 NA
ATOM     26  N   UNL     1       8.247   5.715  13.283  0.00  0.00    +0.000 NA
ATOM     27  C   UNL     1       7.599   4.956  12.431  0.00  0.00    +0.000 A 
ATOM     28  N   UNL     1       6.625   4.265  13.084  0.00  0.00    +0.000 N 
ATOM     29  C   UNL     1       5.694   3.349  12.487  0.00  0.00    +0.000 C 
ENDBRANCH  23  24
ENDBRANCH  22  23
ENDBRANCH   1  22
TORSDOF 6
ENDMDL
MODEL 7
REMARK VINA RESULT:      -8.1      2.681      3.690
REMARK  Name = 
REMARK  8 active torsions:
REMARK  status: ('A' for Active; 'I' for Inactive)
REMARK    1  A    between atoms: C_1  and  C_2
REMARK    2  A    between atoms: C_2  and  C_3
REMARK    3  A    between atoms: C_2  and  C_10
REMARK    4  A    between atoms: C_3  and  C_4
REMARK    5  A    between atoms: N_8  and  C_9
REMARK    6  A    between atoms: C_14  and  N_15
REMARK    7  A    between atoms: C_16  and  C_18
REMARK    8  A    between atoms: C_20  and  C_21
REMARK                            x       y       z     vdW  Elec       q    Type
REMARK                         _______ _______ _______ _____ _____    ______ ____
ROOT
ATOM      1  C   UNL     1       4.314   4.528  16.809  0.00  0.00    +0.000 A 
ATOM      2  C   UNL     1       3.567   3.343  16.899  0.00  0.00    +0.000 A 
ATOM      3  C   UNL     1       2.341   3.325  17.557  0.00  0.00    +0.000 A 
ATOM      4  C   UNL     1       1.856   4.481  18.164  0.00  0.00    +0.000 A 
ATOM      5  C   UNL     1       2.590   5.667  18.129  0.00  0.00    +0.000 A 
ATOM      6  C   UNL     1       3.804   5.690  17.424  0.00  0.00    +0.000 A 
ENDROOT
BRANCH   5   7
ATOM      7  N   UNL     1       2.178   6.843  18.794  0.00  0.00    +0.000 N 
ATOM      8  C   UNL     1       2.165   8.121  18.256  0.00  0.00    +0.000 C 
ATOM      9  O   UNL     1       2.532   8.450  17.132  0.00  0.00    +0.000 OA
ATOM     10  H   UNL     1       1.738   6.752  19.706  0.00  0.00    +0.000 HD
BRANCH   8  11
ATOM     11  C   UNL     1       1.573   9.170  19.148  0.00  0.00    +0.000 A 
ATOM     12  C   UNL     1       1.242  10.411  18.602  0.00  0.00    +0.000 A 
ATOM     13  C   UNL     1       0.653  11.376  19.422  0.00  0.00    +0.000 A 
ATOM     14  C   UNL     1       0.422  11.052  20.761  0.00  0.00    +0.000 A 
ATOM     15  C   UNL     1       0.789   9.790  21.206  0.00  0.00    +0.000 A 
ATOM     16 CL   UNL     1       0.525   9.330  22.837  0.00  0.00    +0.000 Cl
ATOM     17  N   UNL     1       1.351   8.831  20.441  0.00  0.00    +0.000 NA
BRANCH  13  18
ATOM     18  C   UNL     1       0.236  12.710  18.861  0.00  0.00    +0.000 C 
ATOM     19  F   UNL     1      -0.257  13.548  19.813  0.00  0.00    +0.000 F 
ATOM     20  F   UNL     1       1.264  13.379  18.272  0.00  0.00    +0.000 F 
ENDBRANCH  13  18
ENDBRANCH   8  11
ENDBRANCH   5   7
BRANCH   1  22
ATOM     21  C   UNL     1       5.528   4.142  14.593  0.00  0.00    +0.000 C 
ATOM     22  C   UNL     1       5.658   4.479  16.084  0.00  0.00    +0.000 C 
BRANCH  22  23
ATOM     23  C   UNL     1       6.435   5.796  16.318  0.00  0.00    +0.000 C 
BRANCH  23  24
ATOM     24  C   UNL     1       7.145   5.810  17.631  0.00  0.00    +0.000 A 
ATOM     25  N   UNL     1       7.333   4.775  18.426  0.00  0.00    +0.000 NA
ATOM     26  N   UNL     1       8.076   5.188  19.508  0.00  0.00    +0.000 NA
ATOM     27  C   UNL     1       8.316   6.469  19.354  0.00  0.00    +0.000 A 
ATOM     28  N   UNL     1       7.740   6.906  18.201  0.00  0.00    +0.000 N 
ATOM     29  C   UNL     1       7.765   8.252  17.701  0.00  0.00    +0.000 C 
ENDBRANCH  23  24
ENDBRANCH  22  23
ENDBRANCH   1  22
TORSDOF 6
ENDMDL
MODEL 8
REMARK VINA RESULT:      -8.1      4.914      9.405
REMARK  Name = 
REMARK  8 active torsions:
REMARK  status: ('A' for Active; 'I' for Inactive)
REMARK    1  A    between atoms: C_1  and  C_2
REMARK    2  A    between atoms: C_2  and  C_3
REMARK    3  A    between atoms: C_2  and  C_10
REMARK    4  A    between atoms: C_3  and  C_4
REMARK    5  A    between atoms: N_8  and  C_9
REMARK    6  A    between atoms: C_14  and  N_15
REMARK    7  A    between atoms: C_16  and  C_18
REMARK    8  A    between atoms: C_20  and  C_21
REMARK                            x       y       z     vdW  Elec       q    Type
REMARK                         _______ _______ _______ _____ _____    ______ ____
ROOT
ATOM      1  C   UNL     1       2.452   6.780  19.172  0.00  0.00    +0.000 A 
ATOM      2  C   UNL     1       2.584   5.837  20.204  0.00  0.00    +0.000 A 
ATOM      3  C   UNL     1       3.444   4.751  20.067  0.00  0.00    +0.000 A 
ATOM      4  C   UNL     1       4.160   4.570  18.885  0.00  0.00    +0.000 A 
ATOM      5  C   UNL     1       4.022   5.466  17.824  0.00  0.00    +0.000 A 
ATOM      6  C   UNL     1       3.190   6.585  17.987  0.00  0.00    +0.000 A 
ENDROOT
BRANCH   5   7
ATOM      7  N   UNL     1       4.667   5.284  16.581  0.00  0.00    +0.000 N 
ATOM      8  C   UNL     1       5.972   4.856  16.394  0.00  0.00    +0.000 C 
ATOM      9  O   UNL     1       6.791   4.591  17.268  0.00  0.00    +0.000 OA
ATOM     10  H   UNL     1       4.108   5.353  15.734  0.00  0.00    +0.000 HD
BRANCH   8  11
ATOM     11  C   UNL     1       6.363   4.643  14.962  0.00  0.00    +0.000 A 
ATOM     12  C   UNL     1       5.600   3.779  14.177  0.00  0.00    +0.000 A 
ATOM     13  C   UNL     1       5.938   3.610  12.832  0.00  0.00    +0.000 A 
ATOM     14  C   UNL     1       7.032   4.320  12.333  0.00  0.00    +0.000 A 
ATOM     15  C   UNL     1       7.726   5.154  13.198  0.00  0.00    +0.000 A 
ATOM     16 CL   UNL     1       9.075   6.057  12.643  0.00  0.00    +0.000 Cl
ATOM     17  N   UNL     1       7.423   5.348  14.498  0.00  0.00    +0.000 NA
BRANCH  13  18
ATOM     18  C   UNL     1       5.111   2.724  11.938  0.00  0.00    +0.000 C 
ATOM     19  F   UNL     1       4.399   3.428  11.016  0.00  0.00    +0.000 F 
ATOM     20  F   UNL     1       5.863   1.838  11.231  0.00  0.00    +0.000 F 
ENDBRANCH  13  18
ENDBRANCH   8  11
ENDBRANCH   5   7
BRANCH   1  22
ATOM     21  C   UNL     1       1.466   8.466  20.822  0.00  0.00    +0.000 C 
ATOM     22  C   UNL     1       1.483   7.943  19.379  0.00  0.00    +0.000 C 
BRANCH  22  23
ATOM     23  C   UNL     1       1.776   9.066  18.357  0.00  0.00    +0.000 C 
BRANCH  23  24
ATOM     24  C   UNL     1       0.683  10.081  18.302  0.00  0.00    +0.000 A 
ATOM     25  N   UNL     1      -0.583   9.849  18.013  0.00  0.00    +0.000 NA
ATOM     26  N   UNL     1      -1.277  11.033  18.122  0.00  0.00    +0.000 NA
ATOM     27  C   UNL     1      -0.417  11.963  18.465  0.00  0.00    +0.000 A 
ATOM     28  N   UNL     1       0.825  11.418  18.574  0.00  0.00    +0.000 N 
ATOM     29  C   UNL     1       2.031  12.123  18.911  0.00  0.00    +0.000 C 
ENDBRANCH  23  24
ENDBRANCH  22  23
ENDBRANCH   1  22
TORSDOF 6
ENDMDL
MODEL 9
REMARK VINA RESULT:      -8.0      2.207      3.161
REMARK  Name = 
REMARK  8 active torsions:
REMARK  status: ('A' for Active; 'I' for Inactive)
REMARK    1  A    between atoms: C_1  and  C_2
REMARK    2  A    between atoms: C_2  and  C_3
REMARK    3  A    between atoms: C_2  and  C_10
REMARK    4  A    between atoms: C_3  and  C_4
REMARK    5  A    between atoms: N_8  and  C_9
REMARK    6  A    between atoms: C_14  and  N_15
REMARK    7  A    between atoms: C_16  and  C_18
REMARK    8  A    between atoms: C_20  and  C_21
REMARK                            x       y       z     vdW  Elec       q    Type
REMARK                         _______ _______ _______ _____ _____    ______ ____
ROOT
ATOM      1  C   UNL     1       4.478   4.375  16.708  0.00  0.00    +0.000 A 
ATOM      2  C   UNL     1       3.868   3.132  16.941  0.00  0.00    +0.000 A 
ATOM      3  C   UNL     1       2.664   3.051  17.634  0.00  0.00    +0.000 A 
ATOM      4  C   UNL     1       2.065   4.207  18.134  0.00  0.00    +0.000 A 
ATOM      5  C   UNL     1       2.664   5.454  17.955  0.00  0.00    +0.000 A 
ATOM      6  C   UNL     1       3.855   5.533  17.215  0.00  0.00    +0.000 A 
ENDROOT
BRANCH   5   7
ATOM      7  N   UNL     1       2.137   6.643  18.507  0.00  0.00    +0.000 N 
ATOM      8  C   UNL     1       1.903   6.882  19.853  0.00  0.00    +0.000 C 
ATOM      9  O   UNL     1       2.085   6.100  20.781  0.00  0.00    +0.000 OA
ATOM     10  H   UNL     1       2.023   7.449  17.898  0.00  0.00    +0.000 HD
BRANCH   8  11
ATOM     11  C   UNL     1       1.443   8.273  20.171  0.00  0.00    +0.000 A 
ATOM     12  C   UNL     1       0.797   8.507  21.385  0.00  0.00    +0.000 A 
ATOM     13  C   UNL     1       0.403   9.809  21.702  0.00  0.00    +0.000 A 
ATOM     14  C   UNL     1       0.675  10.823  20.781  0.00  0.00    +0.000 A 
ATOM     15  C   UNL     1       1.322  10.484  19.601  0.00  0.00    +0.000 A 
ATOM     16 CL   UNL     1       1.690  11.686  18.433  0.00  0.00    +0.000 Cl
ATOM     17  N   UNL     1       1.725   9.241  19.266  0.00  0.00    +0.000 NA
BRANCH  13  18
ATOM     18  C   UNL     1      -0.253  10.113  23.024  0.00  0.00    +0.000 C 
ATOM     19  F   UNL     1      -0.702  11.396  23.103  0.00  0.00    +0.000 F 
ATOM     20  F   UNL     1      -1.334   9.324  23.270  0.00  0.00    +0.000 F 
ENDBRANCH  13  18
ENDBRANCH   8  11
ENDBRANCH   5   7
BRANCH   1  22
ATOM     21  C   UNL     1       5.652   4.109  14.452  0.00  0.00    +0.000 C 
ATOM     22  C   UNL     1       5.806   4.395  15.953  0.00  0.00    +0.000 C 
BRANCH  22  23
ATOM     23  C   UNL     1       6.547   5.726  16.218  0.00  0.00    +0.000 C 
BRANCH  23  24
ATOM     24  C   UNL     1       7.200   5.752  17.561  0.00  0.00    +0.000 A 
ATOM     25  N   UNL     1       7.370   4.721  18.365  0.00  0.00    +0.000 NA
ATOM     26  N   UNL     1       8.060   5.148  19.478  0.00  0.00    +0.000 NA
ATOM     27  C   UNL     1       8.285   6.432  19.332  0.00  0.00    +0.000 A 
ATOM     28  N   UNL     1       7.751   6.859  18.155  0.00  0.00    +0.000 N 
ATOM     29  C   UNL     1       7.777   8.205  17.654  0.00  0.00    +0.000 C 
ENDBRANCH  23  24
ENDBRANCH  22  23
ENDBRANCH   1  22
TORSDOF 6
ENDMDL
