MODEL 1
REMARK VINA RESULT:      -9.0      0.000      0.000
REMARK  Name = 
REMARK  5 active torsions:
REMARK  status: ('A' for Active; 'I' for Inactive)
REMARK    1  A    between atoms: C_1  and  C_2
REMARK    2  A    between atoms: C_4  and  C_5
REMARK    3  A    between atoms: C_5  and  N_6
REMARK    4  A    between atoms: C_5  and  C_20
REMARK    5  A    between atoms: N_9  and  C_10
REMARK                            x       y       z     vdW  Elec       q    Type
REMARK                         _______ _______ _______ _____ _____    ______ ____
ROOT
ATOM      1  N   UNL     1       2.433   7.662  18.141  0.00  0.00    +0.000 N 
ATOM      2  C   UNL     1       1.711   8.578  18.860  0.00  0.00    +0.000 C 
ATOM      3  O   UNL     1       1.700   8.604  20.087  0.00  0.00    +0.000 OA
ATOM      4  N   UNL     1       0.974   9.401  18.038  0.00  0.00    +0.000 N 
ATOM      5  H   UNL     1       2.846   7.979  17.274  0.00  0.00    +0.000 HD
ATOM      6  H   UNL     1       0.599   8.915  17.232  0.00  0.00    +0.000 HD
ENDROOT
BRANCH   4   7
ATOM      7  C   UNL     1       0.117  10.400  18.561  0.00  0.00    +0.000 A 
ATOM      8  C   UNL     1       0.551  11.278  19.561  0.00  0.00    +0.000 A 
ATOM      9  C   UNL     1      -0.301  12.278  20.035  0.00  0.00    +0.000 A 
ATOM     10  C   UNL     1      -1.599  12.387  19.535  0.00  0.00    +0.000 A 
ATOM     11  C   UNL     1      -2.044  11.497  18.558  0.00  0.00    +0.000 A 
ATOM     12  C   UNL     1      -1.180  10.524  18.043  0.00  0.00    +0.000 A 
ATOM     13  O   UNL     1      -1.564   9.621  17.076  0.00  0.00    +0.000 OA
ATOM     14  C   UNL     1      -2.788  10.009  16.448  0.00  0.00    +0.000 C 
ATOM     15  C   UNL     1      -3.813  10.476  17.469  0.00  0.00    +0.000 C 
ATOM     16  O   UNL     1      -3.347  11.642  18.154  0.00  0.00    +0.000 OA
ENDBRANCH   4   7
BRANCH   1  17
ATOM     17  C   UNL     1       3.173   6.618  18.832  0.00  0.00    +0.000 C 
BRANCH  17  21
ATOM     18  C   UNL     1       7.576   4.630  17.611  0.00  0.00    +0.000 C 
ATOM     19  C   UNL     1       6.270   5.324  17.598  0.00  0.00    +0.000 A 
ATOM     20  N   UNL     1       5.377   5.393  18.557  0.00  0.00    +0.000 NA
ATOM     21  C   UNL     1       4.374   6.179  18.024  0.00  0.00    +0.000 A 
ATOM     22  N   UNL     1       4.641   6.629  16.780  0.00  0.00    +0.000 NA
ATOM     23  N   UNL     1       5.821   6.039  16.525  0.00  0.00    +0.000 N 
ATOM     24  H   UNL     1       6.269   6.184  15.627  0.00  0.00    +0.000 HD
ENDBRANCH  17  21
BRANCH  17  25
ATOM     25  C   UNL     1       2.311   5.385  19.064  0.00  0.00    +0.000 A 
ATOM     26  C   UNL     1       2.022   4.535  17.977  0.00  0.00    +0.000 A 
ATOM     27  C   UNL     1       1.273   3.372  18.152  0.00  0.00    +0.000 A 
ATOM     28  C   UNL     1       0.802   3.026  19.415  0.00  0.00    +0.000 A 
ATOM     29  C   UNL     1       1.090   3.844  20.507  0.00  0.00    +0.000 A 
ATOM     30  C   UNL     1       1.842   5.007  20.336  0.00  0.00    +0.000 A 
ENDBRANCH  17  25
ENDBRANCH   1  17
TORSDOF 4
ENDMDL
MODEL 2
REMARK VINA RESULT:      -8.9      1.637      2.598
REMARK  Name = 
REMARK  5 active torsions:
REMARK  status: ('A' for Active; 'I' for Inactive)
REMARK    1  A    between atoms: C_1  and  C_2
REMARK    2  A    between atoms: C_4  and  C_5
REMARK    3  A    between atoms: C_5  and  N_6
REMARK    4  A    between atoms: C_5  and  C_20
REMARK    5  A    between atoms: N_9  and  C_10
REMARK                            x       y       z     vdW  Elec       q    Type
REMARK                         _______ _______ _______ _____ _____    ______ ____
ROOT
ATOM      1  N   UNL     1       3.050   7.205  18.326  0.00  0.00    +0.000 N 
ATOM      2  C   UNL     1       2.172   8.117  18.850  0.00  0.00    +0.000 C 
ATOM      3  O   UNL     1       1.837   8.119  20.030  0.00  0.00    +0.000 OA
ATOM      4  N   UNL     1       1.689   8.969  17.882  0.00  0.00    +0.000 N 
ATOM      5  H   UNL     1       3.681   7.532  17.607  0.00  0.00    +0.000 HD
ATOM      6  H   UNL     1       1.536   8.506  16.994  0.00  0.00    +0.000 HD
ENDROOT
BRANCH   4   7
ATOM      7  C   UNL     1       0.734   9.972  18.184  0.00  0.00    +0.000 A 
ATOM      8  C   UNL     1      -0.619   9.659  18.351  0.00  0.00    +0.000 A 
ATOM      9  C   UNL     1      -1.534  10.660  18.684  0.00  0.00    +0.000 A 
ATOM     10  C   UNL     1      -1.108  11.981  18.823  0.00  0.00    +0.000 A 
ATOM     11  C   UNL     1       0.236  12.301  18.631  0.00  0.00    +0.000 A 
ATOM     12  C   UNL     1       1.167  11.296  18.345  0.00  0.00    +0.000 A 
ATOM     13  O   UNL     1       2.506  11.553  18.149  0.00  0.00    +0.000 OA
ATOM     14  C   UNL     1       2.863  12.863  18.595  0.00  0.00    +0.000 C 
ATOM     15  C   UNL     1       1.842  13.898  18.153  0.00  0.00    +0.000 C 
ATOM     16  O   UNL     1       0.565  13.628  18.739  0.00  0.00    +0.000 OA
ENDBRANCH   4   7
BRANCH   1  17
ATOM     17  C   UNL     1       3.569   6.134  19.164  0.00  0.00    +0.000 C 
BRANCH  17  21
ATOM     18  C   UNL     1       6.989   4.739  15.819  0.00  0.00    +0.000 C 
ATOM     19  C   UNL     1       6.201   4.948  17.053  0.00  0.00    +0.000 A 
ATOM     20  N   UNL     1       5.156   5.723  17.229  0.00  0.00    +0.000 NA
ATOM     21  C   UNL     1       4.805   5.516  18.548  0.00  0.00    +0.000 A 
ATOM     22  N   UNL     1       5.577   4.606  19.179  0.00  0.00    +0.000 NA
ATOM     23  N   UNL     1       6.471   4.301  18.224  0.00  0.00    +0.000 N 
ATOM     24  H   UNL     1       7.210   3.636  18.426  0.00  0.00    +0.000 HD
ENDBRANCH  17  21
BRANCH  17  25
ATOM     25  C   UNL     1       2.546   5.019  19.339  0.00  0.00    +0.000 A 
ATOM     26  C   UNL     1       2.113   4.301  18.206  0.00  0.00    +0.000 A 
ATOM     27  C   UNL     1       1.211   3.244  18.325  0.00  0.00    +0.000 A 
ATOM     28  C   UNL     1       0.728   2.874  19.578  0.00  0.00    +0.000 A 
ATOM     29  C   UNL     1       1.157   3.560  20.713  0.00  0.00    +0.000 A 
ATOM     30  C   UNL     1       2.062   4.618  20.597  0.00  0.00    +0.000 A 
ENDBRANCH  17  25
ENDBRANCH   1  17
TORSDOF 4
ENDMDL
MODEL 3
REMARK VINA RESULT:      -8.8      1.434      2.356
REMARK  Name = 
REMARK  5 active torsions:
REMARK  status: ('A' for Active; 'I' for Inactive)
REMARK    1  A    between atoms: C_1  and  C_2
REMARK    2  A    between atoms: C_4  and  C_5
REMARK    3  A    between atoms: C_5  and  N_6
REMARK    4  A    between atoms: C_5  and  C_20
REMARK    5  A    between atoms: N_9  and  C_10
REMARK                            x       y       z     vdW  Elec       q    Type
REMARK                         _______ _______ _______ _____ _____    ______ ____
ROOT
ATOM      1  N   UNL     1       2.477   7.700  18.028  0.00  0.00    +0.000 N 
ATOM      2  C   UNL     1       1.730   8.628  18.706  0.00  0.00    +0.000 C 
ATOM      3  O   UNL     1       1.670   8.672  19.930  0.00  0.00    +0.000 OA
ATOM      4  N   UNL     1       1.030   9.443  17.843  0.00  0.00    +0.000 N 
ATOM      5  H   UNL     1       2.926   8.003  17.175  0.00  0.00    +0.000 HD
ATOM      6  H   UNL     1       0.686   8.948  17.029  0.00  0.00    +0.000 HD
ENDROOT
BRANCH   4   7
ATOM      7  C   UNL     1       0.157  10.453  18.318  0.00  0.00    +0.000 A 
ATOM      8  C   UNL     1      -1.206  10.202  18.510  0.00  0.00    +0.000 A 
ATOM      9  C   UNL     1      -2.038  11.204  19.015  0.00  0.00    +0.000 A 
ATOM     10  C   UNL     1      -1.521  12.467  19.300  0.00  0.00    +0.000 A 
ATOM     11  C   UNL     1      -0.168  12.729  19.084  0.00  0.00    +0.000 A 
ATOM     12  C   UNL     1       0.683  11.716  18.626  0.00  0.00    +0.000 A 
ATOM     13  O   UNL     1       2.026  11.915  18.398  0.00  0.00    +0.000 OA
ATOM     14  C   UNL     1       2.487  13.132  18.991  0.00  0.00    +0.000 C 
ATOM     15  C   UNL     1       1.518  14.276  18.737  0.00  0.00    +0.000 C 
ATOM     16  O   UNL     1       0.252  14.008  19.345  0.00  0.00    +0.000 OA
ENDBRANCH   4   7
BRANCH   1  17
ATOM     17  C   UNL     1       3.184   6.663  18.764  0.00  0.00    +0.000 C 
BRANCH  17  21
ATOM     18  C   UNL     1       7.623   4.656  17.718  0.00  0.00    +0.000 C 
ATOM     19  C   UNL     1       6.309   5.332  17.647  0.00  0.00    +0.000 A 
ATOM     20  N   UNL     1       5.404   5.450  18.590  0.00  0.00    +0.000 NA
ATOM     21  C   UNL     1       4.399   6.189  17.998  0.00  0.00    +0.000 A 
ATOM     22  N   UNL     1       4.677   6.564  16.731  0.00  0.00    +0.000 NA
ATOM     23  N   UNL     1       5.866   5.973  16.527  0.00  0.00    +0.000 N 
ATOM     24  H   UNL     1       6.323   6.068  15.627  0.00  0.00    +0.000 HD
ENDBRANCH  17  21
BRANCH  17  25
ATOM     25  C   UNL     1       2.299   5.447  19.001  0.00  0.00    +0.000 A 
ATOM     26  C   UNL     1       2.012   4.586  17.923  0.00  0.00    +0.000 A 
ATOM     27  C   UNL     1       1.242   3.437  18.104  0.00  0.00    +0.000 A 
ATOM     28  C   UNL     1       0.747   3.118  19.365  0.00  0.00    +0.000 A 
ATOM     29  C   UNL     1       1.033   3.947  20.449  0.00  0.00    +0.000 A 
ATOM     30  C   UNL     1       1.806   5.096  20.271  0.00  0.00    +0.000 A 
ENDBRANCH  17  25
ENDBRANCH   1  17
TORSDOF 4
ENDMDL
MODEL 4
REMARK VINA RESULT:      -8.8      0.714      1.002
REMARK  Name = 
REMARK  5 active torsions:
REMARK  status: ('A' for Active; 'I' for Inactive)
REMARK    1  A    between atoms: C_1  and  C_2
REMARK    2  A    between atoms: C_4  and  C_5
REMARK    3  A    between atoms: C_5  and  N_6
REMARK    4  A    between atoms: C_5  and  C_20
REMARK    5  A    between atoms: N_9  and  C_10
REMARK                            x       y       z     vdW  Elec       q    Type
REMARK                         _______ _______ _______ _____ _____    ______ ____
ROOT
ATOM      1  N   UNL     1       2.637   7.417  18.290  0.00  0.00    +0.000 N 
ATOM      2  C   UNL     1       1.913   8.323  19.021  0.00  0.00    +0.000 C 
ATOM      3  O   UNL     1       1.855   8.297  20.246  0.00  0.00    +0.000 OA
ATOM      4  N   UNL     1       1.233   9.203  18.207  0.00  0.00    +0.000 N 
ATOM      5  H   UNL     1       3.092   7.758  17.454  0.00  0.00    +0.000 HD
ATOM      6  H   UNL     1       0.876   8.763  17.367  0.00  0.00    +0.000 HD
ENDROOT
BRANCH   4   7
ATOM      7  C   UNL     1       0.385  10.204  18.741  0.00  0.00    +0.000 A 
ATOM      8  C   UNL     1       0.809  11.032  19.787  0.00  0.00    +0.000 A 
ATOM      9  C   UNL     1      -0.033  12.036  20.271  0.00  0.00    +0.000 A 
ATOM     10  C   UNL     1      -1.311  12.198  19.735  0.00  0.00    +0.000 A 
ATOM     11  C   UNL     1      -1.746  11.358  18.711  0.00  0.00    +0.000 A 
ATOM     12  C   UNL     1      -0.890  10.381  18.187  0.00  0.00    +0.000 A 
ATOM     13  O   UNL     1      -1.265   9.526  17.174  0.00  0.00    +0.000 OA
ATOM     14  C   UNL     1      -2.458   9.970  16.523  0.00  0.00    +0.000 C 
ATOM     15  C   UNL     1      -3.503  10.425  17.527  0.00  0.00    +0.000 C 
ATOM     16  O   UNL     1      -3.031  11.552  18.271  0.00  0.00    +0.000 OA
ENDBRANCH   4   7
BRANCH   1  17
ATOM     17  C   UNL     1       3.319   6.322  18.963  0.00  0.00    +0.000 C 
BRANCH  17  21
ATOM     18  C   UNL     1       6.176   5.199  15.039  0.00  0.00    +0.000 C 
ATOM     19  C   UNL     1       5.612   5.348  16.397  0.00  0.00    +0.000 A 
ATOM     20  N   UNL     1       4.556   6.034  16.768  0.00  0.00    +0.000 NA
ATOM     21  C   UNL     1       4.469   5.806  18.127  0.00  0.00    +0.000 A 
ATOM     22  N   UNL     1       5.416   4.967  18.598  0.00  0.00    +0.000 NA
ATOM     23  N   UNL     1       6.144   4.732  17.493  0.00  0.00    +0.000 N 
ATOM     24  H   UNL     1       6.959   4.132  17.550  0.00  0.00    +0.000 HD
ENDBRANCH  17  21
BRANCH  17  25
ATOM     25  C   UNL     1       2.380   5.150  19.211  0.00  0.00    +0.000 A 
ATOM     26  C   UNL     1       1.951   4.371  18.117  0.00  0.00    +0.000 A 
ATOM     27  C   UNL     1       1.126   3.262  18.302  0.00  0.00    +0.000 A 
ATOM     28  C   UNL     1       0.716   2.901  19.583  0.00  0.00    +0.000 A 
ATOM     29  C   UNL     1       1.143   3.648  20.680  0.00  0.00    +0.000 A 
ATOM     30  C   UNL     1       1.971   4.757  20.498  0.00  0.00    +0.000 A 
ENDBRANCH  17  25
ENDBRANCH   1  17
TORSDOF 4
ENDMDL
MODEL 5
REMARK VINA RESULT:      -8.5      0.679      1.350
REMARK  Name = 
REMARK  5 active torsions:
REMARK  status: ('A' for Active; 'I' for Inactive)
REMARK    1  A    between atoms: C_1  and  C_2
REMARK    2  A    between atoms: C_4  and  C_5
REMARK    3  A    between atoms: C_5  and  N_6
REMARK    4  A    between atoms: C_5  and  C_20
REMARK    5  A    between atoms: N_9  and  C_10
REMARK                            x       y       z     vdW  Elec       q    Type
REMARK                         _______ _______ _______ _____ _____    ______ ____
ROOT
ATOM      1  N   UNL     1       2.491   7.341  18.670  0.00  0.00    +0.000 N 
ATOM      2  C   UNL     1       1.772   8.306  19.326  0.00  0.00    +0.000 C 
ATOM      3  O   UNL     1       1.670   8.348  20.547  0.00  0.00    +0.000 OA
ATOM      4  N   UNL     1       1.149   9.161  18.443  0.00  0.00    +0.000 N 
ATOM      5  H   UNL     1       2.986   7.622  17.835  0.00  0.00    +0.000 HD
ATOM      6  H   UNL     1       0.808   8.688  17.615  0.00  0.00    +0.000 HD
ENDROOT
BRANCH   4   7
ATOM      7  C   UNL     1       0.316  10.215  18.893  0.00  0.00    +0.000 A 
ATOM      8  C   UNL     1       0.715  11.063  19.932  0.00  0.00    +0.000 A 
ATOM      9  C   UNL     1      -0.109  12.117  20.332  0.00  0.00    +0.000 A 
ATOM     10  C   UNL     1      -1.346  12.312  19.718  0.00  0.00    +0.000 A 
ATOM     11  C   UNL     1      -1.759  11.452  18.700  0.00  0.00    +0.000 A 
ATOM     12  C   UNL     1      -0.918  10.423  18.260  0.00  0.00    +0.000 A 
ATOM     13  O   UNL     1      -1.271   9.548  17.258  0.00  0.00    +0.000 OA
ATOM     14  C   UNL     1      -2.405  10.016  16.523  0.00  0.00    +0.000 C 
ATOM     15  C   UNL     1      -3.485  10.550  17.450  0.00  0.00    +0.000 C 
ATOM     16  O   UNL     1      -3.007  11.682  18.180  0.00  0.00    +0.000 OA
ENDBRANCH   4   7
BRANCH   1  17
ATOM     17  C   UNL     1       3.113   6.263  19.424  0.00  0.00    +0.000 C 
BRANCH  17  21
ATOM     18  C   UNL     1       6.869   5.542  16.230  0.00  0.00    +0.000 C 
ATOM     19  C   UNL     1       6.019   5.634  17.437  0.00  0.00    +0.000 A 
ATOM     20  N   UNL     1       4.808   6.128  17.542  0.00  0.00    +0.000 NA
ATOM     21  C   UNL     1       4.482   5.936  18.870  0.00  0.00    +0.000 A 
ATOM     22  N   UNL     1       5.441   5.300  19.577  0.00  0.00    +0.000 NA
ATOM     23  N   UNL     1       6.410   5.163  18.657  0.00  0.00    +0.000 N 
ATOM     24  H   UNL     1       7.287   4.724  18.916  0.00  0.00    +0.000 HD
ENDBRANCH  17  21
BRANCH  17  25
ATOM     25  C   UNL     1       2.284   4.988  19.360  0.00  0.00    +0.000 A 
ATOM     26  C   UNL     1       1.769   4.444  20.554  0.00  0.00    +0.000 A 
ATOM     27  C   UNL     1       0.968   3.302  20.539  0.00  0.00    +0.000 A 
ATOM     28  C   UNL     1       0.656   2.683  19.332  0.00  0.00    +0.000 A 
ATOM     29  C   UNL     1       1.141   3.214  18.137  0.00  0.00    +0.000 A 
ATOM     30  C   UNL     1       1.941   4.359  18.150  0.00  0.00    +0.000 A 
ENDBRANCH  17  25
ENDBRANCH   1  17
TORSDOF 4
ENDMDL
MODEL 6
REMARK VINA RESULT:      -8.1      2.114      2.432
REMARK  Name = 
REMARK  5 active torsions:
REMARK  status: ('A' for Active; 'I' for Inactive)
REMARK    1  A    between atoms: C_1  and  C_2
REMARK    2  A    between atoms: C_4  and  C_5
REMARK    3  A    between atoms: C_5  and  N_6
REMARK    4  A    between atoms: C_5  and  C_20
REMARK    5  A    between atoms: N_9  and  C_10
REMARK                            x       y       z     vdW  Elec       q    Type
REMARK                         _______ _______ _______ _____ _____    ______ ____
ROOT
ATOM      1  N   UNL     1       2.231   7.468  19.297  0.00  0.00    +0.000 N 
ATOM      2  C   UNL     1       1.710   8.138  20.373  0.00  0.00    +0.000 C 
ATOM      3  O   UNL     1       1.954   7.828  21.534  0.00  0.00    +0.000 OA
ATOM      4  N   UNL     1       0.851   9.141  19.979  0.00  0.00    +0.000 N 
ATOM      5  H   UNL     1       2.467   8.018  18.482  0.00  0.00    +0.000 HD
ATOM      6  H   UNL     1       0.299   8.887  19.168  0.00  0.00    +0.000 HD
ENDROOT
BRANCH   4   7
ATOM      7  C   UNL     1       0.162   9.942  20.922  0.00  0.00    +0.000 A 
ATOM      8  C   UNL     1      -0.256   9.419  22.151  0.00  0.00    +0.000 A 
ATOM      9  C   UNL     1      -0.902  10.240  23.078  0.00  0.00    +0.000 A 
ATOM     10  C   UNL     1      -1.160  11.576  22.772  0.00  0.00    +0.000 A 
ATOM     11  C   UNL     1      -0.769  12.094  21.538  0.00  0.00    +0.000 A 
ATOM     12  C   UNL     1      -0.077  11.291  20.622  0.00  0.00    +0.000 A 
ATOM     13  O   UNL     1       0.336  11.749  19.391  0.00  0.00    +0.000 OA
ATOM     14  C   UNL     1       0.278  13.175  19.312  0.00  0.00    +0.000 C 
ATOM     15  C   UNL     1      -1.015  13.713  19.902  0.00  0.00    +0.000 C 
ATOM     16  O   UNL     1      -1.101  13.402  21.295  0.00  0.00    +0.000 OA
ENDBRANCH   4   7
BRANCH   1  17
ATOM     17  C   UNL     1       3.056   6.289  19.508  0.00  0.00    +0.000 C 
BRANCH  17  21
ATOM     18  C   UNL     1       7.103   4.858  16.978  0.00  0.00    +0.000 C 
ATOM     19  C   UNL     1       5.839   5.494  17.408  0.00  0.00    +0.000 A 
ATOM     20  N   UNL     1       5.134   5.253  18.488  0.00  0.00    +0.000 NA
ATOM     21  C   UNL     1       4.078   6.139  18.403  0.00  0.00    +0.000 A 
ATOM     22  N   UNL     1       4.133   6.945  17.322  0.00  0.00    +0.000 NA
ATOM     23  N   UNL     1       5.228   6.485  16.695  0.00  0.00    +0.000 N 
ATOM     24  H   UNL     1       5.513   6.901  15.815  0.00  0.00    +0.000 HD
ENDBRANCH  17  21
BRANCH  17  25
ATOM     25  C   UNL     1       2.218   5.018  19.522  0.00  0.00    +0.000 A 
ATOM     26  C   UNL     1       1.856   4.421  18.297  0.00  0.00    +0.000 A 
ATOM     27  C   UNL     1       1.126   3.233  18.263  0.00  0.00    +0.000 A 
ATOM     28  C   UNL     1       0.748   2.610  19.449  0.00  0.00    +0.000 A 
ATOM     29  C   UNL     1       1.110   3.175  20.672  0.00  0.00    +0.000 A 
ATOM     30  C   UNL     1       1.843   4.363  20.709  0.00  0.00    +0.000 A 
ENDBRANCH  17  25
ENDBRANCH   1  17
TORSDOF 4
ENDMDL
MODEL 7
REMARK VINA RESULT:      -8.1      1.017      1.325
REMARK  Name = 
REMARK  5 active torsions:
REMARK  status: ('A' for Active; 'I' for Inactive)
REMARK    1  A    between atoms: C_1  and  C_2
REMARK    2  A    between atoms: C_4  and  C_5
REMARK    3  A    between atoms: C_5  and  N_6
REMARK    4  A    between atoms: C_5  and  C_20
REMARK    5  A    between atoms: N_9  and  C_10
REMARK                            x       y       z     vdW  Elec       q    Type
REMARK                         _______ _______ _______ _____ _____    ______ ____
ROOT
ATOM      1  N   UNL     1       2.762   7.658  17.732  0.00  0.00    +0.000 N 
ATOM      2  C   UNL     1       2.013   8.421  18.589  0.00  0.00    +0.000 C 
ATOM      3  O   UNL     1       2.098   8.332  19.810  0.00  0.00    +0.000 OA
ATOM      4  N   UNL     1       1.136   9.236  17.908  0.00  0.00    +0.000 N 
ATOM      5  H   UNL     1       3.071   8.095  16.875  0.00  0.00    +0.000 HD
ATOM      6  H   UNL     1       0.747   8.791  17.085  0.00  0.00    +0.000 HD
ENDROOT
BRANCH   4   7
ATOM      7  C   UNL     1       0.230  10.086  18.588  0.00  0.00    +0.000 A 
ATOM      8  C   UNL     1       0.609  10.770  19.749  0.00  0.00    +0.000 A 
ATOM      9  C   UNL     1      -0.291  11.631  20.381  0.00  0.00    +0.000 A 
ATOM     10  C   UNL     1      -1.581  11.790  19.875  0.00  0.00    +0.000 A 
ATOM     11  C   UNL     1      -1.971  11.090  18.734  0.00  0.00    +0.000 A 
ATOM     12  C   UNL     1      -1.059  10.263  18.067  0.00  0.00    +0.000 A 
ATOM     13  O   UNL     1      -1.387   9.551  16.935  0.00  0.00    +0.000 OA
ATOM     14  C   UNL     1      -2.612  10.011  16.358  0.00  0.00    +0.000 C 
ATOM     15  C   UNL     1      -3.676  10.238  17.420  0.00  0.00    +0.000 C 
ATOM     16  O   UNL     1      -3.270  11.265  18.328  0.00  0.00    +0.000 OA
ENDBRANCH   4   7
BRANCH   1  17
ATOM     17  C   UNL     1       3.653   6.637  18.261  0.00  0.00    +0.000 C 
BRANCH  17  21
ATOM     18  C   UNL     1       6.372   4.232  14.848  0.00  0.00    +0.000 C 
ATOM     19  C   UNL     1       5.855   5.205  15.835  0.00  0.00    +0.000 A 
ATOM     20  N   UNL     1       4.697   5.199  16.452  0.00  0.00    +0.000 NA
ATOM     21  C   UNL     1       4.749   6.309  17.272  0.00  0.00    +0.000 A 
ATOM     22  N   UNL     1       5.921   6.976  17.207  0.00  0.00    +0.000 NA
ATOM     23  N   UNL     1       6.577   6.281  16.263  0.00  0.00    +0.000 N 
ATOM     24  H   UNL     1       7.506   6.574  15.983  0.00  0.00    +0.000 HD
ENDBRANCH  17  21
BRANCH  17  25
ATOM     25  C   UNL     1       2.906   5.342  18.552  0.00  0.00    +0.000 A 
ATOM     26  C   UNL     1       3.264   4.584  19.685  0.00  0.00    +0.000 A 
ATOM     27  C   UNL     1       2.578   3.415  20.015  0.00  0.00    +0.000 A 
ATOM     28  C   UNL     1       1.516   2.981  19.227  0.00  0.00    +0.000 A 
ATOM     29  C   UNL     1       1.135   3.726  18.111  0.00  0.00    +0.000 A 
ATOM     30  C   UNL     1       1.817   4.898  17.780  0.00  0.00    +0.000 A 
ENDBRANCH  17  25
ENDBRANCH   1  17
TORSDOF 4
ENDMDL
MODEL 8
REMARK VINA RESULT:      -7.9      2.634      7.537
REMARK  Name = 
REMARK  5 active torsions:
REMARK  status: ('A' for Active; 'I' for Inactive)
REMARK    1  A    between atoms: C_1  and  C_2
REMARK    2  A    between atoms: C_4  and  C_5
REMARK    3  A    between atoms: C_5  and  N_6
REMARK    4  A    between atoms: C_5  and  C_20
REMARK    5  A    between atoms: N_9  and  C_10
REMARK                            x       y       z     vdW  Elec       q    Type
REMARK                         _______ _______ _______ _____ _____    ______ ____
ROOT
ATOM      1  N   UNL     1       1.689   8.755  19.928  0.00  0.00    +0.000 N 
ATOM      2  C   UNL     1       2.075   7.787  19.038  0.00  0.00    +0.000 C 
ATOM      3  O   UNL     1       1.757   7.804  17.853  0.00  0.00    +0.000 OA
ATOM      4  N   UNL     1       2.799   6.791  19.655  0.00  0.00    +0.000 N 
ATOM      5  H   UNL     1       2.352   9.010  20.647  0.00  0.00    +0.000 HD
ATOM      6  H   UNL     1       2.459   6.578  20.585  0.00  0.00    +0.000 HD
ENDROOT
BRANCH   4   7
ATOM      7  C   UNL     1       3.270   5.662  18.939  0.00  0.00    +0.000 A 
ATOM      8  C   UNL     1       4.439   5.724  18.173  0.00  0.00    +0.000 A 
ATOM      9  C   UNL     1       4.902   4.588  17.506  0.00  0.00    +0.000 A 
ATOM     10  C   UNL     1       4.184   3.393  17.577  0.00  0.00    +0.000 A 
ATOM     11  C   UNL     1       3.004   3.335  18.318  0.00  0.00    +0.000 A 
ATOM     12  C   UNL     1       2.560   4.456  19.029  0.00  0.00    +0.000 A 
ATOM     13  O   UNL     1       1.406   4.455  19.779  0.00  0.00    +0.000 OA
ATOM     14  C   UNL     1       0.926   3.128  20.008  0.00  0.00    +0.000 C 
ATOM     15  C   UNL     1       0.983   2.290  18.742  0.00  0.00    +0.000 C 
ATOM     16  O   UNL     1       2.334   2.138  18.298  0.00  0.00    +0.000 OA
ENDBRANCH   4   7
BRANCH   1  17
ATOM     17  C   UNL     1       0.804   9.825  19.496  0.00  0.00    +0.000 C 
BRANCH  17  21
ATOM     18  C   UNL     1       2.794  14.363  18.974  0.00  0.00    +0.000 C 
ATOM     19  C   UNL     1       2.381  12.955  18.788  0.00  0.00    +0.000 A 
ATOM     20  N   UNL     1       1.741  12.177  19.629  0.00  0.00    +0.000 NA
ATOM     21  C   UNL     1       1.592  10.990  18.940  0.00  0.00    +0.000 A 
ATOM     22  N   UNL     1       2.086  11.026  17.684  0.00  0.00    +0.000 NA
ATOM     23  N   UNL     1       2.613  12.261  17.635  0.00  0.00    +0.000 N 
ATOM     24  H   UNL     1       3.084  12.570  16.792  0.00  0.00    +0.000 HD
ENDBRANCH  17  21
BRANCH  17  25
ATOM     25  C   UNL     1      -0.032  10.357  20.652  0.00  0.00    +0.000 A 
ATOM     26  C   UNL     1       0.175   9.834  21.945  0.00  0.00    +0.000 A 
ATOM     27  C   UNL     1      -0.536  10.322  23.041  0.00  0.00    +0.000 A 
ATOM     28  C   UNL     1      -1.463  11.347  22.874  0.00  0.00    +0.000 A 
ATOM     29  C   UNL     1      -1.671  11.890  21.607  0.00  0.00    +0.000 A 
ATOM     30  C   UNL     1      -0.958  11.406  20.508  0.00  0.00    +0.000 A 
ENDBRANCH  17  25
ENDBRANCH   1  17
TORSDOF 4
ENDMDL
MODEL 9
REMARK VINA RESULT:      -7.9      1.768      3.648
REMARK  Name = 
REMARK  5 active torsions:
REMARK  status: ('A' for Active; 'I' for Inactive)
REMARK    1  A    between atoms: C_1  and  C_2
REMARK    2  A    between atoms: C_4  and  C_5
REMARK    3  A    between atoms: C_5  and  N_6
REMARK    4  A    between atoms: C_5  and  C_20
REMARK    5  A    between atoms: N_9  and  C_10
REMARK                            x       y       z     vdW  Elec       q    Type
REMARK                         _______ _______ _______ _____ _____    ______ ____
ROOT
ATOM      1  N   UNL     1       2.516   7.257  18.602  0.00  0.00    +0.000 N 
ATOM      2  C   UNL     1       2.086   8.485  18.171  0.00  0.00    +0.000 C 
ATOM      3  O   UNL     1       2.204   8.863  17.010  0.00  0.00    +0.000 OA
ATOM      4  N   UNL     1       1.571   9.234  19.206  0.00  0.00    +0.000 N 
ATOM      5  H   UNL     1       1.958   6.794  19.307  0.00  0.00    +0.000 HD
ATOM      6  H   UNL     1       2.077   9.102  20.074  0.00  0.00    +0.000 HD
ENDROOT
BRANCH   4   7
ATOM      7  C   UNL     1       1.102  10.555  19.004  0.00  0.00    +0.000 A 
ATOM      8  C   UNL     1       1.946  11.659  19.171  0.00  0.00    +0.000 A 
ATOM      9  C   UNL     1       1.468  12.949  18.931  0.00  0.00    +0.000 A 
ATOM     10  C   UNL     1       0.140  13.146  18.553  0.00  0.00    +0.000 A 
ATOM     11  C   UNL     1      -0.712  12.050  18.412  0.00  0.00    +0.000 A 
ATOM     12  C   UNL     1      -0.227  10.751  18.603  0.00  0.00    +0.000 A 
ATOM     13  O   UNL     1      -1.021   9.632  18.474  0.00  0.00    +0.000 OA
ATOM     14  C   UNL     1      -2.253   9.932  17.814  0.00  0.00    +0.000 C 
ATOM     15  C   UNL     1      -2.870  11.216  18.344  0.00  0.00    +0.000 C 
ATOM     16  O   UNL     1      -2.014  12.331  18.084  0.00  0.00    +0.000 OA
ENDBRANCH   4   7
BRANCH   1  17
ATOM     17  C   UNL     1       3.212   6.369  17.684  0.00  0.00    +0.000 C 
BRANCH  17  21
ATOM     18  C   UNL     1       0.719   2.364  19.286  0.00  0.00    +0.000 C 
ATOM     19  C   UNL     1       1.592   3.300  18.545  0.00  0.00    +0.000 A 
ATOM     20  N   UNL     1       1.710   4.598  18.702  0.00  0.00    +0.000 NA
ATOM     21  C   UNL     1       2.673   4.959  17.780  0.00  0.00    +0.000 A 
ATOM     22  N   UNL     1       3.180   3.917  17.088  0.00  0.00    +0.000 NA
ATOM     23  N   UNL     1       2.449   2.895  17.562  0.00  0.00    +0.000 N 
ATOM     24  H   UNL     1       2.601   1.961  17.199  0.00  0.00    +0.000 HD
ENDBRANCH  17  21
BRANCH  17  25
ATOM     25  C   UNL     1       4.702   6.304  17.995  0.00  0.00    +0.000 A 
ATOM     26  C   UNL     1       5.140   5.540  19.095  0.00  0.00    +0.000 A 
ATOM     27  C   UNL     1       6.498   5.417  19.391  0.00  0.00    +0.000 A 
ATOM     28  C   UNL     1       7.448   6.046  18.591  0.00  0.00    +0.000 A 
ATOM     29  C   UNL     1       7.037   6.792  17.488  0.00  0.00    +0.000 A 
ATOM     30  C   UNL     1       5.679   6.915  17.188  0.00  0.00    +0.000 A 
ENDBRANCH  17  25
ENDBRANCH   1  17
TORSDOF 4
ENDMDL
