MODEL 1
REMARK VINA RESULT:      -9.4      0.000      0.000
REMARK  Name = 
REMARK  6 active torsions:
REMARK  status: ('A' for Active; 'I' for Inactive)
REMARK    1  A    between atoms: C_1  and  C_2
REMARK    2  A    between atoms: C_2  and  N_3
REMARK    3  A    between atoms: C_2  and  C_15
REMARK    4  A    between atoms: N_3  and  C_4
REMARK    5  A    between atoms: C_17  and  C_18
REMARK    6  A    between atoms: C_22  and  C_23
REMARK                            x       y       z     vdW  Elec       q    Type
REMARK                         _______ _______ _______ _____ _____    ______ ____
ROOT
ATOM      1  C   UNL     1       1.560   4.094  20.629  0.00  0.00    +0.000 C 
ATOM      2  C   UNL     1       1.867   5.145  19.553  0.00  0.00    +0.000 C 
ENDROOT
BRANCH   2   3
ATOM      3  C   UNL     1       2.846   4.546  18.580  0.00  0.00    +0.000 A 
ATOM      4  N   UNL     1       3.640   5.147  17.721  0.00  0.00    +0.000 NA
ATOM      5  C   UNL     1       4.318   4.090  17.156  0.00  0.00    +0.000 A 
ATOM      6  N   UNL     1       3.948   2.888  17.629  0.00  0.00    +0.000 NA
ATOM      7  O   UNL     1       2.962   3.188  18.566  0.00  0.00    +0.000 OA
BRANCH   5   8
ATOM      8  C   UNL     1       5.327   4.289  16.126  0.00  0.00    +0.000 A 
ATOM      9  C   UNL     1       6.561   4.880  16.426  0.00  0.00    +0.000 A 
ATOM     10  C   UNL     1       7.527   5.047  15.433  0.00  0.00    +0.000 A 
ATOM     11  C   UNL     1       7.275   4.612  14.132  0.00  0.00    +0.000 A 
ATOM     12  C   UNL     1       6.051   4.011  13.807  0.00  0.00    +0.000 A 
ATOM     13  C   UNL     1       5.079   3.868  14.810  0.00  0.00    +0.000 A 
BRANCH  12  14
ATOM     14  C   UNL     1       5.773   3.497  12.416  0.00  0.00    +0.000 C 
ATOM     15  F   UNL     1       6.592   4.028  11.466  0.00  0.00    +0.000 F 
ATOM     16  F   UNL     1       5.926   2.145  12.324  0.00  0.00    +0.000 F 
ATOM     17  F   UNL     1       4.503   3.758  12.003  0.00  0.00    +0.000 F 
ENDBRANCH  12  14
ENDBRANCH   5   8
ENDBRANCH   2   3
BRANCH   2  18
ATOM     18  N   UNL     1       2.387   6.386  20.175  0.00  0.00    +0.000 N 
ATOM     19  H   UNL     1       3.399   6.320  20.298  0.00  0.00    +0.000 HD
BRANCH  18  20
ATOM     20  C   UNL     1       1.997   7.652  19.730  0.00  0.00    +0.000 A 
ATOM     21  C   UNL     1       2.190   8.086  18.416  0.00  0.00    +0.000 A 
ATOM     22  C   UNL     1       1.692   9.314  17.965  0.00  0.00    +0.000 A 
ATOM     23  C   UNL     1       0.978  10.127  18.836  0.00  0.00    +0.000 A 
ATOM     24  C   UNL     1       0.742   9.721  20.150  0.00  0.00    +0.000 A 
ATOM     25  C   UNL     1       1.230   8.473  20.577  0.00  0.00    +0.000 A 
ATOM     26  C   UNL     1      -0.142  10.572  21.021  0.00  0.00    +0.000 C 
ATOM     27  C   UNL     1      -0.007  12.046  20.667  0.00  0.00    +0.000 C 
ATOM     28  C   UNL     1      -0.121  12.281  19.181  0.00  0.00    +0.000 C 
ATOM     29  O   UNL     1      -0.608  13.303  18.709  0.00  0.00    +0.000 OA
ATOM     30  N   UNL     1       0.465  11.341  18.373  0.00  0.00    +0.000 N 
ATOM     31  H   UNL     1       0.503  11.569  17.390  0.00  0.00    +0.000 HD
ENDBRANCH  18  20
ENDBRANCH   2  18
TORSDOF 5
ENDMDL
MODEL 2
REMARK VINA RESULT:      -8.9      6.948      9.152
REMARK  Name = 
REMARK  6 active torsions:
REMARK  status: ('A' for Active; 'I' for Inactive)
REMARK    1  A    between atoms: C_1  and  C_2
REMARK    2  A    between atoms: C_2  and  N_3
REMARK    3  A    between atoms: C_2  and  C_15
REMARK    4  A    between atoms: N_3  and  C_4
REMARK    5  A    between atoms: C_17  and  C_18
REMARK    6  A    between atoms: C_22  and  C_23
REMARK                            x       y       z     vdW  Elec       q    Type
REMARK                         _______ _______ _______ _____ _____    ______ ____
ROOT
ATOM      1  C   UNL     1       7.285   5.677  19.287  0.00  0.00    +0.000 C 
ATOM      2  C   UNL     1       7.618   6.252  17.903  0.00  0.00    +0.000 C 
ENDROOT
BRANCH   2   3
ATOM      3  C   UNL     1       7.965   7.707  18.071  0.00  0.00    +0.000 A 
ATOM      4  N   UNL     1       8.807   8.271  18.909  0.00  0.00    +0.000 NA
ATOM      5  C   UNL     1       8.727   9.599  18.558  0.00  0.00    +0.000 A 
ATOM      6  N   UNL     1       7.861   9.850  17.561  0.00  0.00    +0.000 NA
ATOM      7  O   UNL     1       7.346   8.596  17.245  0.00  0.00    +0.000 OA
BRANCH   5   8
ATOM      8  C   UNL     1       9.511  10.621  19.239  0.00  0.00    +0.000 A 
ATOM      9  C   UNL     1      10.772  11.002  18.764  0.00  0.00    +0.000 A 
ATOM     10  C   UNL     1      11.503  11.996  19.415  0.00  0.00    +0.000 A 
ATOM     11  C   UNL     1      10.975  12.629  20.541  0.00  0.00    +0.000 A 
ATOM     12  C   UNL     1       9.712  12.272  21.031  0.00  0.00    +0.000 A 
ATOM     13  C   UNL     1       8.996  11.255  20.380  0.00  0.00    +0.000 A 
BRANCH  12  14
ATOM     14  C   UNL     1       9.105  12.972  22.222  0.00  0.00    +0.000 C 
ATOM     15  F   UNL     1       9.053  12.196  23.341  0.00  0.00    +0.000 F 
ATOM     16  F   UNL     1       9.803  14.087  22.577  0.00  0.00    +0.000 F 
ATOM     17  F   UNL     1       7.829  13.386  21.994  0.00  0.00    +0.000 F 
ENDBRANCH  12  14
ENDBRANCH   5   8
ENDBRANCH   2   3
BRANCH   2  18
ATOM     18  N   UNL     1       6.480   6.053  16.973  0.00  0.00    +0.000 N 
ATOM     19  H   UNL     1       6.797   5.574  16.128  0.00  0.00    +0.000 HD
BRANCH  18  20
ATOM     20  C   UNL     1       5.244   5.574  17.412  0.00  0.00    +0.000 A 
ATOM     21  C   UNL     1       4.146   6.407  17.643  0.00  0.00    +0.000 A 
ATOM     22  C   UNL     1       2.888   5.892  17.974  0.00  0.00    +0.000 A 
ATOM     23  C   UNL     1       2.711   4.518  18.071  0.00  0.00    +0.000 A 
ATOM     24  C   UNL     1       3.774   3.649  17.825  0.00  0.00    +0.000 A 
ATOM     25  C   UNL     1       5.025   4.184  17.469  0.00  0.00    +0.000 A 
ATOM     26  C   UNL     1       3.510   2.168  17.816  0.00  0.00    +0.000 C 
ATOM     27  C   UNL     1       2.407   1.801  18.798  0.00  0.00    +0.000 C 
ATOM     28  C   UNL     1       1.197   2.689  18.645  0.00  0.00    +0.000 C 
ATOM     29  O   UNL     1       0.055   2.292  18.852  0.00  0.00    +0.000 OA
ATOM     30  N   UNL     1       1.447   4.011  18.380  0.00  0.00    +0.000 N 
ATOM     31  H   UNL     1       0.645   4.624  18.411  0.00  0.00    +0.000 HD
ENDBRANCH  18  20
ENDBRANCH   2  18
TORSDOF 5
ENDMDL
MODEL 3
REMARK VINA RESULT:      -8.9      1.221      1.565
REMARK  Name = 
REMARK  6 active torsions:
REMARK  status: ('A' for Active; 'I' for Inactive)
REMARK    1  A    between atoms: C_1  and  C_2
REMARK    2  A    between atoms: C_2  and  N_3
REMARK    3  A    between atoms: C_2  and  C_15
REMARK    4  A    between atoms: N_3  and  C_4
REMARK    5  A    between atoms: C_17  and  C_18
REMARK    6  A    between atoms: C_22  and  C_23
REMARK                            x       y       z     vdW  Elec       q    Type
REMARK                         _______ _______ _______ _____ _____    ______ ____
ROOT
ATOM      1  C   UNL     1       2.694   3.147  19.629  0.00  0.00    +0.000 C 
ATOM      2  C   UNL     1       2.808   4.514  18.940  0.00  0.00    +0.000 C 
ENDROOT
BRANCH   2   3
ATOM      3  C   UNL     1       3.982   4.467  18.000  0.00  0.00    +0.000 A 
ATOM      4  N   UNL     1       3.995   4.404  16.687  0.00  0.00    +0.000 NA
ATOM      5  C   UNL     1       5.342   4.437  16.403  0.00  0.00    +0.000 A 
ATOM      6  N   UNL     1       6.128   4.499  17.491  0.00  0.00    +0.000 NA
ATOM      7  O   UNL     1       5.227   4.507  18.552  0.00  0.00    +0.000 OA
BRANCH   5   8
ATOM      8  C   UNL     1       5.839   4.389  15.035  0.00  0.00    +0.000 A 
ATOM      9  C   UNL     1       7.120   4.854  14.713  0.00  0.00    +0.000 A 
ATOM     10  C   UNL     1       7.591   4.782  13.401  0.00  0.00    +0.000 A 
ATOM     11  C   UNL     1       6.790   4.233  12.400  0.00  0.00    +0.000 A 
ATOM     12  C   UNL     1       5.507   3.753  12.697  0.00  0.00    +0.000 A 
ATOM     13  C   UNL     1       5.037   3.850  14.017  0.00  0.00    +0.000 A 
BRANCH  12  14
ATOM     14  C   UNL     1       4.641   3.118  11.638  0.00  0.00    +0.000 C 
ATOM     15  F   UNL     1       5.130   1.935  11.171  0.00  0.00    +0.000 F 
ATOM     16  F   UNL     1       3.385   2.846  12.092  0.00  0.00    +0.000 F 
ATOM     17  F   UNL     1       4.479   3.913  10.545  0.00  0.00    +0.000 F 
ENDBRANCH  12  14
ENDBRANCH   5   8
ENDBRANCH   2   3
BRANCH   2  18
ATOM     18  N   UNL     1       2.942   5.593  19.948  0.00  0.00    +0.000 N 
ATOM     19  H   UNL     1       3.900   5.625  20.303  0.00  0.00    +0.000 HD
BRANCH  18  20
ATOM     20  C   UNL     1       2.424   6.872  19.732  0.00  0.00    +0.000 A 
ATOM     21  C   UNL     1       2.502   7.524  18.498  0.00  0.00    +0.000 A 
ATOM     22  C   UNL     1       1.879   8.756  18.275  0.00  0.00    +0.000 A 
ATOM     23  C   UNL     1       1.152   9.354  19.296  0.00  0.00    +0.000 A 
ATOM     24  C   UNL     1       1.027   8.726  20.536  0.00  0.00    +0.000 A 
ATOM     25  C   UNL     1       1.641   7.476  20.734  0.00  0.00    +0.000 A 
ATOM     26  C   UNL     1       0.128   9.345  21.572  0.00  0.00    +0.000 C 
ATOM     27  C   UNL     1       0.119  10.862  21.456  0.00  0.00    +0.000 C 
ATOM     28  C   UNL     1      -0.101  11.316  20.034  0.00  0.00    +0.000 C 
ATOM     29  O   UNL     1      -0.698  12.352  19.755  0.00  0.00    +0.000 OA
ATOM     30  N   UNL     1       0.514  10.573  19.059  0.00  0.00    +0.000 N 
ATOM     31  H   UNL     1       0.475  10.955  18.125  0.00  0.00    +0.000 HD
ENDBRANCH  18  20
ENDBRANCH   2  18
TORSDOF 5
ENDMDL
MODEL 4
REMARK VINA RESULT:      -8.8      1.120      1.460
REMARK  Name = 
REMARK  6 active torsions:
REMARK  status: ('A' for Active; 'I' for Inactive)
REMARK    1  A    between atoms: C_1  and  C_2
REMARK    2  A    between atoms: C_2  and  N_3
REMARK    3  A    between atoms: C_2  and  C_15
REMARK    4  A    between atoms: N_3  and  C_4
REMARK    5  A    between atoms: C_17  and  C_18
REMARK    6  A    between atoms: C_22  and  C_23
REMARK                            x       y       z     vdW  Elec       q    Type
REMARK                         _______ _______ _______ _____ _____    ______ ____
ROOT
ATOM      1  C   UNL     1       1.369   4.260  20.173  0.00  0.00    +0.000 C 
ATOM      2  C   UNL     1       1.995   5.432  19.405  0.00  0.00    +0.000 C 
ENDROOT
BRANCH   2   3
ATOM      3  C   UNL     1       3.172   4.908  18.628  0.00  0.00    +0.000 A 
ATOM      4  N   UNL     1       3.667   5.326  17.483  0.00  0.00    +0.000 NA
ATOM      5  C   UNL     1       4.751   4.495  17.310  0.00  0.00    +0.000 A 
ATOM      6  N   UNL     1       4.910   3.592  18.292  0.00  0.00    +0.000 NA
ATOM      7  O   UNL     1       3.856   3.857  19.162  0.00  0.00    +0.000 OA
BRANCH   5   8
ATOM      8  C   UNL     1       5.619   4.600  16.145  0.00  0.00    +0.000 A 
ATOM      9  C   UNL     1       6.875   5.213  16.230  0.00  0.00    +0.000 A 
ATOM     10  C   UNL     1       7.704   5.288  15.110  0.00  0.00    +0.000 A 
ATOM     11  C   UNL     1       7.291   4.740  13.896  0.00  0.00    +0.000 A 
ATOM     12  C   UNL     1       6.041   4.114  13.786  0.00  0.00    +0.000 A 
ATOM     13  C   UNL     1       5.208   4.064  14.915  0.00  0.00    +0.000 A 
BRANCH  12  14
ATOM     14  C   UNL     1       5.592   3.479  12.493  0.00  0.00    +0.000 C 
ATOM     15  F   UNL     1       5.765   2.128  12.462  0.00  0.00    +0.000 F 
ATOM     16  F   UNL     1       4.268   3.689  12.247  0.00  0.00    +0.000 F 
ATOM     17  F   UNL     1       6.256   3.966  11.410  0.00  0.00    +0.000 F 
ENDBRANCH  12  14
ENDBRANCH   5   8
ENDBRANCH   2   3
BRANCH   2  18
ATOM     18  N   UNL     1       2.381   6.517  20.339  0.00  0.00    +0.000 N 
ATOM     19  H   UNL     1       3.396   6.632  20.343  0.00  0.00    +0.000 HD
BRANCH  18  20
ATOM     20  C   UNL     1       1.717   7.745  20.358  0.00  0.00    +0.000 A 
ATOM     21  C   UNL     1       1.611   8.567  19.232  0.00  0.00    +0.000 A 
ATOM     22  C   UNL     1       0.847   9.739  19.245  0.00  0.00    +0.000 A 
ATOM     23  C   UNL     1       0.163  10.101  20.397  0.00  0.00    +0.000 A 
ATOM     24  C   UNL     1       0.221   9.297  21.536  0.00  0.00    +0.000 A 
ATOM     25  C   UNL     1       0.975   8.110  21.497  0.00  0.00    +0.000 A 
ATOM     26  C   UNL     1      -0.634   9.658  22.721  0.00  0.00    +0.000 C 
ATOM     27  C   UNL     1      -0.809  11.165  22.832  0.00  0.00    +0.000 C 
ATOM     28  C   UNL     1      -1.208  11.785  21.516  0.00  0.00    +0.000 C 
ATOM     29  O   UNL     1      -1.931  12.774  21.442  0.00  0.00    +0.000 OA
ATOM     30  N   UNL     1      -0.616  11.260  20.396  0.00  0.00    +0.000 N 
ATOM     31  H   UNL     1      -0.782  11.762  19.535  0.00  0.00    +0.000 HD
ENDBRANCH  18  20
ENDBRANCH   2  18
TORSDOF 5
ENDMDL
MODEL 5
REMARK VINA RESULT:      -8.8      3.558      5.174
REMARK  Name = 
REMARK  6 active torsions:
REMARK  status: ('A' for Active; 'I' for Inactive)
REMARK    1  A    between atoms: C_1  and  C_2
REMARK    2  A    between atoms: C_2  and  N_3
REMARK    3  A    between atoms: C_2  and  C_15
REMARK    4  A    between atoms: N_3  and  C_4
REMARK    5  A    between atoms: C_17  and  C_18
REMARK    6  A    between atoms: C_22  and  C_23
REMARK                            x       y       z     vdW  Elec       q    Type
REMARK                         _______ _______ _______ _____ _____    ______ ____
ROOT
ATOM      1  C   UNL     1       1.462   9.226  21.968  0.00  0.00    +0.000 C 
ATOM      2  C   UNL     1       0.686   9.322  20.648  0.00  0.00    +0.000 C 
ENDROOT
BRANCH   2   3
ATOM      3  C   UNL     1       1.510   8.669  19.571  0.00  0.00    +0.000 A 
ATOM      4  N   UNL     1       2.034   7.464  19.539  0.00  0.00    +0.000 NA
ATOM      5  C   UNL     1       2.624   7.431  18.296  0.00  0.00    +0.000 A 
ATOM      6  N   UNL     1       2.489   8.570  17.597  0.00  0.00    +0.000 NA
ATOM      7  O   UNL     1       1.759   9.397  18.446  0.00  0.00    +0.000 OA
BRANCH   5   8
ATOM      8  C   UNL     1       3.342   6.257  17.818  0.00  0.00    +0.000 A 
ATOM      9  C   UNL     1       4.506   6.382  17.050  0.00  0.00    +0.000 A 
ATOM     10  C   UNL     1       5.194   5.248  16.616  0.00  0.00    +0.000 A 
ATOM     11  C   UNL     1       4.732   3.977  16.957  0.00  0.00    +0.000 A 
ATOM     12  C   UNL     1       3.574   3.824  17.732  0.00  0.00    +0.000 A 
ATOM     13  C   UNL     1       2.879   4.972  18.144  0.00  0.00    +0.000 A 
BRANCH  12  14
ATOM     14  C   UNL     1       3.081   2.460  18.146  0.00  0.00    +0.000 C 
ATOM     15  F   UNL     1       1.812   2.191  17.730  0.00  0.00    +0.000 F 
ATOM     16  F   UNL     1       3.856   1.456  17.646  0.00  0.00    +0.000 F 
ATOM     17  F   UNL     1       3.075   2.291  19.497  0.00  0.00    +0.000 F 
ENDBRANCH  12  14
ENDBRANCH   5   8
ENDBRANCH   2   3
BRANCH   2  18
ATOM     18  N   UNL     1       0.373  10.736  20.331  0.00  0.00    +0.000 N 
ATOM     19  H   UNL     1       1.094  11.127  19.721  0.00  0.00    +0.000 HD
BRANCH  18  20
ATOM     20  C   UNL     1      -0.908  11.140  19.950  0.00  0.00    +0.000 A 
ATOM     21  C   UNL     1      -1.699  11.989  20.730  0.00  0.00    +0.000 A 
ATOM     22  C   UNL     1      -2.933  12.469  20.277  0.00  0.00    +0.000 A 
ATOM     23  C   UNL     1      -3.390  12.107  19.017  0.00  0.00    +0.000 A 
ATOM     24  C   UNL     1      -2.622  11.282  18.196  0.00  0.00    +0.000 A 
ATOM     25  C   UNL     1      -1.373  10.829  18.658  0.00  0.00    +0.000 A 
ATOM     26  C   UNL     1      -3.095  11.017  16.791  0.00  0.00    +0.000 C 
ATOM     27  C   UNL     1      -4.614  11.003  16.717  0.00  0.00    +0.000 C 
ATOM     28  C   UNL     1      -5.223  12.200  17.405  0.00  0.00    +0.000 C 
ATOM     29  O   UNL     1      -6.268  12.720  17.026  0.00  0.00    +0.000 OA
ATOM     30  N   UNL     1      -4.612  12.608  18.563  0.00  0.00    +0.000 N 
ATOM     31  H   UNL     1      -5.098  13.321  19.088  0.00  0.00    +0.000 HD
ENDBRANCH  18  20
ENDBRANCH   2  18
TORSDOF 5
ENDMDL
MODEL 6
REMARK VINA RESULT:      -8.8      6.011      9.624
REMARK  Name = 
REMARK  6 active torsions:
REMARK  status: ('A' for Active; 'I' for Inactive)
REMARK    1  A    between atoms: C_1  and  C_2
REMARK    2  A    between atoms: C_2  and  N_3
REMARK    3  A    between atoms: C_2  and  C_15
REMARK    4  A    between atoms: N_3  and  C_4
REMARK    5  A    between atoms: C_17  and  C_18
REMARK    6  A    between atoms: C_22  and  C_23
REMARK                            x       y       z     vdW  Elec       q    Type
REMARK                         _______ _______ _______ _____ _____    ______ ____
ROOT
ATOM      1  C   UNL     1      -0.470   8.526  22.293  0.00  0.00    +0.000 C 
ATOM      2  C   UNL     1       0.634   9.386  21.663  0.00  0.00    +0.000 C 
ENDROOT
BRANCH   2   3
ATOM      3  C   UNL     1       0.098   9.975  20.386  0.00  0.00    +0.000 A 
ATOM      4  N   UNL     1      -1.064   9.778  19.802  0.00  0.00    +0.000 NA
ATOM      5  C   UNL     1      -0.990  10.614  18.710  0.00  0.00    +0.000 A 
ATOM      6  N   UNL     1       0.171  11.283  18.612  0.00  0.00    +0.000 NA
ATOM      7  O   UNL     1       0.899  10.851  19.717  0.00  0.00    +0.000 OA
BRANCH   5   8
ATOM      8  C   UNL     1      -2.084  10.725  17.755  0.00  0.00    +0.000 A 
ATOM      9  C   UNL     1      -2.010  10.118  16.495  0.00  0.00    +0.000 A 
ATOM     10  C   UNL     1      -3.074  10.216  15.598  0.00  0.00    +0.000 A 
ATOM     11  C   UNL     1      -4.229  10.912  15.956  0.00  0.00    +0.000 A 
ATOM     12  C   UNL     1      -4.332  11.521  17.214  0.00  0.00    +0.000 A 
ATOM     13  C   UNL     1      -3.246  11.434  18.099  0.00  0.00    +0.000 A 
BRANCH  12  14
ATOM     14  C   UNL     1      -5.588  12.243  17.637  0.00  0.00    +0.000 C 
ATOM     15  F   UNL     1      -5.458  12.916  18.814  0.00  0.00    +0.000 F 
ATOM     16  F   UNL     1      -5.983  13.172  16.720  0.00  0.00    +0.000 F 
ATOM     17  F   UNL     1      -6.646  11.404  17.800  0.00  0.00    +0.000 F 
ENDBRANCH  12  14
ENDBRANCH   5   8
ENDBRANCH   2   3
BRANCH   2  18
ATOM     18  N   UNL     1       1.855   8.577  21.436  0.00  0.00    +0.000 N 
ATOM     19  H   UNL     1       2.270   8.308  22.330  0.00  0.00    +0.000 HD
BRANCH  18  20
ATOM     20  C   UNL     1       1.884   7.531  20.511  0.00  0.00    +0.000 A 
ATOM     21  C   UNL     1       2.349   7.687  19.202  0.00  0.00    +0.000 A 
ATOM     22  C   UNL     1       2.473   6.601  18.330  0.00  0.00    +0.000 A 
ATOM     23  C   UNL     1       2.136   5.327  18.766  0.00  0.00    +0.000 A 
ATOM     24  C   UNL     1       1.691   5.122  20.072  0.00  0.00    +0.000 A 
ATOM     25  C   UNL     1       1.596   6.222  20.943  0.00  0.00    +0.000 A 
ATOM     26  C   UNL     1       1.458   3.711  20.543  0.00  0.00    +0.000 C 
ATOM     27  C   UNL     1       0.983   2.823  19.403  0.00  0.00    +0.000 C 
ATOM     28  C   UNL     1       1.844   2.975  18.174  0.00  0.00    +0.000 C 
ATOM     29  O   UNL     1       2.055   2.050  17.395  0.00  0.00    +0.000 OA
ATOM     30  N   UNL     1       2.284   4.244  17.896  0.00  0.00    +0.000 N 
ATOM     31  H   UNL     1       2.745   4.364  17.006  0.00  0.00    +0.000 HD
ENDBRANCH  18  20
ENDBRANCH   2  18
TORSDOF 5
ENDMDL
MODEL 7
REMARK VINA RESULT:      -8.7      3.897      5.495
REMARK  Name = 
REMARK  6 active torsions:
REMARK  status: ('A' for Active; 'I' for Inactive)
REMARK    1  A    between atoms: C_1  and  C_2
REMARK    2  A    between atoms: C_2  and  N_3
REMARK    3  A    between atoms: C_2  and  C_15
REMARK    4  A    between atoms: N_3  and  C_4
REMARK    5  A    between atoms: C_17  and  C_18
REMARK    6  A    between atoms: C_22  and  C_23
REMARK                            x       y       z     vdW  Elec       q    Type
REMARK                         _______ _______ _______ _____ _____    ______ ____
ROOT
ATOM      1  C   UNL     1       2.202  11.194  17.920  0.00  0.00    +0.000 C 
ATOM      2  C   UNL     1       1.134  10.328  18.603  0.00  0.00    +0.000 C 
ENDROOT
BRANCH   2   3
ATOM      3  C   UNL     1       1.699   8.945  18.785  0.00  0.00    +0.000 A 
ATOM      4  N   UNL     1       2.331   8.184  17.919  0.00  0.00    +0.000 NA
ATOM      5  C   UNL     1       2.637   7.073  18.672  0.00  0.00    +0.000 A 
ATOM      6  N   UNL     1       2.198   7.134  19.941  0.00  0.00    +0.000 NA
ATOM      7  O   UNL     1       1.564   8.372  20.014  0.00  0.00    +0.000 OA
BRANCH   5   8
ATOM      8  C   UNL     1       3.358   5.939  18.109  0.00  0.00    +0.000 A 
ATOM      9  C   UNL     1       4.294   6.115  17.082  0.00  0.00    +0.000 A 
ATOM     10  C   UNL     1       4.992   5.023  16.565  0.00  0.00    +0.000 A 
ATOM     11  C   UNL     1       4.771   3.745  17.079  0.00  0.00    +0.000 A 
ATOM     12  C   UNL     1       3.845   3.543  18.112  0.00  0.00    +0.000 A 
ATOM     13  C   UNL     1       3.133   4.647  18.608  0.00  0.00    +0.000 A 
BRANCH  12  14
ATOM     14  C   UNL     1       3.620   2.176  18.709  0.00  0.00    +0.000 C 
ATOM     15  F   UNL     1       3.619   1.173  17.788  0.00  0.00    +0.000 F 
ATOM     16  F   UNL     1       4.580   1.845  19.618  0.00  0.00    +0.000 F 
ATOM     17  F   UNL     1       2.433   2.079  19.368  0.00  0.00    +0.000 F 
ENDBRANCH  12  14
ENDBRANCH   5   8
ENDBRANCH   2   3
BRANCH   2  18
ATOM     18  N   UNL     1      -0.116  10.321  17.806  0.00  0.00    +0.000 N 
ATOM     19  H   UNL     1      -0.272   9.394  17.407  0.00  0.00    +0.000 HD
BRANCH  18  20
ATOM     20  C   UNL     1      -1.298  10.889  18.284  0.00  0.00    +0.000 A 
ATOM     21  C   UNL     1      -1.351  11.668  19.444  0.00  0.00    +0.000 A 
ATOM     22  C   UNL     1      -2.524  12.318  19.842  0.00  0.00    +0.000 A 
ATOM     23  C   UNL     1      -3.671  12.202  19.068  0.00  0.00    +0.000 A 
ATOM     24  C   UNL     1      -3.656  11.455  17.889  0.00  0.00    +0.000 A 
ATOM     25  C   UNL     1      -2.461  10.828  17.493  0.00  0.00    +0.000 A 
ATOM     26  C   UNL     1      -4.882  11.459  17.016  0.00  0.00    +0.000 C 
ATOM     27  C   UNL     1      -6.149  11.587  17.848  0.00  0.00    +0.000 C 
ATOM     28  C   UNL     1      -6.051  12.707  18.854  0.00  0.00    +0.000 C 
ATOM     29  O   UNL     1      -7.024  13.369  19.203  0.00  0.00    +0.000 OA
ATOM     30  N   UNL     1      -4.832  12.872  19.460  0.00  0.00    +0.000 N 
ATOM     31  H   UNL     1      -4.807  13.531  20.224  0.00  0.00    +0.000 HD
ENDBRANCH  18  20
ENDBRANCH   2  18
TORSDOF 5
ENDMDL
MODEL 8
REMARK VINA RESULT:      -8.6      0.849      1.590
REMARK  Name = 
REMARK  6 active torsions:
REMARK  status: ('A' for Active; 'I' for Inactive)
REMARK    1  A    between atoms: C_1  and  C_2
REMARK    2  A    between atoms: C_2  and  N_3
REMARK    3  A    between atoms: C_2  and  C_15
REMARK    4  A    between atoms: N_3  and  C_4
REMARK    5  A    between atoms: C_17  and  C_18
REMARK    6  A    between atoms: C_22  and  C_23
REMARK                            x       y       z     vdW  Elec       q    Type
REMARK                         _______ _______ _______ _____ _____    ______ ____
ROOT
ATOM      1  C   UNL     1       1.474   4.364  20.501  0.00  0.00    +0.000 C 
ATOM      2  C   UNL     1       1.887   5.409  19.455  0.00  0.00    +0.000 C 
ENDROOT
BRANCH   2   3
ATOM      3  C   UNL     1       2.864   4.764  18.510  0.00  0.00    +0.000 A 
ATOM      4  N   UNL     1       3.656   5.324  17.621  0.00  0.00    +0.000 NA
ATOM      5  C   UNL     1       4.334   4.242  17.107  0.00  0.00    +0.000 A 
ATOM      6  N   UNL     1       3.965   3.063  17.637  0.00  0.00    +0.000 NA
ATOM      7  O   UNL     1       2.982   3.407  18.561  0.00  0.00    +0.000 OA
BRANCH   5   8
ATOM      8  C   UNL     1       5.341   4.392  16.066  0.00  0.00    +0.000 A 
ATOM      9  C   UNL     1       6.588   4.967  16.343  0.00  0.00    +0.000 A 
ATOM     10  C   UNL     1       7.551   5.087  15.341  0.00  0.00    +0.000 A 
ATOM     11  C   UNL     1       7.283   4.621  14.054  0.00  0.00    +0.000 A 
ATOM     12  C   UNL     1       6.047   4.034  13.752  0.00  0.00    +0.000 A 
ATOM     13  C   UNL     1       5.078   3.939  14.764  0.00  0.00    +0.000 A 
BRANCH  12  14
ATOM     14  C   UNL     1       5.751   3.487  12.378  0.00  0.00    +0.000 C 
ATOM     15  F   UNL     1       5.932   2.140  12.278  0.00  0.00    +0.000 F 
ATOM     16  F   UNL     1       4.463   3.717  11.996  0.00  0.00    +0.000 F 
ATOM     17  F   UNL     1       6.532   4.042  11.412  0.00  0.00    +0.000 F 
ENDBRANCH  12  14
ENDBRANCH   5   8
ENDBRANCH   2   3
BRANCH   2  18
ATOM     18  N   UNL     1       2.457   6.607  20.117  0.00  0.00    +0.000 N 
ATOM     19  H   UNL     1       3.363   6.838  19.704  0.00  0.00    +0.000 HD
BRANCH  18  20
ATOM     20  C   UNL     1       1.690   7.748  20.363  0.00  0.00    +0.000 A 
ATOM     21  C   UNL     1       1.162   8.049  21.622  0.00  0.00    +0.000 A 
ATOM     22  C   UNL     1       0.492   9.252  21.870  0.00  0.00    +0.000 A 
ATOM     23  C   UNL     1       0.349  10.183  20.850  0.00  0.00    +0.000 A 
ATOM     24  C   UNL     1       0.883   9.933  19.585  0.00  0.00    +0.000 A 
ATOM     25  C   UNL     1       1.574   8.729  19.361  0.00  0.00    +0.000 A 
ATOM     26  C   UNL     1       0.817  11.020  18.546  0.00  0.00    +0.000 C 
ATOM     27  C   UNL     1      -0.434  11.868  18.717  0.00  0.00    +0.000 C 
ATOM     28  C   UNL     1      -0.625  12.310  20.147  0.00  0.00    +0.000 C 
ATOM     29  O   UNL     1      -1.143  13.382  20.445  0.00  0.00    +0.000 OA
ATOM     30  N   UNL     1      -0.301  11.391  21.112  0.00  0.00    +0.000 N 
ATOM     31  H   UNL     1      -0.554  11.639  22.057  0.00  0.00    +0.000 HD
ENDBRANCH  18  20
ENDBRANCH   2  18
TORSDOF 5
ENDMDL
MODEL 9
REMARK VINA RESULT:      -8.6      0.997      1.701
REMARK  Name = 
REMARK  6 active torsions:
REMARK  status: ('A' for Active; 'I' for Inactive)
REMARK    1  A    between atoms: C_1  and  C_2
REMARK    2  A    between atoms: C_2  and  N_3
REMARK    3  A    between atoms: C_2  and  C_15
REMARK    4  A    between atoms: N_3  and  C_4
REMARK    5  A    between atoms: C_17  and  C_18
REMARK    6  A    between atoms: C_22  and  C_23
REMARK                            x       y       z     vdW  Elec       q    Type
REMARK                         _______ _______ _______ _____ _____    ______ ____
ROOT
ATOM      1  C   UNL     1       1.970   3.666  21.144  0.00  0.00    +0.000 C 
ATOM      2  C   UNL     1       1.724   4.820  20.163  0.00  0.00    +0.000 C 
ENDROOT
BRANCH   2   3
ATOM      3  C   UNL     1       2.416   4.489  18.868  0.00  0.00    +0.000 A 
ATOM      4  N   UNL     1       3.577   4.906  18.413  0.00  0.00    +0.000 NA
ATOM      5  C   UNL     1       3.685   4.231  17.218  0.00  0.00    +0.000 A 
ATOM      6  N   UNL     1       2.631   3.447  16.935  0.00  0.00    +0.000 NA
ATOM      7  O   UNL     1       1.782   3.626  18.024  0.00  0.00    +0.000 OA
BRANCH   5   8
ATOM      8  C   UNL     1       4.844   4.390  16.351  0.00  0.00    +0.000 A 
ATOM      9  C   UNL     1       6.047   4.918  16.838  0.00  0.00    +0.000 A 
ATOM     10  C   UNL     1       7.155   5.046  16.000  0.00  0.00    +0.000 A 
ATOM     11  C   UNL     1       7.077   4.634  14.669  0.00  0.00    +0.000 A 
ATOM     12  C   UNL     1       5.889   4.095  14.159  0.00  0.00    +0.000 A 
ATOM     13  C   UNL     1       4.774   3.992  15.006  0.00  0.00    +0.000 A 
BRANCH  12  14
ATOM     14  C   UNL     1       5.795   3.606  12.735  0.00  0.00    +0.000 C 
ATOM     15  F   UNL     1       4.586   3.846  12.155  0.00  0.00    +0.000 F 
ATOM     16  F   UNL     1       6.718   4.197  11.924  0.00  0.00    +0.000 F 
ATOM     17  F   UNL     1       6.004   2.266  12.624  0.00  0.00    +0.000 F 
ENDBRANCH  12  14
ENDBRANCH   5   8
ENDBRANCH   2   3
BRANCH   2  18
ATOM     18  N   UNL     1       2.202   6.100  20.739  0.00  0.00    +0.000 N 
ATOM     19  H   UNL     1       3.168   6.275  20.455  0.00  0.00    +0.000 HD
BRANCH  18  20
ATOM     20  C   UNL     1       1.428   7.262  20.696  0.00  0.00    +0.000 A 
ATOM     21  C   UNL     1       0.486   7.582  21.678  0.00  0.00    +0.000 A 
ATOM     22  C   UNL     1      -0.198   8.803  21.672  0.00  0.00    +0.000 A 
ATOM     23  C   UNL     1       0.064   9.733  20.676  0.00  0.00    +0.000 A 
ATOM     24  C   UNL     1       1.015   9.464  19.690  0.00  0.00    +0.000 A 
ATOM     25  C   UNL     1       1.709   8.242  19.725  0.00  0.00    +0.000 A 
ATOM     26  C   UNL     1       1.359  10.548  18.704  0.00  0.00    +0.000 C 
ATOM     27  C   UNL     1       0.154  11.429  18.413  0.00  0.00    +0.000 C 
ATOM     28  C   UNL     1      -0.532  11.881  19.678  0.00  0.00    +0.000 C 
ATOM     29  O   UNL     1      -1.095  12.967  19.773  0.00  0.00    +0.000 OA
ATOM     30  N   UNL     1      -0.605  10.958  20.690  0.00  0.00    +0.000 N 
ATOM     31  H   UNL     1      -1.178  11.217  21.480  0.00  0.00    +0.000 HD
ENDBRANCH  18  20
ENDBRANCH   2  18
TORSDOF 5
ENDMDL
