MODEL 1
REMARK VINA RESULT:      -9.2      0.000      0.000
REMARK  Name = 
REMARK  6 active torsions:
REMARK  status: ('A' for Active; 'I' for Inactive)
REMARK    1  A    between atoms: C_2  and  C_3
REMARK    2  A    between atoms: C_6  and  C_7
REMARK    3  A    between atoms: N_9  and  C_10
REMARK    4  A    between atoms: C_14  and  C_15
REMARK    5  A    between atoms: N_17  and  C_18
REMARK    6  A    between atoms: C_22  and  C_23
REMARK                            x       y       z     vdW  Elec       q    Type
REMARK                         _______ _______ _______ _____ _____    ______ ____
ROOT
ATOM      1  C   UNL     1       2.032   5.171  20.678  0.00  0.00    +0.000 A 
ATOM      2  C   UNL     1       1.633   3.934  21.192  0.00  0.00    +0.000 A 
ATOM      3  C   UNL     1       2.309   2.758  20.857  0.00  0.00    +0.000 A 
ATOM      4  C   UNL     1       3.394   2.796  19.983  0.00  0.00    +0.000 A 
ATOM      5  C   UNL     1       3.779   4.016  19.422  0.00  0.00    +0.000 A 
ATOM      6  C   UNL     1       3.098   5.200  19.773  0.00  0.00    +0.000 A 
ENDROOT
BRANCH   1   9
ATOM      7  C   UNL     1       1.546   7.593  20.327  0.00  0.00    +0.000 C 
ATOM      8  O   UNL     1       2.177   7.745  19.287  0.00  0.00    +0.000 OA
ATOM      9  N   UNL     1       1.406   6.399  21.020  0.00  0.00    +0.000 N 
ATOM     10  H   UNL     1       0.787   6.371  21.818  0.00  0.00    +0.000 HD
BRANCH   7  14
ATOM     11  C   UNL     1      -0.355  11.009  22.139  0.00  0.00    +0.000 A 
ATOM     12  C   UNL     1       0.005  11.067  20.786  0.00  0.00    +0.000 A 
ATOM     13  C   UNL     1       0.621   9.971  20.160  0.00  0.00    +0.000 A 
ATOM     14  C   UNL     1       0.874   8.803  20.889  0.00  0.00    +0.000 A 
ATOM     15  C   UNL     1       0.523   8.760  22.250  0.00  0.00    +0.000 A 
ATOM     16  C   UNL     1      -0.091   9.851  22.871  0.00  0.00    +0.000 A 
BRANCH  11  18
ATOM     17  N   UNL     1      -1.491  13.042  23.286  0.00  0.00    +0.000 NA
ATOM     18  C   UNL     1      -0.983  12.132  22.770  0.00  0.00    +0.000 C 
ENDBRANCH  11  18
ENDBRANCH   7  14
ENDBRANCH   1   9
BRANCH   5  19
ATOM     19  C   UNL     1       4.938   4.122  18.494  0.00  0.00    +0.000 C 
ATOM     20  O   UNL     1       6.059   4.122  18.992  0.00  0.00    +0.000 OA
ATOM     21  N   UNL     1       4.631   4.281  17.151  0.00  0.00    +0.000 N 
ATOM     22  H   UNL     1       3.660   4.437  16.913  0.00  0.00    +0.000 HD
BRANCH  21  23
ATOM     23  C   UNL     1       5.566   4.444  16.100  0.00  0.00    +0.000 A 
ATOM     24  C   UNL     1       6.769   5.135  16.249  0.00  0.00    +0.000 A 
ATOM     25  C   UNL     1       7.634   5.313  15.165  0.00  0.00    +0.000 A 
ATOM     26  C   UNL     1       7.309   4.788  13.918  0.00  0.00    +0.000 A 
ATOM     27  C   UNL     1       6.125   4.058  13.747  0.00  0.00    +0.000 A 
ATOM     28  C   UNL     1       5.261   3.887  14.849  0.00  0.00    +0.000 A 
BRANCH  27  29
ATOM     29  C   UNL     1       5.776   3.466  12.405  0.00  0.00    +0.000 C 
ATOM     30  F   UNL     1       6.580   3.894  11.391  0.00  0.00    +0.000 F 
ATOM     31  F   UNL     1       5.861   2.107  12.399  0.00  0.00    +0.000 F 
ATOM     32  F   UNL     1       4.503   3.760  12.019  0.00  0.00    +0.000 F 
ENDBRANCH  27  29
ENDBRANCH  21  23
ENDBRANCH   5  19
TORSDOF 6
ENDMDL
MODEL 2
REMARK VINA RESULT:      -9.2      0.162      1.137
REMARK  Name = 
REMARK  6 active torsions:
REMARK  status: ('A' for Active; 'I' for Inactive)
REMARK    1  A    between atoms: C_2  and  C_3
REMARK    2  A    between atoms: C_6  and  C_7
REMARK    3  A    between atoms: N_9  and  C_10
REMARK    4  A    between atoms: C_14  and  C_15
REMARK    5  A    between atoms: N_17  and  C_18
REMARK    6  A    between atoms: C_22  and  C_23
REMARK                            x       y       z     vdW  Elec       q    Type
REMARK                         _______ _______ _______ _____ _____    ______ ____
ROOT
ATOM      1  C   UNL     1       2.120   5.114  20.703  0.00  0.00    +0.000 A 
ATOM      2  C   UNL     1       1.710   3.865  21.178  0.00  0.00    +0.000 A 
ATOM      3  C   UNL     1       2.363   2.692  20.788  0.00  0.00    +0.000 A 
ATOM      4  C   UNL     1       3.434   2.746  19.897  0.00  0.00    +0.000 A 
ATOM      5  C   UNL     1       3.828   3.981  19.375  0.00  0.00    +0.000 A 
ATOM      6  C   UNL     1       3.171   5.161  19.781  0.00  0.00    +0.000 A 
ENDROOT
BRANCH   1   9
ATOM      7  C   UNL     1       1.613   7.540  20.412  0.00  0.00    +0.000 C 
ATOM      8  O   UNL     1       2.172   7.704  19.334  0.00  0.00    +0.000 OA
ATOM      9  N   UNL     1       1.519   6.338  21.100  0.00  0.00    +0.000 N 
ATOM     10  H   UNL     1       0.955   6.301  21.937  0.00  0.00    +0.000 HD
BRANCH   7  14
ATOM     11  C   UNL     1      -0.229  11.092  22.013  0.00  0.00    +0.000 A 
ATOM     12  C   UNL     1      -0.137   9.949  22.818  0.00  0.00    +0.000 A 
ATOM     13  C   UNL     1       0.463   8.775  22.332  0.00  0.00    +0.000 A 
ATOM     14  C   UNL     1       0.980   8.743  21.032  0.00  0.00    +0.000 A 
ATOM     15  C   UNL     1       0.869   9.890  20.226  0.00  0.00    +0.000 A 
ATOM     16  C   UNL     1       0.274  11.057  20.711  0.00  0.00    +0.000 A 
BRANCH  11  18
ATOM     17  N   UNL     1      -1.338  13.256  22.920  0.00  0.00    +0.000 NA
ATOM     18  C   UNL     1      -0.842  12.285  22.515  0.00  0.00    +0.000 C 
ENDBRANCH  11  18
ENDBRANCH   7  14
ENDBRANCH   1   9
BRANCH   5  19
ATOM     19  C   UNL     1       4.973   4.103  18.432  0.00  0.00    +0.000 C 
ATOM     20  O   UNL     1       6.101   4.102  18.913  0.00  0.00    +0.000 OA
ATOM     21  N   UNL     1       4.646   4.278  17.095  0.00  0.00    +0.000 N 
ATOM     22  H   UNL     1       3.671   4.432  16.873  0.00  0.00    +0.000 HD
BRANCH  21  23
ATOM     23  C   UNL     1       5.565   4.458  16.033  0.00  0.00    +0.000 A 
ATOM     24  C   UNL     1       6.747   5.189  16.162  0.00  0.00    +0.000 A 
ATOM     25  C   UNL     1       7.594   5.381  15.068  0.00  0.00    +0.000 A 
ATOM     26  C   UNL     1       7.274   4.831  13.830  0.00  0.00    +0.000 A 
ATOM     27  C   UNL     1       6.113   4.063  13.679  0.00  0.00    +0.000 A 
ATOM     28  C   UNL     1       5.265   3.878  14.792  0.00  0.00    +0.000 A 
BRANCH  27  29
ATOM     29  C   UNL     1       5.769   3.445  12.347  0.00  0.00    +0.000 C 
ATOM     30  F   UNL     1       4.469   3.621  11.980  0.00  0.00    +0.000 F 
ATOM     31  F   UNL     1       6.516   3.957  11.330  0.00  0.00    +0.000 F 
ATOM     32  F   UNL     1       5.983   2.100  12.325  0.00  0.00    +0.000 F 
ENDBRANCH  27  29
ENDBRANCH  21  23
ENDBRANCH   5  19
TORSDOF 6
ENDMDL
MODEL 3
REMARK VINA RESULT:      -8.9      3.938      6.495
REMARK  Name = 
REMARK  6 active torsions:
REMARK  status: ('A' for Active; 'I' for Inactive)
REMARK    1  A    between atoms: C_2  and  C_3
REMARK    2  A    between atoms: C_6  and  C_7
REMARK    3  A    between atoms: N_9  and  C_10
REMARK    4  A    between atoms: C_14  and  C_15
REMARK    5  A    between atoms: N_17  and  C_18
REMARK    6  A    between atoms: C_22  and  C_23
REMARK                            x       y       z     vdW  Elec       q    Type
REMARK                         _______ _______ _______ _____ _____    ______ ____
ROOT
ATOM      1  C   UNL     1      -0.347  11.374  19.859  0.00  0.00    +0.000 A 
ATOM      2  C   UNL     1       0.346  12.254  19.023  0.00  0.00    +0.000 A 
ATOM      3  C   UNL     1       1.469  11.835  18.304  0.00  0.00    +0.000 A 
ATOM      4  C   UNL     1       1.931  10.526  18.420  0.00  0.00    +0.000 A 
ATOM      5  C   UNL     1       1.279   9.645  19.286  0.00  0.00    +0.000 A 
ATOM      6  C   UNL     1       0.141  10.070  20.001  0.00  0.00    +0.000 A 
ENDROOT
BRANCH   1   9
ATOM      7  C   UNL     1      -1.550  12.163  21.898  0.00  0.00    +0.000 C 
ATOM      8  O   UNL     1      -0.571  12.349  22.613  0.00  0.00    +0.000 OA
ATOM      9  N   UNL     1      -1.517  11.736  20.578  0.00  0.00    +0.000 N 
ATOM     10  H   UNL     1      -2.382  11.704  20.057  0.00  0.00    +0.000 HD
BRANCH   7  14
ATOM     11  C   UNL     1      -5.495  12.882  23.475  0.00  0.00    +0.000 A 
ATOM     12  C   UNL     1      -4.453  12.571  24.360  0.00  0.00    +0.000 A 
ATOM     13  C   UNL     1      -3.153  12.336  23.882  0.00  0.00    +0.000 A 
ATOM     14  C   UNL     1      -2.889  12.419  22.510  0.00  0.00    +0.000 A 
ATOM     15  C   UNL     1      -3.943  12.717  21.629  0.00  0.00    +0.000 A 
ATOM     16  C   UNL     1      -5.236  12.951  22.106  0.00  0.00    +0.000 A 
BRANCH  11  18
ATOM     17  N   UNL     1      -7.892  13.310  24.373  0.00  0.00    +0.000 NA
ATOM     18  C   UNL     1      -6.818  13.120  23.969  0.00  0.00    +0.000 C 
ENDBRANCH  11  18
ENDBRANCH   7  14
ENDBRANCH   1   9
BRANCH   5  19
ATOM     19  C   UNL     1       1.717   8.230  19.441  0.00  0.00    +0.000 C 
ATOM     20  O   UNL     1       1.727   7.765  20.576  0.00  0.00    +0.000 OA
ATOM     21  N   UNL     1       2.142   7.593  18.285  0.00  0.00    +0.000 N 
ATOM     22  H   UNL     1       2.241   8.161  17.453  0.00  0.00    +0.000 HD
BRANCH  21  23
ATOM     23  C   UNL     1       2.640   6.270  18.201  0.00  0.00    +0.000 A 
ATOM     24  C   UNL     1       3.868   5.951  17.619  0.00  0.00    +0.000 A 
ATOM     25  C   UNL     1       4.290   4.624  17.515  0.00  0.00    +0.000 A 
ATOM     26  C   UNL     1       3.491   3.596  18.007  0.00  0.00    +0.000 A 
ATOM     27  C   UNL     1       2.270   3.888  18.629  0.00  0.00    +0.000 A 
ATOM     28  C   UNL     1       1.856   5.233  18.726  0.00  0.00    +0.000 A 
BRANCH  27  29
ATOM     29  C   UNL     1       1.408   2.782  19.185  0.00  0.00    +0.000 C 
ATOM     30  F   UNL     1       2.062   1.594  19.322  0.00  0.00    +0.000 F 
ATOM     31  F   UNL     1       0.915   3.080  20.419  0.00  0.00    +0.000 F 
ATOM     32  F   UNL     1       0.324   2.521  18.404  0.00  0.00    +0.000 F 
ENDBRANCH  27  29
ENDBRANCH  21  23
ENDBRANCH   5  19
TORSDOF 6
ENDMDL
MODEL 4
REMARK VINA RESULT:      -8.9      1.046      1.599
REMARK  Name = 
REMARK  6 active torsions:
REMARK  status: ('A' for Active; 'I' for Inactive)
REMARK    1  A    between atoms: C_2  and  C_3
REMARK    2  A    between atoms: C_6  and  C_7
REMARK    3  A    between atoms: N_9  and  C_10
REMARK    4  A    between atoms: C_14  and  C_15
REMARK    5  A    between atoms: N_17  and  C_18
REMARK    6  A    between atoms: C_22  and  C_23
REMARK                            x       y       z     vdW  Elec       q    Type
REMARK                         _______ _______ _______ _____ _____    ______ ____
ROOT
ATOM      1  C   UNL     1       2.166   5.974  20.402  0.00  0.00    +0.000 A 
ATOM      2  C   UNL     1       2.179   4.699  20.975  0.00  0.00    +0.000 A 
ATOM      3  C   UNL     1       2.920   3.658  20.407  0.00  0.00    +0.000 A 
ATOM      4  C   UNL     1       3.652   3.870  19.241  0.00  0.00    +0.000 A 
ATOM      5  C   UNL     1       3.614   5.125  18.628  0.00  0.00    +0.000 A 
ATOM      6  C   UNL     1       2.873   6.173  19.211  0.00  0.00    +0.000 A 
ENDROOT
BRANCH   1   9
ATOM      7  C   UNL     1       1.335   8.326  20.374  0.00  0.00    +0.000 C 
ATOM      8  O   UNL     1       1.750   8.642  19.265  0.00  0.00    +0.000 OA
ATOM      9  N   UNL     1       1.467   7.075  20.961  0.00  0.00    +0.000 N 
ATOM     10  H   UNL     1       1.006   6.903  21.844  0.00  0.00    +0.000 HD
BRANCH   7  14
ATOM     11  C   UNL     1      -0.712  11.496  22.455  0.00  0.00    +0.000 A 
ATOM     12  C   UNL     1      -0.595  10.242  23.069  0.00  0.00    +0.000 A 
ATOM     13  C   UNL     1       0.071   9.186  22.423  0.00  0.00    +0.000 A 
ATOM     14  C   UNL     1       0.631   9.387  21.156  0.00  0.00    +0.000 A 
ATOM     15  C   UNL     1       0.495  10.644  20.542  0.00  0.00    +0.000 A 
ATOM     16  C   UNL     1      -0.167  11.693  21.186  0.00  0.00    +0.000 A 
BRANCH  11  18
ATOM     17  N   UNL     1      -1.948  13.436  23.658  0.00  0.00    +0.000 NA
ATOM     18  C   UNL     1      -1.393  12.567  23.120  0.00  0.00    +0.000 C 
ENDBRANCH  11  18
ENDBRANCH   7  14
ENDBRANCH   1   9
BRANCH   5  19
ATOM     19  C   UNL     1       4.386   5.416  17.389  0.00  0.00    +0.000 C 
ATOM     20  O   UNL     1       4.402   6.578  16.995  0.00  0.00    +0.000 OA
ATOM     21  N   UNL     1       4.959   4.322  16.757  0.00  0.00    +0.000 N 
ATOM     22  H   UNL     1       4.714   3.405  17.105  0.00  0.00    +0.000 HD
BRANCH  21  23
ATOM     23  C   UNL     1       5.697   4.355  15.549  0.00  0.00    +0.000 A 
ATOM     24  C   UNL     1       6.956   4.949  15.438  0.00  0.00    +0.000 A 
ATOM     25  C   UNL     1       7.620   5.000  14.210  0.00  0.00    +0.000 A 
ATOM     26  C   UNL     1       7.036   4.444  13.076  0.00  0.00    +0.000 A 
ATOM     27  C   UNL     1       5.789   3.810  13.163  0.00  0.00    +0.000 A 
ATOM     28  C   UNL     1       5.130   3.766  14.410  0.00  0.00    +0.000 A 
BRANCH  27  29
ATOM     29  C   UNL     1       5.159   3.185  11.944  0.00  0.00    +0.000 C 
ATOM     30  F   UNL     1       3.799   3.129  11.997  0.00  0.00    +0.000 F 
ATOM     31  F   UNL     1       5.459   3.862  10.801  0.00  0.00    +0.000 F 
ATOM     32  F   UNL     1       5.577   1.905  11.738  0.00  0.00    +0.000 F 
ENDBRANCH  27  29
ENDBRANCH  21  23
ENDBRANCH   5  19
TORSDOF 6
ENDMDL
MODEL 5
REMARK VINA RESULT:      -8.6      4.180      7.000
REMARK  Name = 
REMARK  6 active torsions:
REMARK  status: ('A' for Active; 'I' for Inactive)
REMARK    1  A    between atoms: C_2  and  C_3
REMARK    2  A    between atoms: C_6  and  C_7
REMARK    3  A    between atoms: N_9  and  C_10
REMARK    4  A    between atoms: C_14  and  C_15
REMARK    5  A    between atoms: N_17  and  C_18
REMARK    6  A    between atoms: C_22  and  C_23
REMARK                            x       y       z     vdW  Elec       q    Type
REMARK                         _______ _______ _______ _____ _____    ______ ____
ROOT
ATOM      1  C   UNL     1      -0.154  12.128  19.943  0.00  0.00    +0.000 A 
ATOM      2  C   UNL     1       0.774  13.129  19.643  0.00  0.00    +0.000 A 
ATOM      3  C   UNL     1       1.917  12.854  18.887  0.00  0.00    +0.000 A 
ATOM      4  C   UNL     1       2.162  11.561  18.428  0.00  0.00    +0.000 A 
ATOM      5  C   UNL     1       1.269  10.538  18.757  0.00  0.00    +0.000 A 
ATOM      6  C   UNL     1       0.113  10.824  19.511  0.00  0.00    +0.000 A 
ENDROOT
BRANCH   1   9
ATOM      7  C   UNL     1      -1.469  12.350  22.052  0.00  0.00    +0.000 C 
ATOM      8  O   UNL     1      -0.547  12.196  22.845  0.00  0.00    +0.000 OA
ATOM      9  N   UNL     1      -1.351  12.363  20.669  0.00  0.00    +0.000 N 
ATOM     10  H   UNL     1      -2.166  12.590  20.115  0.00  0.00    +0.000 HD
BRANCH   7  14
ATOM     11  C   UNL     1      -5.480  12.875  23.537  0.00  0.00    +0.000 A 
ATOM     12  C   UNL     1      -4.454  12.565  24.439  0.00  0.00    +0.000 A 
ATOM     13  C   UNL     1      -3.133  12.393  23.992  0.00  0.00    +0.000 A 
ATOM     14  C   UNL     1      -2.833  12.538  22.633  0.00  0.00    +0.000 A 
ATOM     15  C   UNL     1      -3.871  12.834  21.733  0.00  0.00    +0.000 A 
ATOM     16  C   UNL     1      -5.184  13.006  22.179  0.00  0.00    +0.000 A 
BRANCH  11  18
ATOM     17  N   UNL     1      -7.915  13.193  24.375  0.00  0.00    +0.000 NA
ATOM     18  C   UNL     1      -6.824  13.049  24.000  0.00  0.00    +0.000 C 
ENDBRANCH  11  18
ENDBRANCH   7  14
ENDBRANCH   1   9
BRANCH   5  19
ATOM     19  C   UNL     1       1.470   9.141  18.283  0.00  0.00    +0.000 C 
ATOM     20  O   UNL     1       0.774   8.757  17.348  0.00  0.00    +0.000 OA
ATOM     21  N   UNL     1       2.384   8.380  18.997  0.00  0.00    +0.000 N 
ATOM     22  H   UNL     1       2.752   8.779  19.851  0.00  0.00    +0.000 HD
BRANCH  21  23
ATOM     23  C   UNL     1       2.701   7.021  18.755  0.00  0.00    +0.000 A 
ATOM     24  C   UNL     1       3.574   6.609  17.747  0.00  0.00    +0.000 A 
ATOM     25  C   UNL     1       3.813   5.252  17.515  0.00  0.00    +0.000 A 
ATOM     26  C   UNL     1       3.190   4.288  18.302  0.00  0.00    +0.000 A 
ATOM     27  C   UNL     1       2.338   4.673  19.345  0.00  0.00    +0.000 A 
ATOM     28  C   UNL     1       2.104   6.046  19.567  0.00  0.00    +0.000 A 
BRANCH  27  29
ATOM     29  C   UNL     1       1.676   3.635  20.217  0.00  0.00    +0.000 C 
ATOM     30  F   UNL     1       2.300   2.424  20.198  0.00  0.00    +0.000 F 
ATOM     31  F   UNL     1       1.631   4.010  21.526  0.00  0.00    +0.000 F 
ATOM     32  F   UNL     1       0.385   3.395  19.856  0.00  0.00    +0.000 F 
ENDBRANCH  27  29
ENDBRANCH  21  23
ENDBRANCH   5  19
TORSDOF 6
ENDMDL
MODEL 6
REMARK VINA RESULT:      -8.6      3.382      5.910
REMARK  Name = 
REMARK  6 active torsions:
REMARK  status: ('A' for Active; 'I' for Inactive)
REMARK    1  A    between atoms: C_2  and  C_3
REMARK    2  A    between atoms: C_6  and  C_7
REMARK    3  A    between atoms: N_9  and  C_10
REMARK    4  A    between atoms: C_14  and  C_15
REMARK    5  A    between atoms: N_17  and  C_18
REMARK    6  A    between atoms: C_22  and  C_23
REMARK                            x       y       z     vdW  Elec       q    Type
REMARK                         _______ _______ _______ _____ _____    ______ ____
ROOT
ATOM      1  C   UNL     1      -0.213  11.409  19.818  0.00  0.00    +0.000 A 
ATOM      2  C   UNL     1       0.506  12.341  19.066  0.00  0.00    +0.000 A 
ATOM      3  C   UNL     1       1.636  11.966  18.335  0.00  0.00    +0.000 A 
ATOM      4  C   UNL     1       2.081  10.645  18.357  0.00  0.00    +0.000 A 
ATOM      5  C   UNL     1       1.403   9.708  19.141  0.00  0.00    +0.000 A 
ATOM      6  C   UNL     1       0.258  10.092  19.867  0.00  0.00    +0.000 A 
ENDROOT
BRANCH   1   9
ATOM      7  C   UNL     1      -1.427  12.279  21.817  0.00  0.00    +0.000 C 
ATOM      8  O   UNL     1      -0.452  12.624  22.474  0.00  0.00    +0.000 OA
ATOM      9  N   UNL     1      -1.391  11.729  20.543  0.00  0.00    +0.000 N 
ATOM     10  H   UNL     1      -2.264  11.566  20.060  0.00  0.00    +0.000 HD
BRANCH   7  14
ATOM     11  C   UNL     1      -5.375  12.820  23.459  0.00  0.00    +0.000 A 
ATOM     12  C   UNL     1      -4.327  12.446  24.311  0.00  0.00    +0.000 A 
ATOM     13  C   UNL     1      -3.026  12.266  23.812  0.00  0.00    +0.000 A 
ATOM     14  C   UNL     1      -2.767  12.468  22.452  0.00  0.00    +0.000 A 
ATOM     15  C   UNL     1      -3.827  12.828  21.602  0.00  0.00    +0.000 A 
ATOM     16  C   UNL     1      -5.120  13.008  22.099  0.00  0.00    +0.000 A 
BRANCH  11  18
ATOM     17  N   UNL     1      -7.775  13.146  24.390  0.00  0.00    +0.000 NA
ATOM     18  C   UNL     1      -6.699  13.001  23.974  0.00  0.00    +0.000 C 
ENDBRANCH  11  18
ENDBRANCH   7  14
ENDBRANCH   1   9
BRANCH   5  19
ATOM     19  C   UNL     1       1.822   8.280  19.193  0.00  0.00    +0.000 C 
ATOM     20  O   UNL     1       1.643   7.679  20.248  0.00  0.00    +0.000 OA
ATOM     21  N   UNL     1       2.444   7.785  18.056  0.00  0.00    +0.000 N 
ATOM     22  H   UNL     1       2.678   8.449  17.330  0.00  0.00    +0.000 HD
BRANCH  21  23
ATOM     23  C   UNL     1       2.961   6.476  17.897  0.00  0.00    +0.000 A 
ATOM     24  C   UNL     1       2.208   5.324  18.124  0.00  0.00    +0.000 A 
ATOM     25  C   UNL     1       2.781   4.056  18.004  0.00  0.00    +0.000 A 
ATOM     26  C   UNL     1       4.118   3.925  17.639  0.00  0.00    +0.000 A 
ATOM     27  C   UNL     1       4.890   5.063  17.369  0.00  0.00    +0.000 A 
ATOM     28  C   UNL     1       4.298   6.337  17.496  0.00  0.00    +0.000 A 
BRANCH  27  29
ATOM     29  C   UNL     1       6.333   4.929  16.952  0.00  0.00    +0.000 C 
ATOM     30  F   UNL     1       6.926   6.117  16.643  0.00  0.00    +0.000 F 
ATOM     31  F   UNL     1       7.104   4.370  17.925  0.00  0.00    +0.000 F 
ATOM     32  F   UNL     1       6.489   4.139  15.854  0.00  0.00    +0.000 F 
ENDBRANCH  27  29
ENDBRANCH  21  23
ENDBRANCH   5  19
TORSDOF 6
ENDMDL
MODEL 7
REMARK VINA RESULT:      -8.6      1.206      1.727
REMARK  Name = 
REMARK  6 active torsions:
REMARK  status: ('A' for Active; 'I' for Inactive)
REMARK    1  A    between atoms: C_2  and  C_3
REMARK    2  A    between atoms: C_6  and  C_7
REMARK    3  A    between atoms: N_9  and  C_10
REMARK    4  A    between atoms: C_14  and  C_15
REMARK    5  A    between atoms: N_17  and  C_18
REMARK    6  A    between atoms: C_22  and  C_23
REMARK                            x       y       z     vdW  Elec       q    Type
REMARK                         _______ _______ _______ _____ _____    ______ ____
ROOT
ATOM      1  C   UNL     1       2.779   5.576  19.809  0.00  0.00    +0.000 A 
ATOM      2  C   UNL     1       2.914   4.310  20.385  0.00  0.00    +0.000 A 
ATOM      3  C   UNL     1       3.682   3.315  19.774  0.00  0.00    +0.000 A 
ATOM      4  C   UNL     1       4.320   3.564  18.561  0.00  0.00    +0.000 A 
ATOM      5  C   UNL     1       4.159   4.809  17.946  0.00  0.00    +0.000 A 
ATOM      6  C   UNL     1       3.391   5.811  18.573  0.00  0.00    +0.000 A 
ENDROOT
BRANCH   1   9
ATOM      7  C   UNL     1       1.821   7.880  19.839  0.00  0.00    +0.000 C 
ATOM      8  O   UNL     1       2.168   8.225  18.714  0.00  0.00    +0.000 OA
ATOM      9  N   UNL     1       2.046   6.634  20.408  0.00  0.00    +0.000 N 
ATOM     10  H   UNL     1       1.636   6.432  21.309  0.00  0.00    +0.000 HD
BRANCH   7  14
ATOM     11  C   UNL     1      -0.339  10.894  22.033  0.00  0.00    +0.000 A 
ATOM     12  C   UNL     1       0.132   9.763  22.712  0.00  0.00    +0.000 A 
ATOM     13  C   UNL     1       0.845   8.762  22.031  0.00  0.00    +0.000 A 
ATOM     14  C   UNL     1       1.096   8.896  20.660  0.00  0.00    +0.000 A 
ATOM     15  C   UNL     1       0.606  10.028  19.985  0.00  0.00    +0.000 A 
ATOM     16  C   UNL     1      -0.102  11.022  20.664  0.00  0.00    +0.000 A 
BRANCH  11  18
ATOM     17  N   UNL     1      -1.654  12.735  23.306  0.00  0.00    +0.000 NA
ATOM     18  C   UNL     1      -1.067  11.910  22.735  0.00  0.00    +0.000 C 
ENDBRANCH  11  18
ENDBRANCH   7  14
ENDBRANCH   1   9
BRANCH   5  19
ATOM     19  C   UNL     1       4.827   5.138  16.657  0.00  0.00    +0.000 C 
ATOM     20  O   UNL     1       4.742   6.296  16.259  0.00  0.00    +0.000 OA
ATOM     21  N   UNL     1       5.426   4.079  15.992  0.00  0.00    +0.000 N 
ATOM     22  H   UNL     1       5.263   3.150  16.359  0.00  0.00    +0.000 HD
BRANCH  21  23
ATOM     23  C   UNL     1       6.078   4.149  14.737  0.00  0.00    +0.000 A 
ATOM     24  C   UNL     1       7.061   5.094  14.439  0.00  0.00    +0.000 A 
ATOM     25  C   UNL     1       7.636   5.154  13.167  0.00  0.00    +0.000 A 
ATOM     26  C   UNL     1       7.243   4.257  12.179  0.00  0.00    +0.000 A 
ATOM     27  C   UNL     1       6.285   3.274  12.459  0.00  0.00    +0.000 A 
ATOM     28  C   UNL     1       5.712   3.225  13.747  0.00  0.00    +0.000 A 
BRANCH  27  29
ATOM     29  C   UNL     1       5.870   2.283  11.401  0.00  0.00    +0.000 C 
ATOM     30  F   UNL     1       6.804   2.099  10.426  0.00  0.00    +0.000 F 
ATOM     31  F   UNL     1       5.622   1.047  11.917  0.00  0.00    +0.000 F 
ATOM     32  F   UNL     1       4.729   2.653  10.758  0.00  0.00    +0.000 F 
ENDBRANCH  27  29
ENDBRANCH  21  23
ENDBRANCH   5  19
TORSDOF 6
ENDMDL
MODEL 8
REMARK VINA RESULT:      -8.5      4.034      6.698
REMARK  Name = 
REMARK  6 active torsions:
REMARK  status: ('A' for Active; 'I' for Inactive)
REMARK    1  A    between atoms: C_2  and  C_3
REMARK    2  A    between atoms: C_6  and  C_7
REMARK    3  A    between atoms: N_9  and  C_10
REMARK    4  A    between atoms: C_14  and  C_15
REMARK    5  A    between atoms: N_17  and  C_18
REMARK    6  A    between atoms: C_22  and  C_23
REMARK                            x       y       z     vdW  Elec       q    Type
REMARK                         _______ _______ _______ _____ _____    ______ ____
ROOT
ATOM      1  C   UNL     1      -0.178  12.231  19.674  0.00  0.00    +0.000 A 
ATOM      2  C   UNL     1       0.775  13.228  19.449  0.00  0.00    +0.000 A 
ATOM      3  C   UNL     1       1.951  12.960  18.743  0.00  0.00    +0.000 A 
ATOM      4  C   UNL     1       2.203  11.678  18.258  0.00  0.00    +0.000 A 
ATOM      5  C   UNL     1       1.284  10.657  18.513  0.00  0.00    +0.000 A 
ATOM      6  C   UNL     1       0.096  10.936  19.218  0.00  0.00    +0.000 A 
ENDROOT
BRANCH   1   9
ATOM      7  C   UNL     1      -1.607  12.344  21.716  0.00  0.00    +0.000 C 
ATOM      8  O   UNL     1      -0.742  12.089  22.546  0.00  0.00    +0.000 OA
ATOM      9  N   UNL     1      -1.406  12.460  20.347  0.00  0.00    +0.000 N 
ATOM     10  H   UNL     1      -2.177  12.763  19.768  0.00  0.00    +0.000 HD
BRANCH   7  14
ATOM     11  C   UNL     1      -5.531  12.949  23.391  0.00  0.00    +0.000 A 
ATOM     12  C   UNL     1      -5.365  13.019  22.002  0.00  0.00    +0.000 A 
ATOM     13  C   UNL     1      -4.101  12.822  21.419  0.00  0.00    +0.000 A 
ATOM     14  C   UNL     1      -2.996  12.544  22.231  0.00  0.00    +0.000 A 
ATOM     15  C   UNL     1      -3.170  12.491  23.625  0.00  0.00    +0.000 A 
ATOM     16  C   UNL     1      -4.427  12.686  24.203  0.00  0.00    +0.000 A 
BRANCH  11  18
ATOM     17  N   UNL     1      -7.869  13.318  24.456  0.00  0.00    +0.000 NA
ATOM     18  C   UNL     1      -6.823  13.152  23.977  0.00  0.00    +0.000 C 
ENDBRANCH  11  18
ENDBRANCH   7  14
ENDBRANCH   1   9
BRANCH   5  19
ATOM     19  C   UNL     1       1.493   9.272  18.009  0.00  0.00    +0.000 C 
ATOM     20  O   UNL     1       0.617   8.795  17.293  0.00  0.00    +0.000 OA
ATOM     21  N   UNL     1       2.633   8.624  18.459  0.00  0.00    +0.000 N 
ATOM     22  H   UNL     1       3.171   9.082  19.184  0.00  0.00    +0.000 HD
BRANCH  21  23
ATOM     23  C   UNL     1       3.011   7.295  18.147  0.00  0.00    +0.000 A 
ATOM     24  C   UNL     1       4.098   6.982  17.331  0.00  0.00    +0.000 A 
ATOM     25  C   UNL     1       4.397   5.655  17.011  0.00  0.00    +0.000 A 
ATOM     26  C   UNL     1       3.616   4.620  17.518  0.00  0.00    +0.000 A 
ATOM     27  C   UNL     1       2.539   4.902  18.370  0.00  0.00    +0.000 A 
ATOM     28  C   UNL     1       2.249   6.246  18.683  0.00  0.00    +0.000 A 
BRANCH  27  29
ATOM     29  C   UNL     1       1.701   3.787  18.942  0.00  0.00    +0.000 C 
ATOM     30  F   UNL     1       2.432   2.727  19.391  0.00  0.00    +0.000 F 
ATOM     31  F   UNL     1       0.948   4.194  20.001  0.00  0.00    +0.000 F 
ATOM     32  F   UNL     1       0.823   3.275  18.036  0.00  0.00    +0.000 F 
ENDBRANCH  27  29
ENDBRANCH  21  23
ENDBRANCH   5  19
TORSDOF 6
ENDMDL
MODEL 9
REMARK VINA RESULT:      -8.5      4.143      6.741
REMARK  Name = 
REMARK  6 active torsions:
REMARK  status: ('A' for Active; 'I' for Inactive)
REMARK    1  A    between atoms: C_2  and  C_3
REMARK    2  A    between atoms: C_6  and  C_7
REMARK    3  A    between atoms: N_9  and  C_10
REMARK    4  A    between atoms: C_14  and  C_15
REMARK    5  A    between atoms: N_17  and  C_18
REMARK    6  A    between atoms: C_22  and  C_23
REMARK                            x       y       z     vdW  Elec       q    Type
REMARK                         _______ _______ _______ _____ _____    ______ ____
ROOT
ATOM      1  C   UNL     1      -0.464  11.235  19.980  0.00  0.00    +0.000 A 
ATOM      2  C   UNL     1       0.165  12.033  19.021  0.00  0.00    +0.000 A 
ATOM      3  C   UNL     1       1.274  11.570  18.308  0.00  0.00    +0.000 A 
ATOM      4  C   UNL     1       1.787  10.297  18.553  0.00  0.00    +0.000 A 
ATOM      5  C   UNL     1       1.200   9.503  19.541  0.00  0.00    +0.000 A 
ATOM      6  C   UNL     1       0.075   9.973  20.250  0.00  0.00    +0.000 A 
ENDROOT
BRANCH   1   9
ATOM      7  C   UNL     1      -1.629  12.086  22.016  0.00  0.00    +0.000 C 
ATOM      8  O   UNL     1      -0.642  12.251  22.723  0.00  0.00    +0.000 OA
ATOM      9  N   UNL     1      -1.618  11.641  20.701  0.00  0.00    +0.000 N 
ATOM     10  H   UNL     1      -2.487  11.629  20.186  0.00  0.00    +0.000 HD
BRANCH   7  14
ATOM     11  C   UNL     1      -5.540  12.953  23.605  0.00  0.00    +0.000 A 
ATOM     12  C   UNL     1      -4.519  12.561  24.482  0.00  0.00    +0.000 A 
ATOM     13  C   UNL     1      -3.230  12.276  24.000  0.00  0.00    +0.000 A 
ATOM     14  C   UNL     1      -2.956  12.390  22.632  0.00  0.00    +0.000 A 
ATOM     15  C   UNL     1      -3.991  12.769  21.759  0.00  0.00    +0.000 A 
ATOM     16  C   UNL     1      -5.271  13.053  22.239  0.00  0.00    +0.000 A 
BRANCH  11  18
ATOM     17  N   UNL     1      -7.916  13.474  24.510  0.00  0.00    +0.000 NA
ATOM     18  C   UNL     1      -6.852  13.242  24.103  0.00  0.00    +0.000 C 
ENDBRANCH  11  18
ENDBRANCH   7  14
ENDBRANCH   1   9
BRANCH   5  19
ATOM     19  C   UNL     1       1.694   8.130  19.838  0.00  0.00    +0.000 C 
ATOM     20  O   UNL     1       1.513   7.700  20.973  0.00  0.00    +0.000 OA
ATOM     21  N   UNL     1       2.379   7.493  18.814  0.00  0.00    +0.000 N 
ATOM     22  H   UNL     1       2.600   8.042  17.994  0.00  0.00    +0.000 HD
BRANCH  21  23
ATOM     23  C   UNL     1       2.972   6.209  18.885  0.00  0.00    +0.000 A 
ATOM     24  C   UNL     1       4.075   5.834  18.117  0.00  0.00    +0.000 A 
ATOM     25  C   UNL     1       4.590   4.537  18.186  0.00  0.00    +0.000 A 
ATOM     26  C   UNL     1       4.013   3.600  19.039  0.00  0.00    +0.000 A 
ATOM     27  C   UNL     1       2.928   3.959  19.850  0.00  0.00    +0.000 A 
ATOM     28  C   UNL     1       2.418   5.271  19.769  0.00  0.00    +0.000 A 
BRANCH  27  29
ATOM     29  C   UNL     1       2.312   2.957  20.793  0.00  0.00    +0.000 C 
ATOM     30  F   UNL     1       1.614   1.969  20.165  0.00  0.00    +0.000 F 
ATOM     31  F   UNL     1       3.243   2.325  21.560  0.00  0.00    +0.000 F 
ATOM     32  F   UNL     1       1.439   3.531  21.667  0.00  0.00    +0.000 F 
ENDBRANCH  27  29
ENDBRANCH  21  23
ENDBRANCH   5  19
TORSDOF 6
ENDMDL
