MODEL 1
REMARK VINA RESULT:      -9.2      0.000      0.000
REMARK  Name = 
REMARK  4 active torsions:
REMARK  status: ('A' for Active; 'I' for Inactive)
REMARK    1  A    between atoms: C_2  and  C_19
REMARK    2  A    between atoms: N_3  and  C_4
REMARK    3  A    between atoms: C_8  and  S_9
REMARK    4  A    between atoms: S_9  and  N_12
REMARK                            x       y       z     vdW  Elec       q    Type
REMARK                         _______ _______ _______ _____ _____    ______ ____
ROOT
ATOM      1  O   UNL     1       2.013   7.491  20.182  0.00  0.00    +0.000 OA
ATOM      2  C   UNL     1       2.094   8.106  19.125  0.00  0.00    +0.000 C 
ATOM      3  N   UNL     1       2.782   7.706  17.988  0.00  0.00    +0.000 N 
ATOM      4  H   UNL     1       2.634   8.270  17.161  0.00  0.00    +0.000 HD
ENDROOT
BRANCH   2   5
ATOM      5  C   UNL     1       1.237   9.239  18.854  0.00  0.00    +0.000 A 
ATOM      6  N   UNL     1       1.484  10.082  17.786  0.00  0.00    +0.000 N 
ATOM      7  C   UNL     1       1.715  11.303  18.391  0.00  0.00    +0.000 A 
ATOM      8  C   UNL     1       2.588  12.334  18.034  0.00  0.00    +0.000 A 
ATOM      9  C   UNL     1       2.784  13.331  18.987  0.00  0.00    +0.000 A 
ATOM     10  C   UNL     1       2.050  13.358  20.175  0.00  0.00    +0.000 A 
ATOM     11  C   UNL     1       1.101  12.371  20.467  0.00  0.00    +0.000 A 
ATOM     12  C   UNL     1       0.984  11.283  19.579  0.00  0.00    +0.000 A 
ATOM     13  C   UNL     1       0.420   9.978  19.692  0.00  0.00    +0.000 A 
ATOM     14 CL   UNL     1      -0.461   9.419  21.041  0.00  0.00    +0.000 Cl
ATOM     15  H   UNL     1       1.969   9.782  16.953  0.00  0.00    +0.000 HD
ENDBRANCH   2   5
BRANCH   3  16
ATOM     16  C   UNL     1       3.447   6.485  17.762  0.00  0.00    +0.000 A 
ATOM     17  C   UNL     1       2.823   5.241  17.898  0.00  0.00    +0.000 A 
ATOM     18  C   UNL     1       3.509   4.073  17.606  0.00  0.00    +0.000 A 
ATOM     19  C   UNL     1       4.834   4.123  17.162  0.00  0.00    +0.000 A 
ATOM     20  C   UNL     1       5.470   5.358  17.039  0.00  0.00    +0.000 A 
ATOM     21  C   UNL     1       4.780   6.538  17.333  0.00  0.00    +0.000 A 
BRANCH  20  22
ATOM     22  S   UNL     1       7.101   5.433  16.298  0.00  0.00    +0.000 S 
ATOM     23  O   UNL     1       7.555   6.804  16.404  0.00  0.00    +0.000 OA
ATOM     24  O   UNL     1       7.873   4.351  16.877  0.00  0.00    +0.000 OA
BRANCH  22  25
ATOM     25  N   UNL     1       6.850   5.077  14.643  0.00  0.00    +0.000 NA
ATOM     26  C   UNL     1       7.967   5.445  13.739  0.00  0.00    +0.000 C 
ATOM     27  C   UNL     1       7.578   5.287  12.272  0.00  0.00    +0.000 C 
ATOM     28  C   UNL     1       7.045   3.890  11.997  0.00  0.00    +0.000 C 
ATOM     29  C   UNL     1       5.839   3.629  12.885  0.00  0.00    +0.000 C 
ATOM     30  C   UNL     1       6.197   3.775  14.362  0.00  0.00    +0.000 C 
ENDBRANCH  22  25
ENDBRANCH  20  22
ENDBRANCH   3  16
TORSDOF 4
ENDMDL
MODEL 2
REMARK VINA RESULT:      -8.8      4.061      8.681
REMARK  Name = 
REMARK  4 active torsions:
REMARK  status: ('A' for Active; 'I' for Inactive)
REMARK    1  A    between atoms: C_2  and  C_19
REMARK    2  A    between atoms: N_3  and  C_4
REMARK    3  A    between atoms: C_8  and  S_9
REMARK    4  A    between atoms: S_9  and  N_12
REMARK                            x       y       z     vdW  Elec       q    Type
REMARK                         _______ _______ _______ _____ _____    ______ ____
ROOT
ATOM      1  O   UNL     1       1.138   5.193  20.471  0.00  0.00    +0.000 OA
ATOM      2  C   UNL     1       2.130   5.785  20.063  0.00  0.00    +0.000 C 
ATOM      3  N   UNL     1       2.324   7.159  20.048  0.00  0.00    +0.000 N 
ATOM      4  H   UNL     1       3.254   7.471  19.800  0.00  0.00    +0.000 HD
ENDROOT
BRANCH   2   5
ATOM      5  C   UNL     1       3.356   5.074  19.774  0.00  0.00    +0.000 A 
ATOM      6  N   UNL     1       4.560   5.744  19.659  0.00  0.00    +0.000 N 
ATOM      7  C   UNL     1       4.941   5.493  18.354  0.00  0.00    +0.000 A 
ATOM      8  C   UNL     1       5.618   6.306  17.442  0.00  0.00    +0.000 A 
ATOM      9  C   UNL     1       5.628   5.870  16.118  0.00  0.00    +0.000 A 
ATOM     10  C   UNL     1       5.099   4.630  15.756  0.00  0.00    +0.000 A 
ATOM     11  C   UNL     1       4.517   3.782  16.706  0.00  0.00    +0.000 A 
ATOM     12  C   UNL     1       4.377   4.261  18.023  0.00  0.00    +0.000 A 
ATOM     13  C   UNL     1       3.573   3.866  19.134  0.00  0.00    +0.000 A 
ATOM     14 CL   UNL     1       2.578   2.482  19.162  0.00  0.00    +0.000 Cl
ATOM     15  H   UNL     1       4.745   6.620  20.125  0.00  0.00    +0.000 HD
ENDBRANCH   2   5
BRANCH   3  16
ATOM     16  C   UNL     1       1.485   8.159  20.580  0.00  0.00    +0.000 A 
ATOM     17  C   UNL     1       1.025   8.145  21.900  0.00  0.00    +0.000 A 
ATOM     18  C   UNL     1       0.249   9.185  22.387  0.00  0.00    +0.000 A 
ATOM     19  C   UNL     1      -0.077  10.269  21.565  0.00  0.00    +0.000 A 
ATOM     20  C   UNL     1       0.364  10.283  20.241  0.00  0.00    +0.000 A 
ATOM     21  C   UNL     1       1.147   9.235  19.748  0.00  0.00    +0.000 A 
BRANCH  20  22
ATOM     22  S   UNL     1       0.101  11.752  19.247  0.00  0.00    +0.000 S 
ATOM     23  O   UNL     1      -0.186  12.839  20.160  0.00  0.00    +0.000 OA
ATOM     24  O   UNL     1       1.214  11.836  18.322  0.00  0.00    +0.000 OA
BRANCH  22  25
ATOM     25  N   UNL     1      -1.314  11.423  18.343  0.00  0.00    +0.000 NA
ATOM     26  C   UNL     1      -1.297  10.153  17.577  0.00  0.00    +0.000 C 
ATOM     27  C   UNL     1      -2.499  10.042  16.644  0.00  0.00    +0.000 C 
ATOM     28  C   UNL     1      -3.800  10.242  17.405  0.00  0.00    +0.000 C 
ATOM     29  C   UNL     1      -3.785  11.607  18.073  0.00  0.00    +0.000 C 
ATOM     30  C   UNL     1      -2.595  11.749  19.018  0.00  0.00    +0.000 C 
ENDBRANCH  22  25
ENDBRANCH  20  22
ENDBRANCH   3  16
TORSDOF 4
ENDMDL
MODEL 3
REMARK VINA RESULT:      -8.8      3.838      8.760
REMARK  Name = 
REMARK  4 active torsions:
REMARK  status: ('A' for Active; 'I' for Inactive)
REMARK    1  A    between atoms: C_2  and  C_19
REMARK    2  A    between atoms: N_3  and  C_4
REMARK    3  A    between atoms: C_8  and  S_9
REMARK    4  A    between atoms: S_9  and  N_12
REMARK                            x       y       z     vdW  Elec       q    Type
REMARK                         _______ _______ _______ _____ _____    ______ ____
ROOT
ATOM      1  O   UNL     1       2.124   7.205  18.093  0.00  0.00    +0.000 OA
ATOM      2  C   UNL     1       2.564   6.751  19.142  0.00  0.00    +0.000 C 
ATOM      3  N   UNL     1       2.264   7.193  20.423  0.00  0.00    +0.000 N 
ATOM      4  H   UNL     1       2.613   6.619  21.181  0.00  0.00    +0.000 HD
ENDROOT
BRANCH   2   5
ATOM      5  C   UNL     1       3.277   5.492  19.169  0.00  0.00    +0.000 A 
ATOM      6  N   UNL     1       4.526   5.392  19.752  0.00  0.00    +0.000 N 
ATOM      7  C   UNL     1       5.340   5.017  18.700  0.00  0.00    +0.000 A 
ATOM      8  C   UNL     1       6.668   5.353  18.424  0.00  0.00    +0.000 A 
ATOM      9  C   UNL     1       7.133   5.029  17.152  0.00  0.00    +0.000 A 
ATOM     10  C   UNL     1       6.351   4.299  16.254  0.00  0.00    +0.000 A 
ATOM     11  C   UNL     1       5.058   3.880  16.589  0.00  0.00    +0.000 A 
ATOM     12  C   UNL     1       4.521   4.311  17.818  0.00  0.00    +0.000 A 
ATOM     13  C   UNL     1       3.195   4.387  18.340  0.00  0.00    +0.000 A 
ATOM     14 CL   UNL     1       1.810   3.781  17.551  0.00  0.00    +0.000 Cl
ATOM     15  H   UNL     1       4.835   6.003  20.493  0.00  0.00    +0.000 HD
ENDBRANCH   2   5
BRANCH   3  16
ATOM     16  C   UNL     1       1.330   8.176  20.805  0.00  0.00    +0.000 A 
ATOM     17  C   UNL     1       0.673   8.165  22.039  0.00  0.00    +0.000 A 
ATOM     18  C   UNL     1      -0.194   9.189  22.385  0.00  0.00    +0.000 A 
ATOM     19  C   UNL     1      -0.417  10.254  21.507  0.00  0.00    +0.000 A 
ATOM     20  C   UNL     1       0.221  10.265  20.266  0.00  0.00    +0.000 A 
ATOM     21  C   UNL     1       1.096   9.233  19.914  0.00  0.00    +0.000 A 
BRANCH  20  22
ATOM     22  S   UNL     1       0.077  11.714  19.221  0.00  0.00    +0.000 S 
ATOM     23  O   UNL     1      -0.227  12.835  20.086  0.00  0.00    +0.000 OA
ATOM     24  O   UNL     1       1.248  11.733  18.368  0.00  0.00    +0.000 OA
BRANCH  22  25
ATOM     25  N   UNL     1      -1.290  11.412  18.236  0.00  0.00    +0.000 NA
ATOM     26  C   UNL     1      -1.279  10.114  17.517  0.00  0.00    +0.000 C 
ATOM     27  C   UNL     1      -2.421  10.020  16.510  0.00  0.00    +0.000 C 
ATOM     28  C   UNL     1      -3.759  10.302  17.176  0.00  0.00    +0.000 C 
ATOM     29  C   UNL     1      -3.727  11.689  17.797  0.00  0.00    +0.000 C 
ATOM     30  C   UNL     1      -2.596  11.816  18.813  0.00  0.00    +0.000 C 
ENDBRANCH  22  25
ENDBRANCH  20  22
ENDBRANCH   3  16
TORSDOF 4
ENDMDL
MODEL 4
REMARK VINA RESULT:      -8.7      3.985      8.953
REMARK  Name = 
REMARK  4 active torsions:
REMARK  status: ('A' for Active; 'I' for Inactive)
REMARK    1  A    between atoms: C_2  and  C_19
REMARK    2  A    between atoms: N_3  and  C_4
REMARK    3  A    between atoms: C_8  and  S_9
REMARK    4  A    between atoms: S_9  and  N_12
REMARK                            x       y       z     vdW  Elec       q    Type
REMARK                         _______ _______ _______ _____ _____    ______ ____
ROOT
ATOM      1  O   UNL     1       2.111   7.836  18.454  0.00  0.00    +0.000 OA
ATOM      2  C   UNL     1       2.362   7.180  19.457  0.00  0.00    +0.000 C 
ATOM      3  N   UNL     1       1.961   7.469  20.754  0.00  0.00    +0.000 N 
ATOM      4  H   UNL     1       2.143   6.750  21.443  0.00  0.00    +0.000 HD
ENDROOT
BRANCH   2   5
ATOM      5  C   UNL     1       2.911   5.845  19.358  0.00  0.00    +0.000 A 
ATOM      6  N   UNL     1       4.116   5.523  19.955  0.00  0.00    +0.000 N 
ATOM      7  C   UNL     1       4.916   5.166  18.887  0.00  0.00    +0.000 A 
ATOM      8  C   UNL     1       6.285   5.358  18.683  0.00  0.00    +0.000 A 
ATOM      9  C   UNL     1       6.754   5.119  17.393  0.00  0.00    +0.000 A 
ATOM     10  C   UNL     1       5.922   4.598  16.400  0.00  0.00    +0.000 A 
ATOM     11  C   UNL     1       4.576   4.312  16.654  0.00  0.00    +0.000 A 
ATOM     12  C   UNL     1       4.050   4.671  17.911  0.00  0.00    +0.000 A 
ATOM     13  C   UNL     1       2.725   4.858  18.407  0.00  0.00    +0.000 A 
ATOM     14 CL   UNL     1       1.307   4.523  17.521  0.00  0.00    +0.000 Cl
ATOM     15  H   UNL     1       4.469   6.005  20.768  0.00  0.00    +0.000 HD
ENDBRANCH   2   5
BRANCH   3  16
ATOM     16  C   UNL     1       1.110   8.504  21.188  0.00  0.00    +0.000 A 
ATOM     17  C   UNL     1       0.763   8.695  22.529  0.00  0.00    +0.000 A 
ATOM     18  C   UNL     1      -0.032   9.765  22.907  0.00  0.00    +0.000 A 
ATOM     19  C   UNL     1      -0.492  10.676  21.951  0.00  0.00    +0.000 A 
ATOM     20  C   UNL     1      -0.166  10.484  20.608  0.00  0.00    +0.000 A 
ATOM     21  C   UNL     1       0.636   9.405  20.224  0.00  0.00    +0.000 A 
BRANCH  20  22
ATOM     22  S   UNL     1      -0.603  11.747  19.412  0.00  0.00    +0.000 S 
ATOM     23  O   UNL     1      -0.987  12.926  20.159  0.00  0.00    +0.000 OA
ATOM     24  O   UNL     1       0.478  11.802  18.448  0.00  0.00    +0.000 OA
BRANCH  22  25
ATOM     25  N   UNL     1      -1.991  11.139  18.617  0.00  0.00    +0.000 NA
ATOM     26  C   UNL     1      -3.213  11.970  18.751  0.00  0.00    +0.000 C 
ATOM     27  C   UNL     1      -4.441  11.256  18.195  0.00  0.00    +0.000 C 
ATOM     28  C   UNL     1      -4.205  10.799  16.764  0.00  0.00    +0.000 C 
ATOM     29  C   UNL     1      -3.003   9.870  16.726  0.00  0.00    +0.000 C 
ATOM     30  C   UNL     1      -1.754  10.556  17.273  0.00  0.00    +0.000 C 
ENDBRANCH  22  25
ENDBRANCH  20  22
ENDBRANCH   3  16
TORSDOF 4
ENDMDL
MODEL 5
REMARK VINA RESULT:      -8.6      4.046      8.899
REMARK  Name = 
REMARK  4 active torsions:
REMARK  status: ('A' for Active; 'I' for Inactive)
REMARK    1  A    between atoms: C_2  and  C_19
REMARK    2  A    between atoms: N_3  and  C_4
REMARK    3  A    between atoms: C_8  and  S_9
REMARK    4  A    between atoms: S_9  and  N_12
REMARK                            x       y       z     vdW  Elec       q    Type
REMARK                         _______ _______ _______ _____ _____    ______ ____
ROOT
ATOM      1  O   UNL     1       2.015   7.818  18.855  0.00  0.00    +0.000 OA
ATOM      2  C   UNL     1       2.242   7.309  19.946  0.00  0.00    +0.000 C 
ATOM      3  N   UNL     1       1.793   7.763  21.178  0.00  0.00    +0.000 N 
ATOM      4  H   UNL     1       1.962   7.148  21.964  0.00  0.00    +0.000 HD
ENDROOT
BRANCH   2   5
ATOM      5  C   UNL     1       2.815   5.985  20.046  0.00  0.00    +0.000 A 
ATOM      6  N   UNL     1       4.152   5.763  19.774  0.00  0.00    +0.000 N 
ATOM      7  C   UNL     1       4.119   4.896  18.698  0.00  0.00    +0.000 A 
ATOM      8  C   UNL     1       4.974   4.793  17.598  0.00  0.00    +0.000 A 
ATOM      9  C   UNL     1       4.531   3.990  16.549  0.00  0.00    +0.000 A 
ATOM     10  C   UNL     1       3.360   3.237  16.652  0.00  0.00    +0.000 A 
ATOM     11  C   UNL     1       2.571   3.272  17.807  0.00  0.00    +0.000 A 
ATOM     12  C   UNL     1       2.929   4.178  18.825  0.00  0.00    +0.000 A 
ATOM     13  C   UNL     1       2.231   4.735  19.938  0.00  0.00    +0.000 A 
ATOM     14 CL   UNL     1       0.661   4.276  20.420  0.00  0.00    +0.000 Cl
ATOM     15  H   UNL     1       4.858   6.477  19.882  0.00  0.00    +0.000 HD
ENDBRANCH   2   5
BRANCH   3  16
ATOM     16  C   UNL     1       0.912   8.831  21.441  0.00  0.00    +0.000 A 
ATOM     17  C   UNL     1       0.315   9.038  22.688  0.00  0.00    +0.000 A 
ATOM     18  C   UNL     1      -0.499  10.138  22.906  0.00  0.00    +0.000 A 
ATOM     19  C   UNL     1      -0.728  11.062  21.882  0.00  0.00    +0.000 A 
ATOM     20  C   UNL     1      -0.151  10.854  20.629  0.00  0.00    +0.000 A 
ATOM     21  C   UNL     1       0.670   9.746  20.406  0.00  0.00    +0.000 A 
BRANCH  20  22
ATOM     22  S   UNL     1      -0.297  12.129  19.376  0.00  0.00    +0.000 S 
ATOM     23  O   UNL     1      -0.751  13.332  20.043  0.00  0.00    +0.000 OA
ATOM     24  O   UNL     1       0.942  12.121  18.625  0.00  0.00    +0.000 OA
BRANCH  22  25
ATOM     25  N   UNL     1      -1.547  11.586  18.340  0.00  0.00    +0.000 NA
ATOM     26  C   UNL     1      -1.300  10.282  17.678  0.00  0.00    +0.000 C 
ATOM     27  C   UNL     1      -2.359   9.978  16.623  0.00  0.00    +0.000 C 
ATOM     28  C   UNL     1      -3.758  10.074  17.210  0.00  0.00    +0.000 C 
ATOM     29  C   UNL     1      -3.971  11.471  17.772  0.00  0.00    +0.000 C 
ATOM     30  C   UNL     1      -2.929  11.805  18.836  0.00  0.00    +0.000 C 
ENDBRANCH  22  25
ENDBRANCH  20  22
ENDBRANCH   3  16
TORSDOF 4
ENDMDL
MODEL 6
REMARK VINA RESULT:      -8.6      3.912      8.487
REMARK  Name = 
REMARK  4 active torsions:
REMARK  status: ('A' for Active; 'I' for Inactive)
REMARK    1  A    between atoms: C_2  and  C_19
REMARK    2  A    between atoms: N_3  and  C_4
REMARK    3  A    between atoms: C_8  and  S_9
REMARK    4  A    between atoms: S_9  and  N_12
REMARK                            x       y       z     vdW  Elec       q    Type
REMARK                         _______ _______ _______ _____ _____    ______ ____
ROOT
ATOM      1  O   UNL     1       2.033   5.027  17.972  0.00  0.00    +0.000 OA
ATOM      2  C   UNL     1       2.970   5.803  17.829  0.00  0.00    +0.000 C 
ATOM      3  N   UNL     1       3.061   7.091  18.338  0.00  0.00    +0.000 N 
ATOM      4  H   UNL     1       3.961   7.543  18.237  0.00  0.00    +0.000 HD
ENDROOT
BRANCH   2   5
ATOM      5  C   UNL     1       4.240   5.350  17.304  0.00  0.00    +0.000 A 
ATOM      6  N   UNL     1       5.000   4.415  17.983  0.00  0.00    +0.000 N 
ATOM      7  C   UNL     1       6.167   5.099  18.267  0.00  0.00    +0.000 A 
ATOM      8  C   UNL     1       7.007   5.023  19.381  0.00  0.00    +0.000 A 
ATOM      9  C   UNL     1       7.967   6.026  19.496  0.00  0.00    +0.000 A 
ATOM     10  C   UNL     1       8.156   6.974  18.489  0.00  0.00    +0.000 A 
ATOM     11  C   UNL     1       7.372   6.969  17.329  0.00  0.00    +0.000 A 
ATOM     12  C   UNL     1       6.309   6.048  17.253  0.00  0.00    +0.000 A 
ATOM     13  C   UNL     1       5.136   5.962  16.445  0.00  0.00    +0.000 A 
ATOM     14 CL   UNL     1       4.780   7.007  15.146  0.00  0.00    +0.000 Cl
ATOM     15  H   UNL     1       4.598   3.733  18.609  0.00  0.00    +0.000 HD
ENDBRANCH   2   5
BRANCH   3  16
ATOM     16  C   UNL     1       2.162   7.748  19.201  0.00  0.00    +0.000 A 
ATOM     17  C   UNL     1       1.786   7.234  20.445  0.00  0.00    +0.000 A 
ATOM     18  C   UNL     1       0.941   7.951  21.278  0.00  0.00    +0.000 A 
ATOM     19  C   UNL     1       0.460   9.204  20.888  0.00  0.00    +0.000 A 
ATOM     20  C   UNL     1       0.816   9.718  19.640  0.00  0.00    +0.000 A 
ATOM     21  C   UNL     1       1.668   8.996  18.798  0.00  0.00    +0.000 A 
BRANCH  20  22
ATOM     22  S   UNL     1       0.349  11.397  19.219  0.00  0.00    +0.000 S 
ATOM     23  O   UNL     1       0.098  12.094  20.462  0.00  0.00    +0.000 OA
ATOM     24  O   UNL     1       1.342  11.885  18.283  0.00  0.00    +0.000 OA
BRANCH  22  25
ATOM     25  N   UNL     1      -1.136  11.243  18.381  0.00  0.00    +0.000 NA
ATOM     26  C   UNL     1      -1.258  10.039  17.523  0.00  0.00    +0.000 C 
ATOM     27  C   UNL     1      -2.515  10.089  16.660  0.00  0.00    +0.000 C 
ATOM     28  C   UNL     1      -3.752  10.320  17.513  0.00  0.00    +0.000 C 
ATOM     29  C   UNL     1      -3.596  11.624  18.279  0.00  0.00    +0.000 C 
ATOM     30  C   UNL     1      -2.348  11.605  19.157  0.00  0.00    +0.000 C 
ENDBRANCH  22  25
ENDBRANCH  20  22
ENDBRANCH   3  16
TORSDOF 4
ENDMDL
MODEL 7
REMARK VINA RESULT:      -8.6      3.819      9.407
REMARK  Name = 
REMARK  4 active torsions:
REMARK  status: ('A' for Active; 'I' for Inactive)
REMARK    1  A    between atoms: C_2  and  C_19
REMARK    2  A    between atoms: N_3  and  C_4
REMARK    3  A    between atoms: C_8  and  S_9
REMARK    4  A    between atoms: S_9  and  N_12
REMARK                            x       y       z     vdW  Elec       q    Type
REMARK                         _______ _______ _______ _____ _____    ______ ____
ROOT
ATOM      1  O   UNL     1       1.838   5.082  20.076  0.00  0.00    +0.000 OA
ATOM      2  C   UNL     1       2.707   5.403  19.275  0.00  0.00    +0.000 C 
ATOM      3  N   UNL     1       2.844   6.638  18.657  0.00  0.00    +0.000 N 
ATOM      4  H   UNL     1       3.696   6.774  18.126  0.00  0.00    +0.000 HD
ENDROOT
BRANCH   2   5
ATOM      5  C   UNL     1       3.877   4.576  19.072  0.00  0.00    +0.000 A 
ATOM      6  N   UNL     1       5.141   5.038  19.386  0.00  0.00    +0.000 N 
ATOM      7  C   UNL     1       5.796   5.026  18.169  0.00  0.00    +0.000 A 
ATOM      8  C   UNL     1       6.763   5.895  17.658  0.00  0.00    +0.000 A 
ATOM      9  C   UNL     1       7.044   5.773  16.299  0.00  0.00    +0.000 A 
ATOM     10  C   UNL     1       6.479   4.756  15.527  0.00  0.00    +0.000 A 
ATOM     11  C   UNL     1       5.591   3.828  16.083  0.00  0.00    +0.000 A 
ATOM     12  C   UNL     1       5.191   4.015  17.421  0.00  0.00    +0.000 A 
ATOM     13  C   UNL     1       4.102   3.524  18.201  0.00  0.00    +0.000 A 
ATOM     14 CL   UNL     1       2.977   2.361  17.664  0.00  0.00    +0.000 Cl
ATOM     15  H   UNL     1       5.307   5.741  20.091  0.00  0.00    +0.000 HD
ENDBRANCH   2   5
BRANCH   3  16
ATOM     16  C   UNL     1       2.093   7.808  18.881  0.00  0.00    +0.000 A 
ATOM     17  C   UNL     1       1.688   8.663  17.852  0.00  0.00    +0.000 A 
ATOM     18  C   UNL     1       0.900   9.770  18.124  0.00  0.00    +0.000 A 
ATOM     19  C   UNL     1       0.492  10.043  19.432  0.00  0.00    +0.000 A 
ATOM     20  C   UNL     1       0.905   9.205  20.469  0.00  0.00    +0.000 A 
ATOM     21  C   UNL     1       1.700   8.088  20.197  0.00  0.00    +0.000 A 
BRANCH  20  22
ATOM     22  S   UNL     1       0.234   9.451  22.114  0.00  0.00    +0.000 S 
ATOM     23  O   UNL     1      -0.759   8.420  22.327  0.00  0.00    +0.000 OA
ATOM     24  O   UNL     1       1.365   9.588  23.010  0.00  0.00    +0.000 OA
BRANCH  22  25
ATOM     25  N   UNL     1      -0.568  10.961  22.040  0.00  0.00    +0.000 NA
ATOM     26  C   UNL     1      -1.550  11.211  23.124  0.00  0.00    +0.000 C 
ATOM     27  C   UNL     1      -2.361  12.477  22.866  0.00  0.00    +0.000 C 
ATOM     28  C   UNL     1      -1.450  13.669  22.624  0.00  0.00    +0.000 C 
ATOM     29  C   UNL     1      -0.549  13.378  21.434  0.00  0.00    +0.000 C 
ATOM     30  C   UNL     1       0.281  12.118  21.663  0.00  0.00    +0.000 C 
ENDBRANCH  22  25
ENDBRANCH  20  22
ENDBRANCH   3  16
TORSDOF 4
ENDMDL
MODEL 8
REMARK VINA RESULT:      -8.6      2.642      3.403
REMARK  Name = 
REMARK  4 active torsions:
REMARK  status: ('A' for Active; 'I' for Inactive)
REMARK    1  A    between atoms: C_2  and  C_19
REMARK    2  A    between atoms: N_3  and  C_4
REMARK    3  A    between atoms: C_8  and  S_9
REMARK    4  A    between atoms: S_9  and  N_12
REMARK                            x       y       z     vdW  Elec       q    Type
REMARK                         _______ _______ _______ _____ _____    ______ ____
ROOT
ATOM      1  O   UNL     1       1.109   9.215  20.785  0.00  0.00    +0.000 OA
ATOM      2  C   UNL     1       1.488   9.129  19.623  0.00  0.00    +0.000 C 
ATOM      3  N   UNL     1       2.077   8.024  19.027  0.00  0.00    +0.000 N 
ATOM      4  H   UNL     1       2.206   8.079  18.024  0.00  0.00    +0.000 HD
ENDROOT
BRANCH   2   5
ATOM      5  C   UNL     1       1.116  10.126  18.642  0.00  0.00    +0.000 A 
ATOM      6  N   UNL     1       2.076  10.869  17.981  0.00  0.00    +0.000 N 
ATOM      7  C   UNL     1       1.794  12.167  18.363  0.00  0.00    +0.000 A 
ATOM      8  C   UNL     1       2.653  13.242  18.603  0.00  0.00    +0.000 A 
ATOM      9  C   UNL     1       2.088  14.353  19.227  0.00  0.00    +0.000 A 
ATOM     10  C   UNL     1       0.717  14.428  19.479  0.00  0.00    +0.000 A 
ATOM     11  C   UNL     1      -0.145  13.381  19.134  0.00  0.00    +0.000 A 
ATOM     12  C   UNL     1       0.424  12.196  18.625  0.00  0.00    +0.000 A 
ATOM     13  C   UNL     1      -0.049  10.857  18.490  0.00  0.00    +0.000 A 
ATOM     14 CL   UNL     1      -1.642  10.356  18.834  0.00  0.00    +0.000 Cl
ATOM     15  H   UNL     1       3.016  10.535  17.826  0.00  0.00    +0.000 HD
ENDBRANCH   2   5
BRANCH   3  16
ATOM     16  C   UNL     1       2.278   6.744  19.580  0.00  0.00    +0.000 A 
ATOM     17  C   UNL     1       1.471   6.216  20.593  0.00  0.00    +0.000 A 
ATOM     18  C   UNL     1       1.679   4.928  21.060  0.00  0.00    +0.000 A 
ATOM     19  C   UNL     1       2.694   4.134  20.518  0.00  0.00    +0.000 A 
ATOM     20  C   UNL     1       3.515   4.658  19.519  0.00  0.00    +0.000 A 
ATOM     21  C   UNL     1       3.308   5.957  19.046  0.00  0.00    +0.000 A 
BRANCH  20  22
ATOM     22  S   UNL     1       4.694   3.583  18.701  0.00  0.00    +0.000 S 
ATOM     23  O   UNL     1       5.176   2.646  19.693  0.00  0.00    +0.000 OA
ATOM     24  O   UNL     1       4.058   3.113  17.486  0.00  0.00    +0.000 OA
BRANCH  22  25
ATOM     25  N   UNL     1       5.990   4.608  18.257  0.00  0.00    +0.000 NA
ATOM     26  C   UNL     1       5.825   5.315  16.962  0.00  0.00    +0.000 C 
ATOM     27  C   UNL     1       7.104   6.036  16.549  0.00  0.00    +0.000 C 
ATOM     28  C   UNL     1       7.592   6.958  17.655  0.00  0.00    +0.000 C 
ATOM     29  C   UNL     1       7.840   6.143  18.914  0.00  0.00    +0.000 C 
ATOM     30  C   UNL     1       6.576   5.412  19.358  0.00  0.00    +0.000 C 
ENDBRANCH  22  25
ENDBRANCH  20  22
ENDBRANCH   3  16
TORSDOF 4
ENDMDL
MODEL 9
REMARK VINA RESULT:      -8.5      3.646      8.867
REMARK  Name = 
REMARK  4 active torsions:
REMARK  status: ('A' for Active; 'I' for Inactive)
REMARK    1  A    between atoms: C_2  and  C_19
REMARK    2  A    between atoms: N_3  and  C_4
REMARK    3  A    between atoms: C_8  and  S_9
REMARK    4  A    between atoms: S_9  and  N_12
REMARK                            x       y       z     vdW  Elec       q    Type
REMARK                         _______ _______ _______ _____ _____    ______ ____
ROOT
ATOM      1  O   UNL     1       2.315   7.735  18.274  0.00  0.00    +0.000 OA
ATOM      2  C   UNL     1       2.486   7.099  19.307  0.00  0.00    +0.000 C 
ATOM      3  N   UNL     1       2.010   7.429  20.568  0.00  0.00    +0.000 N 
ATOM      4  H   UNL     1       2.130   6.724  21.284  0.00  0.00    +0.000 HD
ENDROOT
BRANCH   2   5
ATOM      5  C   UNL     1       3.008   5.750  19.274  0.00  0.00    +0.000 A 
ATOM      6  N   UNL     1       4.220   5.440  19.863  0.00  0.00    +0.000 N 
ATOM      7  C   UNL     1       4.989   5.005  18.800  0.00  0.00    +0.000 A 
ATOM      8  C   UNL     1       6.356   5.158  18.555  0.00  0.00    +0.000 A 
ATOM      9  C   UNL     1       6.790   4.835  17.271  0.00  0.00    +0.000 A 
ATOM     10  C   UNL     1       5.926   4.272  16.329  0.00  0.00    +0.000 A 
ATOM     11  C   UNL     1       4.581   4.029  16.630  0.00  0.00    +0.000 A 
ATOM     12  C   UNL     1       4.091   4.471  17.875  0.00  0.00    +0.000 A 
ATOM     13  C   UNL     1       2.782   4.712  18.388  0.00  0.00    +0.000 A 
ATOM     14 CL   UNL     1       1.337   4.354  17.556  0.00  0.00    +0.000 Cl
ATOM     15  H   UNL     1       4.602   5.962  20.638  0.00  0.00    +0.000 HD
ENDBRANCH   2   5
BRANCH   3  16
ATOM     16  C   UNL     1       1.158   8.494  20.922  0.00  0.00    +0.000 A 
ATOM     17  C   UNL     1       1.012   8.951  22.235  0.00  0.00    +0.000 A 
ATOM     18  C   UNL     1       0.204  10.040  22.518  0.00  0.00    +0.000 A 
ATOM     19  C   UNL     1      -0.473  10.703  21.490  0.00  0.00    +0.000 A 
ATOM     20  C   UNL     1      -0.348  10.244  20.178  0.00  0.00    +0.000 A 
ATOM     21  C   UNL     1       0.467   9.146  19.890  0.00  0.00    +0.000 A 
BRANCH  20  22
ATOM     22  S   UNL     1      -1.067  11.202  18.843  0.00  0.00    +0.000 S 
ATOM     23  O   UNL     1      -1.026  10.376  17.655  0.00  0.00    +0.000 OA
ATOM     24  O   UNL     1      -2.325  11.728  19.336  0.00  0.00    +0.000 OA
BRANCH  22  25
ATOM     25  N   UNL     1       0.004  12.518  18.619  0.00  0.00    +0.000 NA
ATOM     26  C   UNL     1      -0.394  13.781  19.287  0.00  0.00    +0.000 C 
ATOM     27  C   UNL     1       0.499  14.944  18.866  0.00  0.00    +0.000 C 
ATOM     28  C   UNL     1       1.966  14.612  19.083  0.00  0.00    +0.000 C 
ATOM     29  C   UNL     1       2.322  13.369  18.283  0.00  0.00    +0.000 C 
ATOM     30  C   UNL     1       1.449  12.184  18.684  0.00  0.00    +0.000 C 
ENDBRANCH  22  25
ENDBRANCH  20  22
ENDBRANCH   3  16
TORSDOF 4
ENDMDL
