MODEL 1
REMARK VINA RESULT:      -8.9      0.000      0.000
REMARK  Name = 
REMARK  6 active torsions:
REMARK  status: ('A' for Active; 'I' for Inactive)
REMARK    1  A    between atoms: C_1  and  C_2
REMARK    2  A    between atoms: C_2  and  C_3
REMARK    3  A    between atoms: C_2  and  N_14
REMARK    4  A    between atoms: N_14  and  C_15
REMARK    5  A    between atoms: N_14  and  C_16
REMARK    6  A    between atoms: C_16  and  C_17
REMARK                            x       y       z     vdW  Elec       q    Type
REMARK                         _______ _______ _______ _____ _____    ______ ____
ROOT
ATOM      1  C   UNL     1       2.679   1.681  18.831  0.00  0.00    +0.000 C 
ATOM      2  C   UNL     1       3.208   3.038  19.323  0.00  0.00    +0.000 C 
ENDROOT
BRANCH   2   3
ATOM      3  C   UNL     1       4.329   3.531  18.394  0.00  0.00    +0.000 A 
ATOM      4  N   UNL     1       4.165   3.521  17.110  0.00  0.00    +0.000 NA
ATOM      5  C   UNL     1       5.198   3.990  16.297  0.00  0.00    +0.000 A 
ATOM      6  C   UNL     1       5.003   3.974  14.916  0.00  0.00    +0.000 A 
ATOM      7  C   UNL     1       5.989   4.453  14.058  0.00  0.00    +0.000 A 
ATOM      8  C   UNL     1       7.183   4.950  14.581  0.00  0.00    +0.000 A 
ATOM      9  C   UNL     1       7.394   4.965  15.963  0.00  0.00    +0.000 A 
ATOM     10  C   UNL     1       6.398   4.481  16.813  0.00  0.00    +0.000 A 
ATOM     11  C   UNL     1       6.552   4.479  18.284  0.00  0.00    +0.000 A 
ATOM     12  O   UNL     1       7.558   4.909  18.830  0.00  0.00    +0.000 OA
ATOM     13  N   UNL     1       5.482   3.976  18.989  0.00  0.00    +0.000 N 
ATOM     14  H   UNL     1       5.529   4.019  19.998  0.00  0.00    +0.000 HD
ENDBRANCH   2   3
BRANCH   2  15
ATOM     15  N   UNL     1       2.180   4.108  19.482  0.00  0.00    +0.000 NA
ATOM     16  C   UNL     1       0.955   3.611  20.130  0.00  0.00    +0.000 C 
BRANCH  15  17
ATOM     17  C   UNL     1       2.688   5.260  20.259  0.00  0.00    +0.000 C 
BRANCH  17  18
ATOM     18  C   UNL     1       2.352   6.610  19.664  0.00  0.00    +0.000 A 
ATOM     19  C   UNL     1       2.787   6.956  18.378  0.00  0.00    +0.000 A 
ATOM     20  C   UNL     1       2.526   8.225  17.857  0.00  0.00    +0.000 A 
ATOM     21  C   UNL     1       1.834   9.181  18.615  0.00  0.00    +0.000 A 
ATOM     22  C   UNL     1       1.598  10.476  18.122  0.00  0.00    +0.000 A 
ATOM     23  C   UNL     1       0.924  11.420  18.896  0.00  0.00    +0.000 A 
ATOM     24  C   UNL     1       0.467  11.080  20.166  0.00  0.00    +0.000 A 
ATOM     25  C   UNL     1       0.687   9.796  20.667  0.00  0.00    +0.000 A 
ATOM     26  C   UNL     1       1.376   8.839  19.907  0.00  0.00    +0.000 A 
ATOM     27  C   UNL     1       1.632   7.554  20.412  0.00  0.00    +0.000 A 
ENDBRANCH  17  18
ENDBRANCH  15  17
ENDBRANCH   2  15
TORSDOF 4
ENDMDL
MODEL 2
REMARK VINA RESULT:      -8.5      1.459      1.923
REMARK  Name = 
REMARK  6 active torsions:
REMARK  status: ('A' for Active; 'I' for Inactive)
REMARK    1  A    between atoms: C_1  and  C_2
REMARK    2  A    between atoms: C_2  and  C_3
REMARK    3  A    between atoms: C_2  and  N_14
REMARK    4  A    between atoms: N_14  and  C_15
REMARK    5  A    between atoms: N_14  and  C_16
REMARK    6  A    between atoms: C_16  and  C_17
REMARK                            x       y       z     vdW  Elec       q    Type
REMARK                         _______ _______ _______ _____ _____    ______ ____
ROOT
ATOM      1  C   UNL     1       3.531   2.556  17.489  0.00  0.00    +0.000 C 
ATOM      2  C   UNL     1       4.090   3.967  17.735  0.00  0.00    +0.000 C 
ENDROOT
BRANCH   2   3
ATOM      3  C   UNL     1       5.077   4.342  16.617  0.00  0.00    +0.000 A 
ATOM      4  N   UNL     1       4.990   3.779  15.454  0.00  0.00    +0.000 NA
ATOM      5  C   UNL     1       5.893   4.154  14.457  0.00  0.00    +0.000 A 
ATOM      6  C   UNL     1       5.783   3.540  13.210  0.00  0.00    +0.000 A 
ATOM      7  C   UNL     1       6.641   3.893  12.171  0.00  0.00    +0.000 A 
ATOM      8  C   UNL     1       7.620   4.865  12.378  0.00  0.00    +0.000 A 
ATOM      9  C   UNL     1       7.745   5.483  13.626  0.00  0.00    +0.000 A 
ATOM     10  C   UNL     1       6.879   5.120  14.660  0.00  0.00    +0.000 A 
ATOM     11  C   UNL     1       6.949   5.743  16.000  0.00  0.00    +0.000 A 
ATOM     12  O   UNL     1       7.765   6.614  16.267  0.00  0.00    +0.000 OA
ATOM     13  N   UNL     1       6.027   5.286  16.913  0.00  0.00    +0.000 N 
ATOM     14  H   UNL     1       6.007   5.735  17.818  0.00  0.00    +0.000 HD
ENDBRANCH   2   3
BRANCH   2  15
ATOM     15  N   UNL     1       3.069   5.045  17.886  0.00  0.00    +0.000 NA
ATOM     16  C   UNL     1       1.716   4.504  18.092  0.00  0.00    +0.000 C 
BRANCH  15  17
ATOM     17  C   UNL     1       3.384   5.960  19.004  0.00  0.00    +0.000 C 
BRANCH  17  18
ATOM     18  C   UNL     1       2.520   7.201  19.057  0.00  0.00    +0.000 A 
ATOM     19  C   UNL     1       2.411   8.049  17.947  0.00  0.00    +0.000 A 
ATOM     20  C   UNL     1       1.660   9.224  18.021  0.00  0.00    +0.000 A 
ATOM     21  C   UNL     1       1.009   9.583  19.211  0.00  0.00    +0.000 A 
ATOM     22  C   UNL     1       0.283  10.781  19.315  0.00  0.00    +0.000 A 
ATOM     23  C   UNL     1      -0.344  11.132  20.511  0.00  0.00    +0.000 A 
ATOM     24  C   UNL     1      -0.263  10.286  21.613  0.00  0.00    +0.000 A 
ATOM     25  C   UNL     1       0.449   9.089  21.523  0.00  0.00    +0.000 A 
ATOM     26  C   UNL     1       1.097   8.728  20.331  0.00  0.00    +0.000 A 
ATOM     27  C   UNL     1       1.843   7.542  20.238  0.00  0.00    +0.000 A 
ENDBRANCH  17  18
ENDBRANCH  15  17
ENDBRANCH   2  15
TORSDOF 4
ENDMDL
MODEL 3
REMARK VINA RESULT:      -8.1      0.904      1.028
REMARK  Name = 
REMARK  6 active torsions:
REMARK  status: ('A' for Active; 'I' for Inactive)
REMARK    1  A    between atoms: C_1  and  C_2
REMARK    2  A    between atoms: C_2  and  C_3
REMARK    3  A    between atoms: C_2  and  N_14
REMARK    4  A    between atoms: N_14  and  C_15
REMARK    5  A    between atoms: N_14  and  C_16
REMARK    6  A    between atoms: C_16  and  C_17
REMARK                            x       y       z     vdW  Elec       q    Type
REMARK                         _______ _______ _______ _____ _____    ______ ____
ROOT
ATOM      1  C   UNL     1       1.247   3.568  17.945  0.00  0.00    +0.000 C 
ATOM      2  C   UNL     1       2.358   3.751  18.992  0.00  0.00    +0.000 C 
ENDROOT
BRANCH   2   3
ATOM      3  C   UNL     1       3.698   4.028  18.292  0.00  0.00    +0.000 A 
ATOM      4  N   UNL     1       3.765   4.053  16.999  0.00  0.00    +0.000 NA
ATOM      5  C   UNL     1       4.995   4.323  16.395  0.00  0.00    +0.000 A 
ATOM      6  C   UNL     1       5.049   4.349  15.002  0.00  0.00    +0.000 A 
ATOM      7  C   UNL     1       6.243   4.638  14.346  0.00  0.00    +0.000 A 
ATOM      8  C   UNL     1       7.396   4.900  15.087  0.00  0.00    +0.000 A 
ATOM      9  C   UNL     1       7.357   4.871  16.484  0.00  0.00    +0.000 A 
ATOM     10  C   UNL     1       6.153   4.580  17.130  0.00  0.00    +0.000 A 
ATOM     11  C   UNL     1       6.040   4.544  18.604  0.00  0.00    +0.000 A 
ATOM     12  O   UNL     1       6.995   4.776  19.332  0.00  0.00    +0.000 OA
ATOM     13  N   UNL     1       4.789   4.247  19.094  0.00  0.00    +0.000 N 
ATOM     14  H   UNL     1       4.662   4.277  20.096  0.00  0.00    +0.000 HD
ENDBRANCH   2   3
BRANCH   2  15
ATOM     15  N   UNL     1       2.103   4.800  20.023  0.00  0.00    +0.000 NA
ATOM     16  C   UNL     1       2.273   4.288  21.392  0.00  0.00    +0.000 C 
BRANCH  15  17
ATOM     17  C   UNL     1       2.979   5.978  19.849  0.00  0.00    +0.000 C 
BRANCH  17  18
ATOM     18  C   UNL     1       2.244   7.259  19.518  0.00  0.00    +0.000 A 
ATOM     19  C   UNL     1       2.273   7.788  18.221  0.00  0.00    +0.000 A 
ATOM     20  C   UNL     1       1.643   9.001  17.934  0.00  0.00    +0.000 A 
ATOM     21  C   UNL     1       0.980   9.718  18.941  0.00  0.00    +0.000 A 
ATOM     22  C   UNL     1       0.376  10.960  18.679  0.00  0.00    +0.000 A 
ATOM     23  C   UNL     1      -0.263  11.669  19.696  0.00  0.00    +0.000 A 
ATOM     24  C   UNL     1      -0.318  11.142  20.983  0.00  0.00    +0.000 A 
ATOM     25  C   UNL     1       0.271   9.907  21.257  0.00  0.00    +0.000 A 
ATOM     26  C   UNL     1       0.930   9.187  20.249  0.00  0.00    +0.000 A 
ATOM     27  C   UNL     1       1.555   7.959  20.519  0.00  0.00    +0.000 A 
ENDBRANCH  17  18
ENDBRANCH  15  17
ENDBRANCH   2  15
TORSDOF 4
ENDMDL
MODEL 4
REMARK VINA RESULT:      -8.1      0.658      1.520
REMARK  Name = 
REMARK  6 active torsions:
REMARK  status: ('A' for Active; 'I' for Inactive)
REMARK    1  A    between atoms: C_1  and  C_2
REMARK    2  A    between atoms: C_2  and  C_3
REMARK    3  A    between atoms: C_2  and  N_14
REMARK    4  A    between atoms: N_14  and  C_15
REMARK    5  A    between atoms: N_14  and  C_16
REMARK    6  A    between atoms: C_16  and  C_17
REMARK                            x       y       z     vdW  Elec       q    Type
REMARK                         _______ _______ _______ _____ _____    ______ ____
ROOT
ATOM      1  C   UNL     1       2.484   1.725  18.918  0.00  0.00    +0.000 C 
ATOM      2  C   UNL     1       2.990   3.048  19.514  0.00  0.00    +0.000 C 
ENDROOT
BRANCH   2   3
ATOM      3  C   UNL     1       4.143   3.600  18.661  0.00  0.00    +0.000 A 
ATOM      4  N   UNL     1       4.099   3.515  17.370  0.00  0.00    +0.000 NA
ATOM      5  C   UNL     1       5.157   4.040  16.625  0.00  0.00    +0.000 A 
ATOM      6  C   UNL     1       5.091   3.942  15.235  0.00  0.00    +0.000 A 
ATOM      7  C   UNL     1       6.105   4.471  14.442  0.00  0.00    +0.000 A 
ATOM      8  C   UNL     1       7.198   5.101  15.039  0.00  0.00    +0.000 A 
ATOM      9  C   UNL     1       7.279   5.200  16.431  0.00  0.00    +0.000 A 
ATOM     10  C   UNL     1       6.255   4.665  17.216  0.00  0.00    +0.000 A 
ATOM     11  C   UNL     1       6.273   4.746  18.693  0.00  0.00    +0.000 A 
ATOM     12  O   UNL     1       7.183   5.293  19.300  0.00  0.00    +0.000 OA
ATOM     13  N   UNL     1       5.193   4.178  19.329  0.00  0.00    +0.000 N 
ATOM     14  H   UNL     1       5.143   4.272  20.334  0.00  0.00    +0.000 HD
ENDBRANCH   2   3
BRANCH   2  15
ATOM     15  N   UNL     1       1.953   4.105  19.703  0.00  0.00    +0.000 NA
ATOM     16  C   UNL     1       0.616   3.538  19.940  0.00  0.00    +0.000 C 
BRANCH  15  17
ATOM     17  C   UNL     1       2.281   5.017  20.820  0.00  0.00    +0.000 C 
BRANCH  17  18
ATOM     18  C   UNL     1       1.898   6.461  20.581  0.00  0.00    +0.000 A 
ATOM     19  C   UNL     1       1.080   7.146  21.488  0.00  0.00    +0.000 A 
ATOM     20  C   UNL     1       0.680   8.460  21.233  0.00  0.00    +0.000 A 
ATOM     21  C   UNL     1       1.081   9.114  20.058  0.00  0.00    +0.000 A 
ATOM     22  C   UNL     1       0.655  10.421  19.767  0.00  0.00    +0.000 A 
ATOM     23  C   UNL     1       1.047  11.050  18.585  0.00  0.00    +0.000 A 
ATOM     24  C   UNL     1       1.880  10.387  17.688  0.00  0.00    +0.000 A 
ATOM     25  C   UNL     1       2.317   9.092  17.967  0.00  0.00    +0.000 A 
ATOM     26  C   UNL     1       1.919   8.439  19.144  0.00  0.00    +0.000 A 
ATOM     27  C   UNL     1       2.326   7.124  19.421  0.00  0.00    +0.000 A 
ENDBRANCH  17  18
ENDBRANCH  15  17
ENDBRANCH   2  15
TORSDOF 4
ENDMDL
MODEL 5
REMARK VINA RESULT:      -8.0      1.271      1.815
REMARK  Name = 
REMARK  6 active torsions:
REMARK  status: ('A' for Active; 'I' for Inactive)
REMARK    1  A    between atoms: C_1  and  C_2
REMARK    2  A    between atoms: C_2  and  C_3
REMARK    3  A    between atoms: C_2  and  N_14
REMARK    4  A    between atoms: N_14  and  C_15
REMARK    5  A    between atoms: N_14  and  C_16
REMARK    6  A    between atoms: C_16  and  C_17
REMARK                            x       y       z     vdW  Elec       q    Type
REMARK                         _______ _______ _______ _____ _____    ______ ____
ROOT
ATOM      1  C   UNL     1       1.131   4.003  17.801  0.00  0.00    +0.000 C 
ATOM      2  C   UNL     1       2.160   4.067  18.941  0.00  0.00    +0.000 C 
ENDROOT
BRANCH   2   3
ATOM      3  C   UNL     1       3.568   4.284  18.364  0.00  0.00    +0.000 A 
ATOM      4  N   UNL     1       3.760   4.258  17.084  0.00  0.00    +0.000 NA
ATOM      5  C   UNL     1       5.049   4.474  16.593  0.00  0.00    +0.000 A 
ATOM      6  C   UNL     1       5.238   4.445  15.211  0.00  0.00    +0.000 A 
ATOM      7  C   UNL     1       6.497   4.679  14.665  0.00  0.00    +0.000 A 
ATOM      8  C   UNL     1       7.580   4.942  15.504  0.00  0.00    +0.000 A 
ATOM      9  C   UNL     1       7.406   4.967  16.891  0.00  0.00    +0.000 A 
ATOM     10  C   UNL     1       6.138   4.730  17.427  0.00  0.00    +0.000 A 
ATOM     11  C   UNL     1       5.883   4.754  18.884  0.00  0.00    +0.000 A 
ATOM     12  O   UNL     1       6.770   4.991  19.692  0.00  0.00    +0.000 OA
ATOM     13  N   UNL     1       4.583   4.507  19.260  0.00  0.00    +0.000 N 
ATOM     14  H   UNL     1       4.362   4.579  20.243  0.00  0.00    +0.000 HD
ENDBRANCH   2   3
BRANCH   2  15
ATOM     15  N   UNL     1       1.886   5.086  19.997  0.00  0.00    +0.000 NA
ATOM     16  C   UNL     1       2.204   4.589  21.345  0.00  0.00    +0.000 C 
BRANCH  15  17
ATOM     17  C   UNL     1       2.636   6.340  19.770  0.00  0.00    +0.000 C 
BRANCH  17  18
ATOM     18  C   UNL     1       1.821   7.599  19.974  0.00  0.00    +0.000 A 
ATOM     19  C   UNL     1       1.715   8.558  18.959  0.00  0.00    +0.000 A 
ATOM     20  C   UNL     1       1.011   9.745  19.174  0.00  0.00    +0.000 A 
ATOM     21  C   UNL     1       0.409  10.006  20.413  0.00  0.00    +0.000 A 
ATOM     22  C   UNL     1      -0.267  11.213  20.660  0.00  0.00    +0.000 A 
ATOM     23  C   UNL     1      -0.846  11.463  21.904  0.00  0.00    +0.000 A 
ATOM     24  C   UNL     1      -0.767  10.507  22.913  0.00  0.00    +0.000 A 
ATOM     25  C   UNL     1      -0.104   9.301  22.681  0.00  0.00    +0.000 A 
ATOM     26  C   UNL     1       0.495   9.039  21.440  0.00  0.00    +0.000 A 
ATOM     27  C   UNL     1       1.192   7.843  21.204  0.00  0.00    +0.000 A 
ENDBRANCH  17  18
ENDBRANCH  15  17
ENDBRANCH   2  15
TORSDOF 4
ENDMDL
MODEL 6
REMARK VINA RESULT:      -7.9      1.810      2.613
REMARK  Name = 
REMARK  6 active torsions:
REMARK  status: ('A' for Active; 'I' for Inactive)
REMARK    1  A    between atoms: C_1  and  C_2
REMARK    2  A    between atoms: C_2  and  C_3
REMARK    3  A    between atoms: C_2  and  N_14
REMARK    4  A    between atoms: N_14  and  C_15
REMARK    5  A    between atoms: N_14  and  C_16
REMARK    6  A    between atoms: C_16  and  C_17
REMARK                            x       y       z     vdW  Elec       q    Type
REMARK                         _______ _______ _______ _____ _____    ______ ____
ROOT
ATOM      1  C   UNL     1       2.751   2.597  17.317  0.00  0.00    +0.000 C 
ATOM      2  C   UNL     1       3.084   3.429  18.566  0.00  0.00    +0.000 C 
ENDROOT
BRANCH   2   3
ATOM      3  C   UNL     1       4.187   4.448  18.238  0.00  0.00    +0.000 A 
ATOM      4  N   UNL     1       5.193   4.602  19.039  0.00  0.00    +0.000 NA
ATOM      5  C   UNL     1       6.185   5.526  18.702  0.00  0.00    +0.000 A 
ATOM      6  C   UNL     1       7.262   5.676  19.575  0.00  0.00    +0.000 A 
ATOM      7  C   UNL     1       8.292   6.565  19.278  0.00  0.00    +0.000 A 
ATOM      8  C   UNL     1       8.247   7.313  18.100  0.00  0.00    +0.000 A 
ATOM      9  C   UNL     1       7.168   7.176  17.221  0.00  0.00    +0.000 A 
ATOM     10  C   UNL     1       6.141   6.282  17.531  0.00  0.00    +0.000 A 
ATOM     11  C   UNL     1       4.979   6.080  16.638  0.00  0.00    +0.000 A 
ATOM     12  O   UNL     1       4.863   6.682  15.580  0.00  0.00    +0.000 OA
ATOM     13  N   UNL     1       4.051   5.163  17.076  0.00  0.00    +0.000 N 
ATOM     14  H   UNL     1       3.277   4.955  16.460  0.00  0.00    +0.000 HD
ENDBRANCH   2   3
BRANCH   2  15
ATOM     15  N   UNL     1       1.927   4.126  19.201  0.00  0.00    +0.000 NA
ATOM     16  C   UNL     1       0.923   3.182  19.717  0.00  0.00    +0.000 C 
BRANCH  15  17
ATOM     17  C   UNL     1       2.348   5.015  20.305  0.00  0.00    +0.000 C 
BRANCH  17  18
ATOM     18  C   UNL     1       1.888   6.450  20.161  0.00  0.00    +0.000 A 
ATOM     19  C   UNL     1       2.249   7.210  19.041  0.00  0.00    +0.000 A 
ATOM     20  C   UNL     1       1.872   8.551  18.942  0.00  0.00    +0.000 A 
ATOM     21  C   UNL     1       1.136   9.166  19.966  0.00  0.00    +0.000 A 
ATOM     22  C   UNL     1       0.784  10.524  19.902  0.00  0.00    +0.000 A 
ATOM     23  C   UNL     1       0.068  11.124  20.937  0.00  0.00    +0.000 A 
ATOM     24  C   UNL     1      -0.316  10.372  22.044  0.00  0.00    +0.000 A 
ATOM     25  C   UNL     1       0.020   9.020  22.120  0.00  0.00    +0.000 A 
ATOM     26  C   UNL     1       0.753   8.404  21.093  0.00  0.00    +0.000 A 
ATOM     27  C   UNL     1       1.125   7.053  21.172  0.00  0.00    +0.000 A 
ENDBRANCH  17  18
ENDBRANCH  15  17
ENDBRANCH   2  15
TORSDOF 4
ENDMDL
MODEL 7
REMARK VINA RESULT:      -7.8      1.756      2.852
REMARK  Name = 
REMARK  6 active torsions:
REMARK  status: ('A' for Active; 'I' for Inactive)
REMARK    1  A    between atoms: C_1  and  C_2
REMARK    2  A    between atoms: C_2  and  C_3
REMARK    3  A    between atoms: C_2  and  N_14
REMARK    4  A    between atoms: N_14  and  C_15
REMARK    5  A    between atoms: N_14  and  C_16
REMARK    6  A    between atoms: C_16  and  C_17
REMARK                            x       y       z     vdW  Elec       q    Type
REMARK                         _______ _______ _______ _____ _____    ______ ____
ROOT
ATOM      1  C   UNL     1       2.852   2.646  16.747  0.00  0.00    +0.000 C 
ATOM      2  C   UNL     1       3.161   3.333  18.088  0.00  0.00    +0.000 C 
ENDROOT
BRANCH   2   3
ATOM      3  C   UNL     1       4.258   4.392  17.894  0.00  0.00    +0.000 A 
ATOM      4  N   UNL     1       5.205   4.518  18.767  0.00  0.00    +0.000 NA
ATOM      5  C   UNL     1       6.194   5.480  18.552  0.00  0.00    +0.000 A 
ATOM      6  C   UNL     1       7.208   5.601  19.501  0.00  0.00    +0.000 A 
ATOM      7  C   UNL     1       8.233   6.526  19.326  0.00  0.00    +0.000 A 
ATOM      8  C   UNL     1       8.247   7.342  18.194  0.00  0.00    +0.000 A 
ATOM      9  C   UNL     1       7.232   7.236  17.238  0.00  0.00    +0.000 A 
ATOM     10  C   UNL     1       6.209   6.304  17.426  0.00  0.00    +0.000 A 
ATOM     11  C   UNL     1       5.112   6.133  16.448  0.00  0.00    +0.000 A 
ATOM     12  O   UNL     1       5.051   6.794  15.421  0.00  0.00    +0.000 OA
ATOM     13  N   UNL     1       4.180   5.172  16.769  0.00  0.00    +0.000 N 
ATOM     14  H   UNL     1       3.453   4.986  16.092  0.00  0.00    +0.000 HD
ENDBRANCH   2   3
BRANCH   2  15
ATOM     15  N   UNL     1       1.989   3.943  18.782  0.00  0.00    +0.000 NA
ATOM     16  C   UNL     1       0.944   2.952  19.086  0.00  0.00    +0.000 C 
BRANCH  15  17
ATOM     17  C   UNL     1       2.374   4.621  20.038  0.00  0.00    +0.000 C 
BRANCH  17  18
ATOM     18  C   UNL     1       2.032   6.094  20.083  0.00  0.00    +0.000 A 
ATOM     19  C   UNL     1       1.362   6.642  21.185  0.00  0.00    +0.000 A 
ATOM     20  C   UNL     1       0.995   7.990  21.195  0.00  0.00    +0.000 A 
ATOM     21  C   UNL     1       1.281   8.817  20.099  0.00  0.00    +0.000 A 
ATOM     22  C   UNL     1       0.883  10.165  20.076  0.00  0.00    +0.000 A 
ATOM     23  C   UNL     1       1.160  10.969  18.971  0.00  0.00    +0.000 A 
ATOM     24  C   UNL     1       1.846  10.442  17.881  0.00  0.00    +0.000 A 
ATOM     25  C   UNL     1       2.253   9.107  17.892  0.00  0.00    +0.000 A 
ATOM     26  C   UNL     1       1.971   8.280  18.990  0.00  0.00    +0.000 A 
ATOM     27  C   UNL     1       2.347   6.927  19.000  0.00  0.00    +0.000 A 
ENDBRANCH  17  18
ENDBRANCH  15  17
ENDBRANCH   2  15
TORSDOF 4
ENDMDL
MODEL 8
REMARK VINA RESULT:      -7.8      1.406      2.633
REMARK  Name = 
REMARK  6 active torsions:
REMARK  status: ('A' for Active; 'I' for Inactive)
REMARK    1  A    between atoms: C_1  and  C_2
REMARK    2  A    between atoms: C_2  and  C_3
REMARK    3  A    between atoms: C_2  and  N_14
REMARK    4  A    between atoms: N_14  and  C_15
REMARK    5  A    between atoms: N_14  and  C_16
REMARK    6  A    between atoms: C_16  and  C_17
REMARK                            x       y       z     vdW  Elec       q    Type
REMARK                         _______ _______ _______ _____ _____    ______ ____
ROOT
ATOM      1  C   UNL     1       5.373   3.472  19.278  0.00  0.00    +0.000 C 
ATOM      2  C   UNL     1       4.472   3.875  18.100  0.00  0.00    +0.000 C 
ENDROOT
BRANCH   2   3
ATOM      3  C   UNL     1       5.335   4.251  16.885  0.00  0.00    +0.000 A 
ATOM      4  N   UNL     1       5.165   3.650  15.751  0.00  0.00    +0.000 NA
ATOM      5  C   UNL     1       5.956   4.027  14.665  0.00  0.00    +0.000 A 
ATOM      6  C   UNL     1       5.756   3.371  13.450  0.00  0.00    +0.000 A 
ATOM      7  C   UNL     1       6.500   3.723  12.327  0.00  0.00    +0.000 A 
ATOM      8  C   UNL     1       7.453   4.738  12.415  0.00  0.00    +0.000 A 
ATOM      9  C   UNL     1       7.668   5.399  13.628  0.00  0.00    +0.000 A 
ATOM     10  C   UNL     1       6.916   5.036  14.748  0.00  0.00    +0.000 A 
ATOM     11  C   UNL     1       7.084   5.703  16.058  0.00  0.00    +0.000 A 
ATOM     12  O   UNL     1       7.886   6.612  16.223  0.00  0.00    +0.000 OA
ATOM     13  N   UNL     1       6.270   5.239  17.065  0.00  0.00    +0.000 N 
ATOM     14  H   UNL     1       6.314   5.716  17.955  0.00  0.00    +0.000 HD
ENDBRANCH   2   3
BRANCH   2  15
ATOM     15  N   UNL     1       3.451   2.864  17.697  0.00  0.00    +0.000 NA
ATOM     16  C   UNL     1       3.566   1.618  18.471  0.00  0.00    +0.000 C 
BRANCH  15  17
ATOM     17  C   UNL     1       2.071   3.377  17.836  0.00  0.00    +0.000 C 
BRANCH  17  18
ATOM     18  C   UNL     1       1.964   4.683  18.594  0.00  0.00    +0.000 A 
ATOM     19  C   UNL     1       1.753   4.694  19.979  0.00  0.00    +0.000 A 
ATOM     20  C   UNL     1       1.596   5.900  20.664  0.00  0.00    +0.000 A 
ATOM     21  C   UNL     1       1.635   7.123  19.978  0.00  0.00    +0.000 A 
ATOM     22  C   UNL     1       1.437   8.344  20.645  0.00  0.00    +0.000 A 
ATOM     23  C   UNL     1       1.461   9.550  19.945  0.00  0.00    +0.000 A 
ATOM     24  C   UNL     1       1.694   9.553  18.573  0.00  0.00    +0.000 A 
ATOM     25  C   UNL     1       1.899   8.349  17.897  0.00  0.00    +0.000 A 
ATOM     26  C   UNL     1       1.864   7.126  18.584  0.00  0.00    +0.000 A 
ATOM     27  C   UNL     1       2.036   5.906  17.911  0.00  0.00    +0.000 A 
ENDBRANCH  17  18
ENDBRANCH  15  17
ENDBRANCH   2  15
TORSDOF 4
ENDMDL
MODEL 9
REMARK VINA RESULT:      -7.6      4.411      9.083
REMARK  Name = 
REMARK  6 active torsions:
REMARK  status: ('A' for Active; 'I' for Inactive)
REMARK    1  A    between atoms: C_1  and  C_2
REMARK    2  A    between atoms: C_2  and  C_3
REMARK    3  A    between atoms: C_2  and  N_14
REMARK    4  A    between atoms: N_14  and  C_15
REMARK    5  A    between atoms: N_14  and  C_16
REMARK    6  A    between atoms: C_16  and  C_17
REMARK                            x       y       z     vdW  Elec       q    Type
REMARK                         _______ _______ _______ _____ _____    ______ ____
ROOT
ATOM      1  C   UNL     1       0.923  11.592  19.922  0.00  0.00    +0.000 C 
ATOM      2  C   UNL     1       0.280  10.261  19.498  0.00  0.00    +0.000 C 
ENDROOT
BRANCH   2   3
ATOM      3  C   UNL     1      -1.037  10.530  18.751  0.00  0.00    +0.000 A 
ATOM      4  N   UNL     1      -1.980  11.214  19.317  0.00  0.00    +0.000 NA
ATOM      5  C   UNL     1      -3.156  11.453  18.604  0.00  0.00    +0.000 A 
ATOM      6  C   UNL     1      -4.161  12.193  19.228  0.00  0.00    +0.000 A 
ATOM      7  C   UNL     1      -5.345  12.483  18.556  0.00  0.00    +0.000 A 
ATOM      8  C   UNL     1      -5.532  12.028  17.250  0.00  0.00    +0.000 A 
ATOM      9  C   UNL     1      -4.536  11.278  16.616  0.00  0.00    +0.000 A 
ATOM     10  C   UNL     1      -3.353  10.994  17.301  0.00  0.00    +0.000 A 
ATOM     11  C   UNL     1      -2.255  10.217  16.685  0.00  0.00    +0.000 A 
ATOM     12  O   UNL     1      -2.326   9.791  15.541  0.00  0.00    +0.000 OA
ATOM     13  N   UNL     1      -1.150  10.022  17.482  0.00  0.00    +0.000 N 
ATOM     14  H   UNL     1      -0.357   9.550  17.070  0.00  0.00    +0.000 HD
ENDBRANCH   2   3
BRANCH   2  15
ATOM     15  N   UNL     1       1.146   9.361  18.681  0.00  0.00    +0.000 NA
ATOM     16  C   UNL     1       2.102  10.111  17.851  0.00  0.00    +0.000 C 
BRANCH  15  17
ATOM     17  C   UNL     1       1.901   8.403  19.517  0.00  0.00    +0.000 C 
BRANCH  17  18
ATOM     18  C   UNL     1       2.480   7.231  18.756  0.00  0.00    +0.000 A 
ATOM     19  C   UNL     1       2.062   5.921  19.028  0.00  0.00    +0.000 A 
ATOM     20  C   UNL     1       2.642   4.838  18.364  0.00  0.00    +0.000 A 
ATOM     21  C   UNL     1       3.661   5.039  17.421  0.00  0.00    +0.000 A 
ATOM     22  C   UNL     1       4.284   3.958  16.775  0.00  0.00    +0.000 A 
ATOM     23  C   UNL     1       5.309   4.174  15.853  0.00  0.00    +0.000 A 
ATOM     24  C   UNL     1       5.716   5.472  15.558  0.00  0.00    +0.000 A 
ATOM     25  C   UNL     1       5.102   6.557  16.187  0.00  0.00    +0.000 A 
ATOM     26  C   UNL     1       4.080   6.356  17.127  0.00  0.00    +0.000 A 
ATOM     27  C   UNL     1       3.477   7.436  17.790  0.00  0.00    +0.000 A 
ENDBRANCH  17  18
ENDBRANCH  15  17
ENDBRANCH   2  15
TORSDOF 4
ENDMDL
