MODEL 1
REMARK VINA RESULT:      -8.3      0.000      0.000
REMARK  Name = 
REMARK  3 active torsions:
REMARK  status: ('A' for Active; 'I' for Inactive)
REMARK    1  A    between atoms: C_5  and  C_7
REMARK    2  A    between atoms: C_7  and  S_8
REMARK    3  A    between atoms: S_8  and  C_9
REMARK                            x       y       z     vdW  Elec       q    Type
REMARK                         _______ _______ _______ _____ _____    ______ ____
ROOT
ATOM      1  O   UNL     1       8.239   7.363  18.573  0.00  0.00    +0.000 OA
ATOM      2  C   UNL     1       7.542   6.558  17.960  0.00  0.00    +0.000 C 
ATOM      3  C   UNL     1       6.668   5.531  18.662  0.00  0.00    +0.000 C 
ATOM      4  N   UNL     1       5.530   5.060  17.855  0.00  0.00    +0.000 N 
ATOM      5  C   UNL     1       4.202   5.006  18.308  0.00  0.00    +0.000 C 
ATOM      6  O   UNL     1       3.263   4.680  17.572  0.00  0.00    +0.000 OA
ATOM      7  C   UNL     1       5.868   4.758  16.488  0.00  0.00    +0.000 A 
ATOM      8  C   UNL     1       5.167   3.826  15.715  0.00  0.00    +0.000 A 
ATOM      9  C   UNL     1       5.502   3.613  14.373  0.00  0.00    +0.000 A 
ATOM     10  C   UNL     1       6.528   4.345  13.779  0.00  0.00    +0.000 A 
ATOM     11  C   UNL     1       7.238   5.276  14.531  0.00  0.00    +0.000 A 
ATOM     12  C   UNL     1       6.931   5.462  15.882  0.00  0.00    +0.000 A 
ATOM     13  N   UNL     1       7.660   6.407  16.607  0.00  0.00    +0.000 N 
ATOM     14  H   UNL     1       8.333   7.009  16.141  0.00  0.00    +0.000 HD
ENDROOT
BRANCH   5  15
ATOM     15  C   UNL     1       3.911   5.502  19.733  0.00  0.00    +0.000 C 
BRANCH  15  16
ATOM     16  S   UNL     1       2.115   5.484  20.074  0.00  0.00    +0.000 S 
BRANCH  16  17
ATOM     17  C   UNL     1       1.678   7.216  20.162  0.00  0.00    +0.000 A 
ATOM     18  C   UNL     1       1.870   8.139  19.133  0.00  0.00    +0.000 A 
ATOM     19  C   UNL     1       1.411   9.456  19.267  0.00  0.00    +0.000 A 
ATOM     20  C   UNL     1       0.741   9.876  20.427  0.00  0.00    +0.000 A 
ATOM     21  C   UNL     1       0.243  11.183  20.566  0.00  0.00    +0.000 A 
ATOM     22  C   UNL     1      -0.436  11.570  21.723  0.00  0.00    +0.000 A 
ATOM     23  C   UNL     1      -0.622  10.659  22.758  0.00  0.00    +0.000 A 
ATOM     24  C   UNL     1      -0.132   9.358  22.636  0.00  0.00    +0.000 A 
ATOM     25  C   UNL     1       0.547   8.952  21.475  0.00  0.00    +0.000 A 
ATOM     26  C   UNL     1       1.021   7.636  21.328  0.00  0.00    +0.000 A 
ENDBRANCH  16  17
ENDBRANCH  15  16
ENDBRANCH   5  15
TORSDOF 3
ENDMDL
MODEL 2
REMARK VINA RESULT:      -8.2      2.646      3.640
REMARK  Name = 
REMARK  3 active torsions:
REMARK  status: ('A' for Active; 'I' for Inactive)
REMARK    1  A    between atoms: C_5  and  C_7
REMARK    2  A    between atoms: C_7  and  S_8
REMARK    3  A    between atoms: S_8  and  C_9
REMARK                            x       y       z     vdW  Elec       q    Type
REMARK                         _______ _______ _______ _____ _____    ______ ____
ROOT
ATOM      1  O   UNL     1       6.969   4.975  18.953  0.00  0.00    +0.000 OA
ATOM      2  C   UNL     1       5.766   4.725  18.932  0.00  0.00    +0.000 C 
ATOM      3  C   UNL     1       4.715   5.725  19.388  0.00  0.00    +0.000 C 
ATOM      4  N   UNL     1       3.385   5.509  18.797  0.00  0.00    +0.000 N 
ATOM      5  C   UNL     1       2.614   6.511  18.185  0.00  0.00    +0.000 C 
ATOM      6  O   UNL     1       1.535   6.270  17.629  0.00  0.00    +0.000 OA
ATOM      7  C   UNL     1       2.968   4.131  18.785  0.00  0.00    +0.000 A 
ATOM      8  C   UNL     1       1.625   3.738  18.806  0.00  0.00    +0.000 A 
ATOM      9  C   UNL     1       1.274   2.385  18.736  0.00  0.00    +0.000 A 
ATOM     10  C   UNL     1       2.260   1.407  18.621  0.00  0.00    +0.000 A 
ATOM     11  C   UNL     1       3.601   1.776  18.602  0.00  0.00    +0.000 A 
ATOM     12  C   UNL     1       3.955   3.125  18.711  0.00  0.00    +0.000 A 
ATOM     13  N   UNL     1       5.310   3.462  18.683  0.00  0.00    +0.000 N 
ATOM     14  H   UNL     1       6.015   2.755  18.495  0.00  0.00    +0.000 HD
ENDROOT
BRANCH   5  15
ATOM     15  C   UNL     1       3.212   7.923  18.100  0.00  0.00    +0.000 C 
BRANCH  15  16
ATOM     16  S   UNL     1       1.907   9.165  17.788  0.00  0.00    +0.000 S 
BRANCH  16  17
ATOM     17  C   UNL     1       1.112   9.359  19.378  0.00  0.00    +0.000 A 
ATOM     18  C   UNL     1       1.384   8.581  20.504  0.00  0.00    +0.000 A 
ATOM     19  C   UNL     1       0.771   8.870  21.731  0.00  0.00    +0.000 A 
ATOM     20  C   UNL     1      -0.116   9.950  21.861  0.00  0.00    +0.000 A 
ATOM     21  C   UNL     1      -0.713  10.276  23.091  0.00  0.00    +0.000 A 
ATOM     22  C   UNL     1      -1.579  11.367  23.198  0.00  0.00    +0.000 A 
ATOM     23  C   UNL     1      -1.863  12.142  22.078  0.00  0.00    +0.000 A 
ATOM     24  C   UNL     1      -1.280  11.828  20.849  0.00  0.00    +0.000 A 
ATOM     25  C   UNL     1      -0.402  10.739  20.728  0.00  0.00    +0.000 A 
ATOM     26  C   UNL     1       0.215  10.430  19.502  0.00  0.00    +0.000 A 
ENDBRANCH  16  17
ENDBRANCH  15  16
ENDBRANCH   5  15
TORSDOF 3
ENDMDL
MODEL 3
REMARK VINA RESULT:      -8.1      4.420      9.208
REMARK  Name = 
REMARK  3 active torsions:
REMARK  status: ('A' for Active; 'I' for Inactive)
REMARK    1  A    between atoms: C_5  and  C_7
REMARK    2  A    between atoms: C_7  and  S_8
REMARK    3  A    between atoms: S_8  and  C_9
REMARK                            x       y       z     vdW  Elec       q    Type
REMARK                         _______ _______ _______ _____ _____    ______ ____
ROOT
ATOM      1  O   UNL     1      -3.020  11.647  16.618  0.00  0.00    +0.000 OA
ATOM      2  C   UNL     1      -2.480  11.524  17.714  0.00  0.00    +0.000 C 
ATOM      3  C   UNL     1      -1.733  10.264  18.122  0.00  0.00    +0.000 C 
ATOM      4  N   UNL     1      -0.717  10.480  19.165  0.00  0.00    +0.000 N 
ATOM      5  C   UNL     1       0.609  10.026  19.090  0.00  0.00    +0.000 C 
ATOM      6  O   UNL     1       1.453  10.298  19.953  0.00  0.00    +0.000 OA
ATOM      7  C   UNL     1      -1.162  11.316  20.250  0.00  0.00    +0.000 A 
ATOM      8  C   UNL     1      -0.645  11.227  21.546  0.00  0.00    +0.000 A 
ATOM      9  C   UNL     1      -1.073  12.103  22.550  0.00  0.00    +0.000 A 
ATOM     10  C   UNL     1      -2.008  13.097  22.265  0.00  0.00    +0.000 A 
ATOM     11  C   UNL     1      -2.537  13.201  20.982  0.00  0.00    +0.000 A 
ATOM     12  C   UNL     1      -2.139  12.301  19.989  0.00  0.00    +0.000 A 
ATOM     13  N   UNL     1      -2.686  12.437  18.710  0.00  0.00    +0.000 N 
ATOM     14  H   UNL     1      -3.286  13.225  18.485  0.00  0.00    +0.000 HD
ENDROOT
BRANCH   5  15
ATOM     15  C   UNL     1       1.040   9.279  17.819  0.00  0.00    +0.000 C 
BRANCH  15  16
ATOM     16  S   UNL     1       2.720   8.583  18.010  0.00  0.00    +0.000 S 
BRANCH  16  17
ATOM     17  C   UNL     1       2.441   6.999  18.792  0.00  0.00    +0.000 A 
ATOM     18  C   UNL     1       2.062   6.824  20.123  0.00  0.00    +0.000 A 
ATOM     19  C   UNL     1       1.780   5.544  20.618  0.00  0.00    +0.000 A 
ATOM     20  C   UNL     1       1.858   4.413  19.790  0.00  0.00    +0.000 A 
ATOM     21  C   UNL     1       1.546   3.125  20.259  0.00  0.00    +0.000 A 
ATOM     22  C   UNL     1       1.614   2.019  19.409  0.00  0.00    +0.000 A 
ATOM     23  C   UNL     1       2.001   2.183  18.083  0.00  0.00    +0.000 A 
ATOM     24  C   UNL     1       2.317   3.456  17.603  0.00  0.00    +0.000 A 
ATOM     25  C   UNL     1       2.245   4.579  18.444  0.00  0.00    +0.000 A 
ATOM     26  C   UNL     1       2.533   5.869  17.965  0.00  0.00    +0.000 A 
ENDBRANCH  16  17
ENDBRANCH  15  16
ENDBRANCH   5  15
TORSDOF 3
ENDMDL
MODEL 4
REMARK VINA RESULT:      -7.9      1.497      2.389
REMARK  Name = 
REMARK  3 active torsions:
REMARK  status: ('A' for Active; 'I' for Inactive)
REMARK    1  A    between atoms: C_5  and  C_7
REMARK    2  A    between atoms: C_7  and  S_8
REMARK    3  A    between atoms: S_8  and  C_9
REMARK                            x       y       z     vdW  Elec       q    Type
REMARK                         _______ _______ _______ _____ _____    ______ ____
ROOT
ATOM      1  O   UNL     1       8.118   6.856  18.680  0.00  0.00    +0.000 OA
ATOM      2  C   UNL     1       7.574   6.073  17.905  0.00  0.00    +0.000 C 
ATOM      3  C   UNL     1       7.001   4.739  18.358  0.00  0.00    +0.000 C 
ATOM      4  N   UNL     1       5.940   4.214  17.482  0.00  0.00    +0.000 N 
ATOM      5  C   UNL     1       4.693   3.754  17.932  0.00  0.00    +0.000 C 
ATOM      6  O   UNL     1       3.799   3.395  17.155  0.00  0.00    +0.000 OA
ATOM      7  C   UNL     1       6.239   4.317  16.077  0.00  0.00    +0.000 A 
ATOM      8  C   UNL     1       5.708   3.449  15.117  0.00  0.00    +0.000 A 
ATOM      9  C   UNL     1       5.986   3.629  13.757  0.00  0.00    +0.000 A 
ATOM     10  C   UNL     1       6.780   4.695  13.336  0.00  0.00    +0.000 A 
ATOM     11  C   UNL     1       7.319   5.569  14.276  0.00  0.00    +0.000 A 
ATOM     12  C   UNL     1       7.075   5.366  15.638  0.00  0.00    +0.000 A 
ATOM     13  N   UNL     1       7.627   6.265  16.554  0.00  0.00    +0.000 N 
ATOM     14  H   UNL     1       8.116   7.096  16.233  0.00  0.00    +0.000 HD
ENDROOT
BRANCH   5  15
ATOM     15  C   UNL     1       4.401   3.832  19.438  0.00  0.00    +0.000 C 
BRANCH  15  16
ATOM     16  S   UNL     1       2.605   3.712  19.761  0.00  0.00    +0.000 S 
BRANCH  16  17
ATOM     17  C   UNL     1       2.078   5.417  19.883  0.00  0.00    +0.000 A 
ATOM     18  C   UNL     1       1.506   5.995  21.017  0.00  0.00    +0.000 A 
ATOM     19  C   UNL     1       1.209   7.364  21.043  0.00  0.00    +0.000 A 
ATOM     20  C   UNL     1       1.489   8.187  19.941  0.00  0.00    +0.000 A 
ATOM     21  C   UNL     1       1.230   9.569  19.961  0.00  0.00    +0.000 A 
ATOM     22  C   UNL     1       1.535  10.369  18.858  0.00  0.00    +0.000 A 
ATOM     23  C   UNL     1       2.095   9.799  17.719  0.00  0.00    +0.000 A 
ATOM     24  C   UNL     1       2.356   8.428  17.683  0.00  0.00    +0.000 A 
ATOM     25  C   UNL     1       2.062   7.612  18.788  0.00  0.00    +0.000 A 
ATOM     26  C   UNL     1       2.346   6.235  18.775  0.00  0.00    +0.000 A 
ENDBRANCH  16  17
ENDBRANCH  15  16
ENDBRANCH   5  15
TORSDOF 3
ENDMDL
MODEL 5
REMARK VINA RESULT:      -7.9      4.666      9.039
REMARK  Name = 
REMARK  3 active torsions:
REMARK  status: ('A' for Active; 'I' for Inactive)
REMARK    1  A    between atoms: C_5  and  C_7
REMARK    2  A    between atoms: C_7  and  S_8
REMARK    3  A    between atoms: S_8  and  C_9
REMARK                            x       y       z     vdW  Elec       q    Type
REMARK                         _______ _______ _______ _____ _____    ______ ____
ROOT
ATOM      1  O   UNL     1      -2.175  11.259  17.038  0.00  0.00    +0.000 OA
ATOM      2  C   UNL     1      -1.589  11.823  17.959  0.00  0.00    +0.000 C 
ATOM      3  C   UNL     1      -1.590  11.285  19.381  0.00  0.00    +0.000 C 
ATOM      4  N   UNL     1      -0.442  11.727  20.190  0.00  0.00    +0.000 N 
ATOM      5  C   UNL     1       0.377  10.870  20.944  0.00  0.00    +0.000 C 
ATOM      6  O   UNL     1       1.380  11.272  21.545  0.00  0.00    +0.000 OA
ATOM      7  C   UNL     1      -0.137  13.128  20.056  0.00  0.00    +0.000 A 
ATOM      8  C   UNL     1       0.487  13.874  21.061  0.00  0.00    +0.000 A 
ATOM      9  C   UNL     1       0.812  15.220  20.857  0.00  0.00    +0.000 A 
ATOM     10  C   UNL     1       0.537  15.833  19.635  0.00  0.00    +0.000 A 
ATOM     11  C   UNL     1      -0.086  15.108  18.623  0.00  0.00    +0.000 A 
ATOM     12  C   UNL     1      -0.446  13.775  18.840  0.00  0.00    +0.000 A 
ATOM     13  N   UNL     1      -1.065  13.075  17.802  0.00  0.00    +0.000 N 
ATOM     14  H   UNL     1      -1.167  13.496  16.883  0.00  0.00    +0.000 HD
ENDROOT
BRANCH   5  15
ATOM     15  C   UNL     1       0.073   9.365  20.898  0.00  0.00    +0.000 C 
BRANCH  15  16
ATOM     16  S   UNL     1       1.491   8.395  21.524  0.00  0.00    +0.000 S 
BRANCH  16  17
ATOM     17  C   UNL     1       1.731   7.136  20.277  0.00  0.00    +0.000 A 
ATOM     18  C   UNL     1       2.335   7.348  19.037  0.00  0.00    +0.000 A 
ATOM     19  C   UNL     1       2.558   6.276  18.163  0.00  0.00    +0.000 A 
ATOM     20  C   UNL     1       2.195   4.966  18.516  0.00  0.00    +0.000 A 
ATOM     21  C   UNL     1       2.442   3.873  17.668  0.00  0.00    +0.000 A 
ATOM     22  C   UNL     1       2.086   2.578  18.050  0.00  0.00    +0.000 A 
ATOM     23  C   UNL     1       1.475   2.358  19.280  0.00  0.00    +0.000 A 
ATOM     24  C   UNL     1       1.221   3.434  20.132  0.00  0.00    +0.000 A 
ATOM     25  C   UNL     1       1.579   4.742  19.765  0.00  0.00    +0.000 A 
ATOM     26  C   UNL     1       1.355   5.831  20.626  0.00  0.00    +0.000 A 
ENDBRANCH  16  17
ENDBRANCH  15  16
ENDBRANCH   5  15
TORSDOF 3
ENDMDL
MODEL 6
REMARK VINA RESULT:      -7.9      4.624      9.013
REMARK  Name = 
REMARK  3 active torsions:
REMARK  status: ('A' for Active; 'I' for Inactive)
REMARK    1  A    between atoms: C_5  and  C_7
REMARK    2  A    between atoms: C_7  and  S_8
REMARK    3  A    between atoms: S_8  and  C_9
REMARK                            x       y       z     vdW  Elec       q    Type
REMARK                         _______ _______ _______ _____ _____    ______ ____
ROOT
ATOM      1  O   UNL     1      -2.964  11.891  19.242  0.00  0.00    +0.000 OA
ATOM      2  C   UNL     1      -1.808  12.307  19.247  0.00  0.00    +0.000 C 
ATOM      3  C   UNL     1      -0.627  11.436  19.649  0.00  0.00    +0.000 C 
ATOM      4  N   UNL     1       0.660  11.872  19.082  0.00  0.00    +0.000 N 
ATOM      5  C   UNL     1       1.563  11.027  18.417  0.00  0.00    +0.000 C 
ATOM      6  O   UNL     1       2.597  11.449  17.885  0.00  0.00    +0.000 OA
ATOM      7  C   UNL     1       0.881  13.293  19.159  0.00  0.00    +0.000 A 
ATOM      8  C   UNL     1       2.156  13.867  19.213  0.00  0.00    +0.000 A 
ATOM      9  C   UNL     1       2.315  15.257  19.229  0.00  0.00    +0.000 A 
ATOM     10  C   UNL     1       1.202  16.094  19.167  0.00  0.00    +0.000 A 
ATOM     11  C   UNL     1      -0.075  15.543  19.114  0.00  0.00    +0.000 A 
ATOM     12  C   UNL     1      -0.237  14.154  19.138  0.00  0.00    +0.000 A 
ATOM     13  N   UNL     1      -1.532  13.634  19.079  0.00  0.00    +0.000 N 
ATOM     14  H   UNL     1      -2.329  14.246  18.929  0.00  0.00    +0.000 HD
ENDROOT
BRANCH   5  15
ATOM     15  C   UNL     1       1.168   9.553  18.241  0.00  0.00    +0.000 C 
BRANCH  15  16
ATOM     16  S   UNL     1       2.628   8.532  17.832  0.00  0.00    +0.000 S 
BRANCH  16  17
ATOM     17  C   UNL     1       2.355   7.014  18.738  0.00  0.00    +0.000 A 
ATOM     18  C   UNL     1       2.030   6.943  20.093  0.00  0.00    +0.000 A 
ATOM     19  C   UNL     1       1.748   5.708  20.692  0.00  0.00    +0.000 A 
ATOM     20  C   UNL     1       1.772   4.519  19.946  0.00  0.00    +0.000 A 
ATOM     21  C   UNL     1       1.458   3.275  20.520  0.00  0.00    +0.000 A 
ATOM     22  C   UNL     1       1.472   2.109  19.751  0.00  0.00    +0.000 A 
ATOM     23  C   UNL     1       1.805   2.169  18.402  0.00  0.00    +0.000 A 
ATOM     24  C   UNL     1       2.121   3.397  17.818  0.00  0.00    +0.000 A 
ATOM     25  C   UNL     1       2.105   4.579  18.576  0.00  0.00    +0.000 A 
ATOM     26  C   UNL     1       2.393   5.826  17.994  0.00  0.00    +0.000 A 
ENDBRANCH  16  17
ENDBRANCH  15  16
ENDBRANCH   5  15
TORSDOF 3
ENDMDL
MODEL 7
REMARK VINA RESULT:      -7.8      3.230      8.787
REMARK  Name = 
REMARK  3 active torsions:
REMARK  status: ('A' for Active; 'I' for Inactive)
REMARK    1  A    between atoms: C_5  and  C_7
REMARK    2  A    between atoms: C_7  and  S_8
REMARK    3  A    between atoms: S_8  and  C_9
REMARK                            x       y       z     vdW  Elec       q    Type
REMARK                         _______ _______ _______ _____ _____    ______ ____
ROOT
ATOM      1  O   UNL     1       2.391  12.361  17.998  0.00  0.00    +0.000 OA
ATOM      2  C   UNL     1       1.701  11.900  18.903  0.00  0.00    +0.000 C 
ATOM      3  C   UNL     1       1.136  10.489  18.865  0.00  0.00    +0.000 C 
ATOM      4  N   UNL     1       0.839   9.925  20.192  0.00  0.00    +0.000 N 
ATOM      5  C   UNL     1       1.259   8.659  20.630  0.00  0.00    +0.000 C 
ATOM      6  O   UNL     1       1.057   8.255  21.782  0.00  0.00    +0.000 OA
ATOM      7  C   UNL     1       0.167  10.840  21.078  0.00  0.00    +0.000 A 
ATOM      8  C   UNL     1      -0.676  10.421  22.113  0.00  0.00    +0.000 A 
ATOM      9  C   UNL     1      -1.260  11.350  22.981  0.00  0.00    +0.000 A 
ATOM     10  C   UNL     1      -0.990  12.710  22.841  0.00  0.00    +0.000 A 
ATOM     11  C   UNL     1      -0.155  13.148  21.817  0.00  0.00    +0.000 A 
ATOM     12  C   UNL     1       0.397  12.224  20.925  0.00  0.00    +0.000 A 
ATOM     13  N   UNL     1       1.234  12.696  19.911  0.00  0.00    +0.000 N 
ATOM     14  H   UNL     1       1.508  13.674  19.880  0.00  0.00    +0.000 HD
ENDROOT
BRANCH   5  15
ATOM     15  C   UNL     1       2.113   7.815  19.671  0.00  0.00    +0.000 C 
BRANCH  15  16
ATOM     16  S   UNL     1       2.003   6.040  20.092  0.00  0.00    +0.000 S 
BRANCH  16  17
ATOM     17  C   UNL     1       3.008   5.242  18.845  0.00  0.00    +0.000 A 
ATOM     18  C   UNL     1       2.626   4.115  18.117  0.00  0.00    +0.000 A 
ATOM     19  C   UNL     1       3.448   3.617  17.097  0.00  0.00    +0.000 A 
ATOM     20  C   UNL     1       4.663   4.243  16.775  0.00  0.00    +0.000 A 
ATOM     21  C   UNL     1       5.484   3.779  15.733  0.00  0.00    +0.000 A 
ATOM     22  C   UNL     1       6.679   4.431  15.421  0.00  0.00    +0.000 A 
ATOM     23  C   UNL     1       7.072   5.550  16.149  0.00  0.00    +0.000 A 
ATOM     24  C   UNL     1       6.268   6.021  17.188  0.00  0.00    +0.000 A 
ATOM     25  C   UNL     1       5.060   5.380  17.509  0.00  0.00    +0.000 A 
ATOM     26  C   UNL     1       4.227   5.861  18.534  0.00  0.00    +0.000 A 
ENDBRANCH  16  17
ENDBRANCH  15  16
ENDBRANCH   5  15
TORSDOF 3
ENDMDL
MODEL 8
REMARK VINA RESULT:      -7.7      3.997      9.151
REMARK  Name = 
REMARK  3 active torsions:
REMARK  status: ('A' for Active; 'I' for Inactive)
REMARK    1  A    between atoms: C_5  and  C_7
REMARK    2  A    between atoms: C_7  and  S_8
REMARK    3  A    between atoms: S_8  and  C_9
REMARK                            x       y       z     vdW  Elec       q    Type
REMARK                         _______ _______ _______ _____ _____    ______ ____
ROOT
ATOM      1  O   UNL     1       0.325   9.412  24.116  0.00  0.00    +0.000 OA
ATOM      2  C   UNL     1      -0.032  10.053  23.130  0.00  0.00    +0.000 C 
ATOM      3  C   UNL     1       0.864  10.256  21.918  0.00  0.00    +0.000 C 
ATOM      4  N   UNL     1       0.131  10.532  20.671  0.00  0.00    +0.000 N 
ATOM      5  C   UNL     1       0.351   9.863  19.456  0.00  0.00    +0.000 C 
ATOM      6  O   UNL     1      -0.342  10.069  18.452  0.00  0.00    +0.000 OA
ATOM      7  C   UNL     1      -0.939  11.484  20.820  0.00  0.00    +0.000 A 
ATOM      8  C   UNL     1      -1.391  12.295  19.773  0.00  0.00    +0.000 A 
ATOM      9  C   UNL     1      -2.473  13.163  19.957  0.00  0.00    +0.000 A 
ATOM     10  C   UNL     1      -3.133  13.216  21.184  0.00  0.00    +0.000 A 
ATOM     11  C   UNL     1      -2.697  12.419  22.238  0.00  0.00    +0.000 A 
ATOM     12  C   UNL     1      -1.591  11.580  22.067  0.00  0.00    +0.000 A 
ATOM     13  N   UNL     1      -1.183  10.790  23.144  0.00  0.00    +0.000 N 
ATOM     14  H   UNL     1      -1.731  10.757  23.999  0.00  0.00    +0.000 HD
ENDROOT
BRANCH   5  15
ATOM     15  C   UNL     1       1.405   8.746  19.433  0.00  0.00    +0.000 C 
BRANCH  15  16
ATOM     16  S   UNL     1       2.371   8.794  17.881  0.00  0.00    +0.000 S 
BRANCH  16  17
ATOM     17  C   UNL     1       2.931   7.108  17.674  0.00  0.00    +0.000 A 
ATOM     18  C   UNL     1       4.223   6.739  17.297  0.00  0.00    +0.000 A 
ATOM     19  C   UNL     1       4.590   5.387  17.249  0.00  0.00    +0.000 A 
ATOM     20  C   UNL     1       3.677   4.377  17.589  0.00  0.00    +0.000 A 
ATOM     21  C   UNL     1       4.035   3.017  17.581  0.00  0.00    +0.000 A 
ATOM     22  C   UNL     1       3.113   2.033  17.941  0.00  0.00    +0.000 A 
ATOM     23  C   UNL     1       1.820   2.391  18.308  0.00  0.00    +0.000 A 
ATOM     24  C   UNL     1       1.448   3.736  18.319  0.00  0.00    +0.000 A 
ATOM     25  C   UNL     1       2.366   4.739  17.967  0.00  0.00    +0.000 A 
ATOM     26  C   UNL     1       2.013   6.099  18.001  0.00  0.00    +0.000 A 
ENDBRANCH  16  17
ENDBRANCH  15  16
ENDBRANCH   5  15
TORSDOF 3
ENDMDL
MODEL 9
REMARK VINA RESULT:      -7.7      4.241      9.239
REMARK  Name = 
REMARK  3 active torsions:
REMARK  status: ('A' for Active; 'I' for Inactive)
REMARK    1  A    between atoms: C_5  and  C_7
REMARK    2  A    between atoms: C_7  and  S_8
REMARK    3  A    between atoms: S_8  and  C_9
REMARK                            x       y       z     vdW  Elec       q    Type
REMARK                         _______ _______ _______ _____ _____    ______ ____
ROOT
ATOM      1  O   UNL     1      -2.819  11.170  15.907  0.00  0.00    +0.000 OA
ATOM      2  C   UNL     1      -2.402  11.151  17.063  0.00  0.00    +0.000 C 
ATOM      3  C   UNL     1      -1.687   9.947  17.655  0.00  0.00    +0.000 C 
ATOM      4  N   UNL     1      -0.797  10.273  18.782  0.00  0.00    +0.000 N 
ATOM      5  C   UNL     1       0.536   9.846  18.892  0.00  0.00    +0.000 C 
ATOM      6  O   UNL     1       1.274  10.209  19.816  0.00  0.00    +0.000 OA
ATOM      7  C   UNL     1      -1.373  11.185  19.736  0.00  0.00    +0.000 A 
ATOM      8  C   UNL     1      -1.002  11.216  21.085  0.00  0.00    +0.000 A 
ATOM      9  C   UNL     1      -1.552  12.162  21.957  0.00  0.00    +0.000 A 
ATOM     10  C   UNL     1      -2.464  13.106  21.488  0.00  0.00    +0.000 A 
ATOM     11  C   UNL     1      -2.848  13.091  20.150  0.00  0.00    +0.000 A 
ATOM     12  C   UNL     1      -2.329  12.122  19.286  0.00  0.00    +0.000 A 
ATOM     13  N   UNL     1      -2.731  12.138  17.949  0.00  0.00    +0.000 N 
ATOM     14  H   UNL     1      -3.313  12.890  17.593  0.00  0.00    +0.000 HD
ENDROOT
BRANCH   5  15
ATOM     15  C   UNL     1       1.117   9.007  17.744  0.00  0.00    +0.000 C 
BRANCH  15  16
ATOM     16  S   UNL     1       2.934   8.873  17.890  0.00  0.00    +0.000 S 
BRANCH  16  17
ATOM     17  C   UNL     1       3.255   7.129  17.656  0.00  0.00    +0.000 A 
ATOM     18  C   UNL     1       4.455   6.597  17.184  0.00  0.00    +0.000 A 
ATOM     19  C   UNL     1       4.640   5.209  17.121  0.00  0.00    +0.000 A 
ATOM     20  C   UNL     1       3.633   4.324  17.540  0.00  0.00    +0.000 A 
ATOM     21  C   UNL     1       3.812   2.930  17.516  0.00  0.00    +0.000 A 
ATOM     22  C   UNL     1       2.801   2.073  17.955  0.00  0.00    +0.000 A 
ATOM     23  C   UNL     1       1.598   2.595  18.418  0.00  0.00    +0.000 A 
ATOM     24  C   UNL     1       1.404   3.977  18.445  0.00  0.00    +0.000 A 
ATOM     25  C   UNL     1       2.414   4.852  18.013  0.00  0.00    +0.000 A 
ATOM     26  C   UNL     1       2.243   6.247  18.062  0.00  0.00    +0.000 A 
ENDBRANCH  16  17
ENDBRANCH  15  16
ENDBRANCH   5  15
TORSDOF 3
ENDMDL
