MODEL 1
REMARK VINA RESULT:      -9.8      0.000      0.000
REMARK  Name = 
REMARK  3 active torsions:
REMARK  status: ('A' for Active; 'I' for Inactive)
REMARK    1  A    between atoms: C_1  and  C_2
REMARK    2  A    between atoms: C_6  and  C_7
REMARK    3  A    between atoms: C_11  and  C_12
REMARK                            x       y       z     vdW  Elec       q    Type
REMARK                         _______ _______ _______ _____ _____    ______ ____
ROOT
ATOM      1  C   UNL     1       5.476   5.229  15.736  0.00  0.00    +0.000 A 
ATOM      2  C   UNL     1       5.116   6.572  15.949  0.00  0.00    +0.000 A 
ATOM      3  C   UNL     1       4.633   7.012  17.186  0.00  0.00    +0.000 A 
ATOM      4  C   UNL     1       4.468   6.112  18.238  0.00  0.00    +0.000 A 
ATOM      5  C   UNL     1       4.789   4.766  18.051  0.00  0.00    +0.000 A 
ATOM      6  C   UNL     1       5.320   4.347  16.819  0.00  0.00    +0.000 A 
ENDROOT
BRANCH   5   7
ATOM      7  C   UNL     1       4.568   3.805  19.177  0.00  0.00    +0.000 C 
ATOM      8  O   UNL     1       5.525   3.200  19.645  0.00  0.00    +0.000 OA
ATOM      9  N   UNL     1       3.291   3.678  19.682  0.00  0.00    +0.000 N 
ATOM     10  C   UNL     1       2.909   2.760  20.767  0.00  0.00    +0.000 C 
ATOM     11  C   UNL     1       1.424   3.162  20.957  0.00  0.00    +0.000 C 
ATOM     12  C   UNL     1       1.480   4.667  20.762  0.00  0.00    +0.000 C 
ATOM     13  C   UNL     1       2.126   4.514  19.400  0.00  0.00    +0.000 C 
ATOM     14  C   UNL     1       1.106   3.564  18.774  0.00  0.00    +0.000 C 
ATOM     15  O   UNL     1       0.782   3.468  17.604  0.00  0.00    +0.000 OA
ATOM     16  O   UNL     1       0.668   2.743  19.799  0.00  0.00    +0.000 OA
ENDBRANCH   5   7
BRANCH   1  22
ATOM     17  C   UNL     1       4.944   2.535  11.537  0.00  0.00    +0.000 C 
ATOM     18  C   UNL     1       5.779   3.457  12.366  0.00  0.00    +0.000 A 
ATOM     19  C   UNL     1       7.022   3.907  11.921  0.00  0.00    +0.000 A 
ATOM     20  C   UNL     1       7.772   4.771  12.711  0.00  0.00    +0.000 A 
ATOM     21  C   UNL     1       7.282   5.192  13.956  0.00  0.00    +0.000 A 
ATOM     22  C   UNL     1       6.029   4.768  14.437  0.00  0.00    +0.000 A 
ATOM     23  C   UNL     1       5.298   3.893  13.616  0.00  0.00    +0.000 A 
ENDBRANCH   1  22
TORSDOF 2
ENDMDL
MODEL 2
REMARK VINA RESULT:      -9.7      1.432      2.205
REMARK  Name = 
REMARK  3 active torsions:
REMARK  status: ('A' for Active; 'I' for Inactive)
REMARK    1  A    between atoms: C_1  and  C_2
REMARK    2  A    between atoms: C_6  and  C_7
REMARK    3  A    between atoms: C_11  and  C_12
REMARK                            x       y       z     vdW  Elec       q    Type
REMARK                         _______ _______ _______ _____ _____    ______ ____
ROOT
ATOM      1  C   UNL     1       6.343   4.796  16.062  0.00  0.00    +0.000 A 
ATOM      2  C   UNL     1       7.375   4.785  17.019  0.00  0.00    +0.000 A 
ATOM      3  C   UNL     1       7.106   4.919  18.386  0.00  0.00    +0.000 A 
ATOM      4  C   UNL     1       5.796   5.096  18.831  0.00  0.00    +0.000 A 
ATOM      5  C   UNL     1       4.752   5.140  17.905  0.00  0.00    +0.000 A 
ATOM      6  C   UNL     1       5.031   4.955  16.540  0.00  0.00    +0.000 A 
ENDROOT
BRANCH   5   7
ATOM      7  C   UNL     1       3.358   5.373  18.395  0.00  0.00    +0.000 C 
ATOM      8  O   UNL     1       2.856   6.484  18.269  0.00  0.00    +0.000 OA
ATOM      9  N   UNL     1       2.667   4.304  18.926  0.00  0.00    +0.000 N 
ATOM     10  C   UNL     1       1.303   4.377  19.472  0.00  0.00    +0.000 C 
ATOM     11  C   UNL     1       1.050   2.879  19.782  0.00  0.00    +0.000 C 
ATOM     12  C   UNL     1       1.726   2.198  18.606  0.00  0.00    +0.000 C 
ATOM     13  C   UNL     1       3.041   2.890  18.898  0.00  0.00    +0.000 C 
ATOM     14  C   UNL     1       3.180   2.495  20.368  0.00  0.00    +0.000 C 
ATOM     15  O   UNL     1       4.199   2.308  21.006  0.00  0.00    +0.000 OA
ATOM     16  O   UNL     1       1.895   2.475  20.882  0.00  0.00    +0.000 OA
ENDBRANCH   5   7
BRANCH   1  22
ATOM     17  C   UNL     1       5.274   2.519  11.722  0.00  0.00    +0.000 C 
ATOM     18  C   UNL     1       6.104   3.508  12.474  0.00  0.00    +0.000 A 
ATOM     19  C   UNL     1       7.085   4.267  11.835  0.00  0.00    +0.000 A 
ATOM     20  C   UNL     1       7.835   5.185  12.562  0.00  0.00    +0.000 A 
ATOM     21  C   UNL     1       7.609   5.351  13.936  0.00  0.00    +0.000 A 
ATOM     22  C   UNL     1       6.623   4.611  14.615  0.00  0.00    +0.000 A 
ATOM     23  C   UNL     1       5.885   3.690  13.854  0.00  0.00    +0.000 A 
ENDBRANCH   1  22
TORSDOF 2
ENDMDL
MODEL 3
REMARK VINA RESULT:      -9.1      3.335      7.254
REMARK  Name = 
REMARK  3 active torsions:
REMARK  status: ('A' for Active; 'I' for Inactive)
REMARK    1  A    between atoms: C_1  and  C_2
REMARK    2  A    between atoms: C_6  and  C_7
REMARK    3  A    between atoms: C_11  and  C_12
REMARK                            x       y       z     vdW  Elec       q    Type
REMARK                         _______ _______ _______ _____ _____    ______ ____
ROOT
ATOM      1  C   UNL     1       2.440   6.525  19.716  0.00  0.00    +0.000 A 
ATOM      2  C   UNL     1       1.743   5.370  20.116  0.00  0.00    +0.000 A 
ATOM      3  C   UNL     1       2.373   4.122  20.182  0.00  0.00    +0.000 A 
ATOM      4  C   UNL     1       3.714   3.990  19.820  0.00  0.00    +0.000 A 
ATOM      5  C   UNL     1       4.426   5.112  19.391  0.00  0.00    +0.000 A 
ATOM      6  C   UNL     1       3.795   6.367  19.377  0.00  0.00    +0.000 A 
ENDROOT
BRANCH   5   7
ATOM      7  C   UNL     1       5.851   4.946  18.966  0.00  0.00    +0.000 C 
ATOM      8  O   UNL     1       6.723   4.841  19.821  0.00  0.00    +0.000 OA
ATOM      9  N   UNL     1       6.123   4.865  17.617  0.00  0.00    +0.000 N 
ATOM     10  C   UNL     1       7.471   4.728  17.042  0.00  0.00    +0.000 C 
ATOM     11  C   UNL     1       7.115   4.566  15.542  0.00  0.00    +0.000 C 
ATOM     12  C   UNL     1       5.859   3.715  15.609  0.00  0.00    +0.000 C 
ATOM     13  C   UNL     1       5.172   4.715  16.516  0.00  0.00    +0.000 C 
ATOM     14  C   UNL     1       5.367   5.966  15.660  0.00  0.00    +0.000 C 
ATOM     15  O   UNL     1       4.648   6.945  15.578  0.00  0.00    +0.000 OA
ATOM     16  O   UNL     1       6.597   5.818  15.041  0.00  0.00    +0.000 OA
ENDBRANCH   5   7
BRANCH   1  22
ATOM     17  C   UNL     1      -0.084  10.140  22.108  0.00  0.00    +0.000 C 
ATOM     18  C   UNL     1       0.552   9.645  20.850  0.00  0.00    +0.000 A 
ATOM     19  C   UNL     1       0.569  10.423  19.692  0.00  0.00    +0.000 A 
ATOM     20  C   UNL     1       1.176   9.938  18.539  0.00  0.00    +0.000 A 
ATOM     21  C   UNL     1       1.772   8.668  18.536  0.00  0.00    +0.000 A 
ATOM     22  C   UNL     1       1.785   7.857  19.686  0.00  0.00    +0.000 A 
ATOM     23  C   UNL     1       1.160   8.374  20.834  0.00  0.00    +0.000 A 
ENDBRANCH   1  22
TORSDOF 2
ENDMDL
MODEL 4
REMARK VINA RESULT:      -9.1      4.185      7.601
REMARK  Name = 
REMARK  3 active torsions:
REMARK  status: ('A' for Active; 'I' for Inactive)
REMARK    1  A    between atoms: C_1  and  C_2
REMARK    2  A    between atoms: C_6  and  C_7
REMARK    3  A    between atoms: C_11  and  C_12
REMARK                            x       y       z     vdW  Elec       q    Type
REMARK                         _______ _______ _______ _____ _____    ______ ____
ROOT
ATOM      1  C   UNL     1       1.488   8.644  19.927  0.00  0.00    +0.000 A 
ATOM      2  C   UNL     1       1.589   9.123  18.608  0.00  0.00    +0.000 A 
ATOM      3  C   UNL     1       2.309   8.427  17.631  0.00  0.00    +0.000 A 
ATOM      4  C   UNL     1       2.973   7.245  17.955  0.00  0.00    +0.000 A 
ATOM      5  C   UNL     1       2.916   6.757  19.262  0.00  0.00    +0.000 A 
ATOM      6  C   UNL     1       2.149   7.440  20.221  0.00  0.00    +0.000 A 
ENDROOT
BRANCH   5   7
ATOM      7  C   UNL     1       3.669   5.509  19.603  0.00  0.00    +0.000 C 
ATOM      8  O   UNL     1       4.881   5.567  19.769  0.00  0.00    +0.000 OA
ATOM      9  N   UNL     1       2.952   4.343  19.770  0.00  0.00    +0.000 N 
ATOM     10  C   UNL     1       3.548   3.033  20.080  0.00  0.00    +0.000 C 
ATOM     11  C   UNL     1       2.263   2.184  20.263  0.00  0.00    +0.000 C 
ATOM     12  C   UNL     1       1.339   3.162  20.964  0.00  0.00    +0.000 C 
ATOM     13  C   UNL     1       1.502   4.183  19.857  0.00  0.00    +0.000 C 
ATOM     14  C   UNL     1       1.135   3.291  18.672  0.00  0.00    +0.000 C 
ATOM     15  O   UNL     1       0.605   3.607  17.623  0.00  0.00    +0.000 OA
ATOM     16  O   UNL     1       1.613   2.029  18.982  0.00  0.00    +0.000 OA
ENDBRANCH   5   7
BRANCH   1  22
ATOM     17  C   UNL     1      -1.673  12.353  21.119  0.00  0.00    +0.000 C 
ATOM     18  C   UNL     1      -0.870  11.170  21.554  0.00  0.00    +0.000 A 
ATOM     19  C   UNL     1      -0.897  10.723  22.875  0.00  0.00    +0.000 A 
ATOM     20  C   UNL     1      -0.144   9.614  23.248  0.00  0.00    +0.000 A 
ATOM     21  C   UNL     1       0.643   8.945  22.300  0.00  0.00    +0.000 A 
ATOM     22  C   UNL     1       0.689   9.359  20.955  0.00  0.00    +0.000 A 
ATOM     23  C   UNL     1      -0.079  10.484  20.612  0.00  0.00    +0.000 A 
ENDBRANCH   1  22
TORSDOF 2
ENDMDL
MODEL 5
REMARK VINA RESULT:      -9.0      1.110      1.775
REMARK  Name = 
REMARK  3 active torsions:
REMARK  status: ('A' for Active; 'I' for Inactive)
REMARK    1  A    between atoms: C_1  and  C_2
REMARK    2  A    between atoms: C_6  and  C_7
REMARK    3  A    between atoms: C_11  and  C_12
REMARK                            x       y       z     vdW  Elec       q    Type
REMARK                         _______ _______ _______ _____ _____    ______ ____
ROOT
ATOM      1  C   UNL     1       6.158   4.809  16.527  0.00  0.00    +0.000 A 
ATOM      2  C   UNL     1       6.704   5.943  17.156  0.00  0.00    +0.000 A 
ATOM      3  C   UNL     1       6.593   6.137  18.537  0.00  0.00    +0.000 A 
ATOM      4  C   UNL     1       5.905   5.214  19.324  0.00  0.00    +0.000 A 
ATOM      5  C   UNL     1       5.326   4.092  18.727  0.00  0.00    +0.000 A 
ATOM      6  C   UNL     1       5.489   3.885  17.346  0.00  0.00    +0.000 A 
ENDROOT
BRANCH   5   7
ATOM      7  C   UNL     1       4.556   3.134  19.578  0.00  0.00    +0.000 C 
ATOM      8  O   UNL     1       5.153   2.234  20.158  0.00  0.00    +0.000 OA
ATOM      9  N   UNL     1       3.199   3.334  19.720  0.00  0.00    +0.000 N 
ATOM     10  C   UNL     1       2.302   2.466  20.501  0.00  0.00    +0.000 C 
ATOM     11  C   UNL     1       0.977   3.263  20.382  0.00  0.00    +0.000 C 
ATOM     12  C   UNL     1       1.466   4.697  20.469  0.00  0.00    +0.000 C 
ATOM     13  C   UNL     1       2.414   4.496  19.306  0.00  0.00    +0.000 C 
ATOM     14  C   UNL     1       1.412   3.948  18.291  0.00  0.00    +0.000 C 
ATOM     15  O   UNL     1       1.423   4.064  17.080  0.00  0.00    +0.000 OA
ATOM     16  O   UNL     1       0.505   3.195  19.018  0.00  0.00    +0.000 OA
ENDBRANCH   5   7
BRANCH   1  22
ATOM     17  C   UNL     1       8.474   5.903  12.213  0.00  0.00    +0.000 C 
ATOM     18  C   UNL     1       7.446   5.100  12.943  0.00  0.00    +0.000 A 
ATOM     19  C   UNL     1       6.681   4.136  12.288  0.00  0.00    +0.000 A 
ATOM     20  C   UNL     1       5.738   3.399  12.996  0.00  0.00    +0.000 A 
ATOM     21  C   UNL     1       5.553   3.623  14.368  0.00  0.00    +0.000 A 
ATOM     22  C   UNL     1       6.312   4.580  15.067  0.00  0.00    +0.000 A 
ATOM     23  C   UNL     1       7.254   5.310  14.322  0.00  0.00    +0.000 A 
ENDBRANCH   1  22
TORSDOF 2
ENDMDL
MODEL 6
REMARK VINA RESULT:      -9.0      3.138      7.258
REMARK  Name = 
REMARK  3 active torsions:
REMARK  status: ('A' for Active; 'I' for Inactive)
REMARK    1  A    between atoms: C_1  and  C_2
REMARK    2  A    between atoms: C_6  and  C_7
REMARK    3  A    between atoms: C_11  and  C_12
REMARK                            x       y       z     vdW  Elec       q    Type
REMARK                         _______ _______ _______ _____ _____    ______ ____
ROOT
ATOM      1  C   UNL     1       2.199   6.585  19.521  0.00  0.00    +0.000 A 
ATOM      2  C   UNL     1       2.037   5.836  20.701  0.00  0.00    +0.000 A 
ATOM      3  C   UNL     1       2.489   4.515  20.797  0.00  0.00    +0.000 A 
ATOM      4  C   UNL     1       3.091   3.897  19.702  0.00  0.00    +0.000 A 
ATOM      5  C   UNL     1       3.242   4.603  18.507  0.00  0.00    +0.000 A 
ATOM      6  C   UNL     1       2.829   5.944  18.441  0.00  0.00    +0.000 A 
ENDROOT
BRANCH   5   7
ATOM      7  C   UNL     1       3.853   3.912  17.328  0.00  0.00    +0.000 C 
ATOM      8  O   UNL     1       3.209   3.053  16.737  0.00  0.00    +0.000 OA
ATOM      9  N   UNL     1       5.108   4.310  16.919  0.00  0.00    +0.000 N 
ATOM     10  C   UNL     1       5.850   3.712  15.797  0.00  0.00    +0.000 C 
ATOM     11  C   UNL     1       7.089   4.644  15.761  0.00  0.00    +0.000 C 
ATOM     12  C   UNL     1       6.473   5.996  16.072  0.00  0.00    +0.000 C 
ATOM     13  C   UNL     1       5.869   5.478  17.360  0.00  0.00    +0.000 C 
ATOM     14  C   UNL     1       7.137   4.902  17.988  0.00  0.00    +0.000 C 
ATOM     15  O   UNL     1       7.422   4.808  19.168  0.00  0.00    +0.000 OA
ATOM     16  O   UNL     1       7.893   4.408  16.938  0.00  0.00    +0.000 OA
ENDBRANCH   5   7
BRANCH   1  22
ATOM     17  C   UNL     1       0.166  10.612  21.715  0.00  0.00    +0.000 C 
ATOM     18  C   UNL     1       0.770   9.989  20.498  0.00  0.00    +0.000 A 
ATOM     19  C   UNL     1       0.954  10.721  19.325  0.00  0.00    +0.000 A 
ATOM     20  C   UNL     1       1.526  10.115  18.211  0.00  0.00    +0.000 A 
ATOM     21  C   UNL     1       1.919   8.770  18.264  0.00  0.00    +0.000 A 
ATOM     22  C   UNL     1       1.759   8.001  19.432  0.00  0.00    +0.000 A 
ATOM     23  C   UNL     1       1.174   8.641  20.538  0.00  0.00    +0.000 A 
ENDBRANCH   1  22
TORSDOF 2
ENDMDL
MODEL 7
REMARK VINA RESULT:      -8.9      1.537      2.637
REMARK  Name = 
REMARK  3 active torsions:
REMARK  status: ('A' for Active; 'I' for Inactive)
REMARK    1  A    between atoms: C_1  and  C_2
REMARK    2  A    between atoms: C_6  and  C_7
REMARK    3  A    between atoms: C_11  and  C_12
REMARK                            x       y       z     vdW  Elec       q    Type
REMARK                         _______ _______ _______ _____ _____    ______ ____
ROOT
ATOM      1  C   UNL     1       6.218   4.835  16.476  0.00  0.00    +0.000 A 
ATOM      2  C   UNL     1       7.311   4.836  17.362  0.00  0.00    +0.000 A 
ATOM      3  C   UNL     1       7.135   5.007  18.740  0.00  0.00    +0.000 A 
ATOM      4  C   UNL     1       5.860   5.211  19.266  0.00  0.00    +0.000 A 
ATOM      5  C   UNL     1       4.757   5.245  18.411  0.00  0.00    +0.000 A 
ATOM      6  C   UNL     1       4.943   5.022  17.036  0.00  0.00    +0.000 A 
ENDROOT
BRANCH   5   7
ATOM      7  C   UNL     1       3.401   5.507  18.986  0.00  0.00    +0.000 C 
ATOM      8  O   UNL     1       2.961   6.650  18.986  0.00  0.00    +0.000 OA
ATOM      9  N   UNL     1       2.673   4.432  19.451  0.00  0.00    +0.000 N 
ATOM     10  C   UNL     1       1.339   4.529  20.066  0.00  0.00    +0.000 C 
ATOM     11  C   UNL     1       1.012   3.024  20.251  0.00  0.00    +0.000 C 
ATOM     12  C   UNL     1       1.596   2.420  18.987  0.00  0.00    +0.000 C 
ATOM     13  C   UNL     1       2.961   3.009  19.278  0.00  0.00    +0.000 C 
ATOM     14  C   UNL     1       3.139   2.472  20.697  0.00  0.00    +0.000 C 
ATOM     15  O   UNL     1       4.172   2.171  21.266  0.00  0.00    +0.000 OA
ATOM     16  O   UNL     1       1.878   2.474  21.269  0.00  0.00    +0.000 OA
ENDBRANCH   5   7
BRANCH   1  22
ATOM     17  C   UNL     1       8.571   5.986  12.198  0.00  0.00    +0.000 C 
ATOM     18  C   UNL     1       7.551   5.159  12.912  0.00  0.00    +0.000 A 
ATOM     19  C   UNL     1       6.818   4.178  12.245  0.00  0.00    +0.000 A 
ATOM     20  C   UNL     1       5.882   3.419  12.939  0.00  0.00    +0.000 A 
ATOM     21  C   UNL     1       5.672   3.637  14.308  0.00  0.00    +0.000 A 
ATOM     22  C   UNL     1       6.399   4.611  15.019  0.00  0.00    +0.000 A 
ATOM     23  C   UNL     1       7.334   5.363  14.289  0.00  0.00    +0.000 A 
ENDBRANCH   1  22
TORSDOF 2
ENDMDL
MODEL 8
REMARK VINA RESULT:      -8.6      2.728      7.088
REMARK  Name = 
REMARK  3 active torsions:
REMARK  status: ('A' for Active; 'I' for Inactive)
REMARK    1  A    between atoms: C_1  and  C_2
REMARK    2  A    between atoms: C_6  and  C_7
REMARK    3  A    between atoms: C_11  and  C_12
REMARK                            x       y       z     vdW  Elec       q    Type
REMARK                         _______ _______ _______ _____ _____    ______ ____
ROOT
ATOM      1  C   UNL     1       2.228   5.731  20.059  0.00  0.00    +0.000 A 
ATOM      2  C   UNL     1       2.069   4.848  21.143  0.00  0.00    +0.000 A 
ATOM      3  C   UNL     1       2.539   3.531  21.088  0.00  0.00    +0.000 A 
ATOM      4  C   UNL     1       3.155   3.051  19.933  0.00  0.00    +0.000 A 
ATOM      5  C   UNL     1       3.303   3.893  18.828  0.00  0.00    +0.000 A 
ATOM      6  C   UNL     1       2.871   5.228  18.915  0.00  0.00    +0.000 A 
ENDROOT
BRANCH   5   7
ATOM      7  C   UNL     1       3.928   3.351  17.582  0.00  0.00    +0.000 C 
ATOM      8  O   UNL     1       3.406   2.399  17.014  0.00  0.00    +0.000 OA
ATOM      9  N   UNL     1       5.050   3.984  17.089  0.00  0.00    +0.000 N 
ATOM     10  C   UNL     1       5.793   3.557  15.892  0.00  0.00    +0.000 C 
ATOM     11  C   UNL     1       6.831   4.704  15.790  0.00  0.00    +0.000 C 
ATOM     12  C   UNL     1       6.005   5.911  16.196  0.00  0.00    +0.000 C 
ATOM     13  C   UNL     1       5.617   5.264  17.509  0.00  0.00    +0.000 C 
ATOM     14  C   UNL     1       7.018   4.923  18.014  0.00  0.00    +0.000 C 
ATOM     15  O   UNL     1       7.413   4.860  19.164  0.00  0.00    +0.000 OA
ATOM     16  O   UNL     1       7.761   4.599  16.891  0.00  0.00    +0.000 OA
ENDBRANCH   5   7
BRANCH   1  22
ATOM     17  C   UNL     1       1.799  10.239  17.902  0.00  0.00    +0.000 C 
ATOM     18  C   UNL     1       1.542   9.358  19.082  0.00  0.00    +0.000 A 
ATOM     19  C   UNL     1       0.857   9.829  20.202  0.00  0.00    +0.000 A 
ATOM     20  C   UNL     1       0.627   8.983  21.281  0.00  0.00    +0.000 A 
ATOM     21  C   UNL     1       1.081   7.656  21.247  0.00  0.00    +0.000 A 
ATOM     22  C   UNL     1       1.768   7.141  20.131  0.00  0.00    +0.000 A 
ATOM     23  C   UNL     1       1.988   8.022  19.059  0.00  0.00    +0.000 A 
ENDBRANCH   1  22
TORSDOF 2
ENDMDL
MODEL 9
REMARK VINA RESULT:      -8.6      3.166      7.165
REMARK  Name = 
REMARK  3 active torsions:
REMARK  status: ('A' for Active; 'I' for Inactive)
REMARK    1  A    between atoms: C_1  and  C_2
REMARK    2  A    between atoms: C_6  and  C_7
REMARK    3  A    between atoms: C_11  and  C_12
REMARK                            x       y       z     vdW  Elec       q    Type
REMARK                         _______ _______ _______ _____ _____    ______ ____
ROOT
ATOM      1  C   UNL     1       2.369   6.211  19.928  0.00  0.00    +0.000 A 
ATOM      2  C   UNL     1       1.660   5.010  20.114  0.00  0.00    +0.000 A 
ATOM      3  C   UNL     1       2.283   3.764  19.973  0.00  0.00    +0.000 A 
ATOM      4  C   UNL     1       3.628   3.687  19.614  0.00  0.00    +0.000 A 
ATOM      5  C   UNL     1       4.353   4.860  19.394  0.00  0.00    +0.000 A 
ATOM      6  C   UNL     1       3.728   6.104  19.587  0.00  0.00    +0.000 A 
ENDROOT
BRANCH   5   7
ATOM      7  C   UNL     1       5.784   4.759  18.969  0.00  0.00    +0.000 C 
ATOM      8  O   UNL     1       6.654   4.619  19.820  0.00  0.00    +0.000 OA
ATOM      9  N   UNL     1       6.064   4.774  17.618  0.00  0.00    +0.000 N 
ATOM     10  C   UNL     1       7.417   4.709  17.044  0.00  0.00    +0.000 C 
ATOM     11  C   UNL     1       7.072   4.639  15.534  0.00  0.00    +0.000 C 
ATOM     12  C   UNL     1       5.838   3.754  15.537  0.00  0.00    +0.000 C 
ATOM     13  C   UNL     1       5.122   4.674  16.504  0.00  0.00    +0.000 C 
ATOM     14  C   UNL     1       5.288   5.983  15.735  0.00  0.00    +0.000 C 
ATOM     15  O   UNL     1       4.545   6.947  15.713  0.00  0.00    +0.000 OA
ATOM     16  O   UNL     1       6.524   5.908  15.114  0.00  0.00    +0.000 OA
ENDBRANCH   5   7
BRANCH   1  22
ATOM     17  C   UNL     1       1.355  10.804  18.184  0.00  0.00    +0.000 C 
ATOM     18  C   UNL     1       1.207   9.789  19.271  0.00  0.00    +0.000 A 
ATOM     19  C   UNL     1       0.451  10.056  20.413  0.00  0.00    +0.000 A 
ATOM     20  C   UNL     1       0.326   9.088  21.404  0.00  0.00    +0.000 A 
ATOM     21  C   UNL     1       0.957   7.844  21.259  0.00  0.00    +0.000 A 
ATOM     22  C   UNL     1       1.721   7.534  20.118  0.00  0.00    +0.000 A 
ATOM     23  C   UNL     1       1.831   8.533  19.137  0.00  0.00    +0.000 A 
ENDBRANCH   1  22
TORSDOF 2
ENDMDL
