MODEL 1
REMARK VINA RESULT:      -9.3      0.000      0.000
REMARK  Name = 
REMARK  3 active torsions:
REMARK  status: ('A' for Active; 'I' for Inactive)
REMARK    1  A    between atoms: C_8  and  C_9
REMARK    2  A    between atoms: N_11  and  C_12
REMARK    3  A    between atoms: C_16  and  C_17
REMARK                            x       y       z     vdW  Elec       q    Type
REMARK                         _______ _______ _______ _____ _____    ______ ____
ROOT
ATOM      1  C   UNL     1       1.939   9.046  18.441  0.00  0.00    +0.000 C 
ATOM      2  O   UNL     1       2.116   9.620  17.373  0.00  0.00    +0.000 OA
ATOM      3  N   UNL     1       1.312   9.571  19.569  0.00  0.00    +0.000 N 
ATOM      4  H   UNL     1       1.430   9.079  20.439  0.00  0.00    +0.000 HD
ENDROOT
BRANCH   1  12
ATOM      5  O   UNL     1       2.221   3.100  22.360  0.00  0.00    +0.000 OA
ATOM      6  C   UNL     1       2.529   3.588  21.272  0.00  0.00    +0.000 C 
ATOM      7  C   UNL     1       2.980   2.728  20.112  0.00  0.00    +0.000 C 
ATOM      8  S   UNL     1       4.306   3.492  19.151  0.00  0.00    +0.000 S 
ATOM      9  C   UNL     1       3.567   5.097  18.937  0.00  0.00    +0.000 A 
ATOM     10  C   UNL     1       3.937   5.867  17.827  0.00  0.00    +0.000 A 
ATOM     11  C   UNL     1       3.403   7.147  17.633  0.00  0.00    +0.000 A 
ATOM     12  C   UNL     1       2.506   7.672  18.567  0.00  0.00    +0.000 A 
ATOM     13  C   UNL     1       2.176   6.922  19.710  0.00  0.00    +0.000 A 
ATOM     14  C   UNL     1       2.685   5.632  19.886  0.00  0.00    +0.000 A 
ATOM     15  N   UNL     1       2.317   4.924  21.044  0.00  0.00    +0.000 N 
ATOM     16  H   UNL     1       1.862   5.414  21.805  0.00  0.00    +0.000 HD
ENDBRANCH   1  12
BRANCH   3  17
ATOM     17  C   UNL     1       0.678  10.840  19.635  0.00  0.00    +0.000 A 
ATOM     18  C   UNL     1       1.386  12.033  19.792  0.00  0.00    +0.000 A 
ATOM     19  C   UNL     1       0.718  13.254  19.916  0.00  0.00    +0.000 A 
ATOM     20  C   UNL     1      -0.673  13.308  19.842  0.00  0.00    +0.000 A 
ATOM     21  C   UNL     1      -1.412  12.144  19.607  0.00  0.00    +0.000 A 
ATOM     22  C   UNL     1      -0.721  10.910  19.522  0.00  0.00    +0.000 A 
BRANCH  21  23
ATOM     23  C   UNL     1      -2.872  12.232  19.452  0.00  0.00    +0.000 A 
ATOM     24  N   UNL     1      -3.762  12.650  20.341  0.00  0.00    +0.000 NA
ATOM     25  C   UNL     1      -5.000  12.488  19.752  0.00  0.00    +0.000 A 
ATOM     26  C   UNL     1      -6.293  12.728  20.247  0.00  0.00    +0.000 A 
ATOM     27  C   UNL     1      -7.395  12.404  19.439  0.00  0.00    +0.000 A 
ATOM     28  C   UNL     1      -7.215  11.870  18.160  0.00  0.00    +0.000 A 
ATOM     29  C   UNL     1      -5.937  11.669  17.633  0.00  0.00    +0.000 A 
ATOM     30  C   UNL     1      -4.863  11.988  18.466  0.00  0.00    +0.000 A 
ATOM     31  N   UNL     1      -3.513  11.918  18.276  0.00  0.00    +0.000 N 
ATOM     32  H   UNL     1      -3.057  11.664  17.416  0.00  0.00    +0.000 HD
ENDBRANCH  21  23
ENDBRANCH   3  17
TORSDOF 3
ENDMDL
MODEL 2
REMARK VINA RESULT:      -9.2      0.433      1.122
REMARK  Name = 
REMARK  3 active torsions:
REMARK  status: ('A' for Active; 'I' for Inactive)
REMARK    1  A    between atoms: C_8  and  C_9
REMARK    2  A    between atoms: N_11  and  C_12
REMARK    3  A    between atoms: C_16  and  C_17
REMARK                            x       y       z     vdW  Elec       q    Type
REMARK                         _______ _______ _______ _____ _____    ______ ____
ROOT
ATOM      1  C   UNL     1       2.098   8.847  18.194  0.00  0.00    +0.000 C 
ATOM      2  O   UNL     1       2.319   9.347  17.097  0.00  0.00    +0.000 OA
ATOM      3  N   UNL     1       1.406   9.439  19.249  0.00  0.00    +0.000 N 
ATOM      4  H   UNL     1       1.488   9.012  20.156  0.00  0.00    +0.000 HD
ENDROOT
BRANCH   1  12
ATOM      5  O   UNL     1       2.028   3.057  22.349  0.00  0.00    +0.000 OA
ATOM      6  C   UNL     1       2.462   3.515  21.291  0.00  0.00    +0.000 C 
ATOM      7  C   UNL     1       3.083   2.630  20.234  0.00  0.00    +0.000 C 
ATOM      8  S   UNL     1       4.503   3.401  19.424  0.00  0.00    +0.000 S 
ATOM      9  C   UNL     1       3.754   4.973  19.052  0.00  0.00    +0.000 A 
ATOM     10  C   UNL     1       4.245   5.715  17.970  0.00  0.00    +0.000 A 
ATOM     11  C   UNL     1       3.706   6.969  17.658  0.00  0.00    +0.000 A 
ATOM     12  C   UNL     1       2.681   7.497  18.446  0.00  0.00    +0.000 A 
ATOM     13  C   UNL     1       2.225   6.778  19.566  0.00  0.00    +0.000 A 
ATOM     14  C   UNL     1       2.742   5.513  19.858  0.00  0.00    +0.000 A 
ATOM     15  N   UNL     1       2.245   4.835  20.985  0.00  0.00    +0.000 N 
ATOM     16  H   UNL     1       1.681   5.337  21.661  0.00  0.00    +0.000 HD
ENDBRANCH   1  12
BRANCH   3  17
ATOM     17  C   UNL     1       0.748  10.695  19.191  0.00  0.00    +0.000 A 
ATOM     18  C   UNL     1       1.436  11.910  19.154  0.00  0.00    +0.000 A 
ATOM     19  C   UNL     1       0.749  13.126  19.162  0.00  0.00    +0.000 A 
ATOM     20  C   UNL     1      -0.645  13.149  19.165  0.00  0.00    +0.000 A 
ATOM     21  C   UNL     1      -1.369  11.954  19.124  0.00  0.00    +0.000 A 
ATOM     22  C   UNL     1      -0.656  10.729  19.154  0.00  0.00    +0.000 A 
BRANCH  21  23
ATOM     23  C   UNL     1      -2.838  11.998  19.047  0.00  0.00    +0.000 A 
ATOM     24  N   UNL     1      -3.631  11.320  18.230  0.00  0.00    +0.000 NA
ATOM     25  C   UNL     1      -4.917  11.747  18.499  0.00  0.00    +0.000 A 
ATOM     26  C   UNL     1      -6.144  11.399  17.911  0.00  0.00    +0.000 A 
ATOM     27  C   UNL     1      -7.309  12.052  18.346  0.00  0.00    +0.000 A 
ATOM     28  C   UNL     1      -7.257  13.015  19.356  0.00  0.00    +0.000 A 
ATOM     29  C   UNL     1      -6.053  13.339  19.986  0.00  0.00    +0.000 A 
ATOM     30  C   UNL     1      -4.912  12.683  19.522  0.00  0.00    +0.000 A 
ATOM     31  N   UNL     1      -3.603  12.756  19.902  0.00  0.00    +0.000 N 
ATOM     32  H   UNL     1      -3.249  13.292  20.677  0.00  0.00    +0.000 HD
ENDBRANCH  21  23
ENDBRANCH   3  17
TORSDOF 3
ENDMDL
MODEL 3
REMARK VINA RESULT:      -8.9      2.222      2.968
REMARK  Name = 
REMARK  3 active torsions:
REMARK  status: ('A' for Active; 'I' for Inactive)
REMARK    1  A    between atoms: C_8  and  C_9
REMARK    2  A    between atoms: N_11  and  C_12
REMARK    3  A    between atoms: C_16  and  C_17
REMARK                            x       y       z     vdW  Elec       q    Type
REMARK                         _______ _______ _______ _____ _____    ______ ____
ROOT
ATOM      1  C   UNL     1       1.973   8.412  18.918  0.00  0.00    +0.000 C 
ATOM      2  O   UNL     1       1.578   8.360  20.077  0.00  0.00    +0.000 OA
ATOM      3  N   UNL     1       1.775   9.461  18.023  0.00  0.00    +0.000 N 
ATOM      4  H   UNL     1       1.957   9.283  17.049  0.00  0.00    +0.000 HD
ENDROOT
BRANCH   1  12
ATOM      5  O   UNL     1       7.706   5.954  15.471  0.00  0.00    +0.000 OA
ATOM      6  C   UNL     1       6.720   5.615  16.127  0.00  0.00    +0.000 C 
ATOM      7  C   UNL     1       6.577   4.217  16.685  0.00  0.00    +0.000 C 
ATOM      8  S   UNL     1       4.880   3.602  16.602  0.00  0.00    +0.000 S 
ATOM      9  C   UNL     1       4.067   5.017  17.313  0.00  0.00    +0.000 A 
ATOM     10  C   UNL     1       2.837   4.834  17.959  0.00  0.00    +0.000 A 
ATOM     11  C   UNL     1       2.148   5.921  18.508  0.00  0.00    +0.000 A 
ATOM     12  C   UNL     1       2.681   7.208  18.395  0.00  0.00    +0.000 A 
ATOM     13  C   UNL     1       3.888   7.400  17.699  0.00  0.00    +0.000 A 
ATOM     14  C   UNL     1       4.591   6.310  17.179  0.00  0.00    +0.000 A 
ATOM     15  N   UNL     1       5.796   6.559  16.498  0.00  0.00    +0.000 N 
ATOM     16  H   UNL     1       6.032   7.507  16.231  0.00  0.00    +0.000 HD
ENDBRANCH   1  12
BRANCH   3  17
ATOM     17  C   UNL     1       1.161  10.701  18.340  0.00  0.00    +0.000 A 
ATOM     18  C   UNL     1       1.887  11.874  18.552  0.00  0.00    +0.000 A 
ATOM     19  C   UNL     1       1.248  13.059  18.925  0.00  0.00    +0.000 A 
ATOM     20  C   UNL     1      -0.140  13.101  19.053  0.00  0.00    +0.000 A 
ATOM     21  C   UNL     1      -0.908  11.967  18.773  0.00  0.00    +0.000 A 
ATOM     22  C   UNL     1      -0.240  10.765  18.433  0.00  0.00    +0.000 A 
BRANCH  21  23
ATOM     23  C   UNL     1      -2.376  12.052  18.836  0.00  0.00    +0.000 A 
ATOM     24  N   UNL     1      -3.131  12.335  19.888  0.00  0.00    +0.000 NA
ATOM     25  C   UNL     1      -4.440  12.234  19.461  0.00  0.00    +0.000 A 
ATOM     26  C   UNL     1      -5.650  12.387  20.158  0.00  0.00    +0.000 A 
ATOM     27  C   UNL     1      -6.855  12.156  19.474  0.00  0.00    +0.000 A 
ATOM     28  C   UNL     1      -6.858  11.800  18.123  0.00  0.00    +0.000 A 
ATOM     29  C   UNL     1      -5.666  11.691  17.402  0.00  0.00    +0.000 A 
ATOM     30  C   UNL     1      -4.486  11.912  18.112  0.00  0.00    +0.000 A 
ATOM     31  N   UNL     1      -3.176  11.889  17.730  0.00  0.00    +0.000 N 
ATOM     32  H   UNL     1      -2.845  11.758  16.788  0.00  0.00    +0.000 HD
ENDBRANCH  21  23
ENDBRANCH   3  17
TORSDOF 3
ENDMDL
MODEL 4
REMARK VINA RESULT:      -8.9      2.229      3.154
REMARK  Name = 
REMARK  3 active torsions:
REMARK  status: ('A' for Active; 'I' for Inactive)
REMARK    1  A    between atoms: C_8  and  C_9
REMARK    2  A    between atoms: N_11  and  C_12
REMARK    3  A    between atoms: C_16  and  C_17
REMARK                            x       y       z     vdW  Elec       q    Type
REMARK                         _______ _______ _______ _____ _____    ______ ____
ROOT
ATOM      1  C   UNL     1       1.937   8.313  18.920  0.00  0.00    +0.000 C 
ATOM      2  O   UNL     1       1.618   8.281  20.103  0.00  0.00    +0.000 OA
ATOM      3  N   UNL     1       1.633   9.322  18.009  0.00  0.00    +0.000 N 
ATOM      4  H   UNL     1       1.762   9.121  17.031  0.00  0.00    +0.000 HD
ENDROOT
BRANCH   1  12
ATOM      5  O   UNL     1       7.716   5.988  15.457  0.00  0.00    +0.000 OA
ATOM      6  C   UNL     1       6.736   5.626  16.110  0.00  0.00    +0.000 C 
ATOM      7  C   UNL     1       6.620   4.221  16.658  0.00  0.00    +0.000 C 
ATOM      8  S   UNL     1       4.934   3.575  16.570  0.00  0.00    +0.000 S 
ATOM      9  C   UNL     1       4.095   4.969  17.292  0.00  0.00    +0.000 A 
ATOM     10  C   UNL     1       2.869   4.759  17.936  0.00  0.00    +0.000 A 
ATOM     11  C   UNL     1       2.159   5.829  18.492  0.00  0.00    +0.000 A 
ATOM     12  C   UNL     1       2.668   7.126  18.389  0.00  0.00    +0.000 A 
ATOM     13  C   UNL     1       3.871   7.346  17.695  0.00  0.00    +0.000 A 
ATOM     14  C   UNL     1       4.594   6.273  17.166  0.00  0.00    +0.000 A 
ATOM     15  N   UNL     1       5.794   6.549  16.488  0.00  0.00    +0.000 N 
ATOM     16  H   UNL     1       6.012   7.503  16.228  0.00  0.00    +0.000 HD
ENDBRANCH   1  12
BRANCH   3  17
ATOM     17  C   UNL     1       0.982  10.542  18.329  0.00  0.00    +0.000 A 
ATOM     18  C   UNL     1       1.674  11.733  18.558  0.00  0.00    +0.000 A 
ATOM     19  C   UNL     1       0.998  12.897  18.933  0.00  0.00    +0.000 A 
ATOM     20  C   UNL     1      -0.392  12.900  19.044  0.00  0.00    +0.000 A 
ATOM     21  C   UNL     1      -1.126  11.748  18.746  0.00  0.00    +0.000 A 
ATOM     22  C   UNL     1      -0.421  10.567  18.405  0.00  0.00    +0.000 A 
BRANCH  21  23
ATOM     23  C   UNL     1      -2.596  11.793  18.791  0.00  0.00    +0.000 A 
ATOM     24  N   UNL     1      -3.454  11.136  18.024  0.00  0.00    +0.000 NA
ATOM     25  C   UNL     1      -4.713  11.554  18.408  0.00  0.00    +0.000 A 
ATOM     26  C   UNL     1      -5.985  11.221  17.913  0.00  0.00    +0.000 A 
ATOM     27  C   UNL     1      -7.109  11.860  18.460  0.00  0.00    +0.000 A 
ATOM     28  C   UNL     1      -6.974  12.795  19.489  0.00  0.00    +0.000 A 
ATOM     29  C   UNL     1      -5.722  13.104  20.027  0.00  0.00    +0.000 A 
ATOM     30  C   UNL     1      -4.623  12.462  19.452  0.00  0.00    +0.000 A 
ATOM     31  N   UNL     1      -3.287  12.527  19.726  0.00  0.00    +0.000 N 
ATOM     32  H   UNL     1      -2.871  13.041  20.484  0.00  0.00    +0.000 HD
ENDBRANCH  21  23
ENDBRANCH   3  17
TORSDOF 3
ENDMDL
MODEL 5
REMARK VINA RESULT:      -8.8      1.780      2.309
REMARK  Name = 
REMARK  3 active torsions:
REMARK  status: ('A' for Active; 'I' for Inactive)
REMARK    1  A    between atoms: C_8  and  C_9
REMARK    2  A    between atoms: N_11  and  C_12
REMARK    3  A    between atoms: C_16  and  C_17
REMARK                            x       y       z     vdW  Elec       q    Type
REMARK                         _______ _______ _______ _____ _____    ______ ____
ROOT
ATOM      1  C   UNL     1       1.958   8.961  18.402  0.00  0.00    +0.000 C 
ATOM      2  O   UNL     1       2.104   9.501  17.311  0.00  0.00    +0.000 OA
ATOM      3  N   UNL     1       1.343   9.514  19.523  0.00  0.00    +0.000 N 
ATOM      4  H   UNL     1       1.487   9.054  20.407  0.00  0.00    +0.000 HD
ENDROOT
BRANCH   1  12
ATOM      5  O   UNL     1       2.157   3.020  22.333  0.00  0.00    +0.000 OA
ATOM      6  C   UNL     1       2.519   3.517  21.265  0.00  0.00    +0.000 C 
ATOM      7  C   UNL     1       3.065   2.672  20.136  0.00  0.00    +0.000 C 
ATOM      8  S   UNL     1       4.427   3.473  19.260  0.00  0.00    +0.000 S 
ATOM      9  C   UNL     1       3.659   5.058  19.000  0.00  0.00    +0.000 A 
ATOM     10  C   UNL     1       4.077   5.839  17.915  0.00  0.00    +0.000 A 
ATOM     11  C   UNL     1       3.522   7.104  17.688  0.00  0.00    +0.000 A 
ATOM     12  C   UNL     1       2.553   7.603  18.563  0.00  0.00    +0.000 A 
ATOM     13  C   UNL     1       2.173   6.843  19.684  0.00  0.00    +0.000 A 
ATOM     14  C   UNL     1       2.705   5.567  19.892  0.00  0.00    +0.000 A 
ATOM     15  N   UNL     1       2.285   4.848  21.024  0.00  0.00    +0.000 N 
ATOM     16  H   UNL     1       1.770   5.324  21.755  0.00  0.00    +0.000 HD
ENDBRANCH   1  12
BRANCH   3  17
ATOM     17  C   UNL     1       0.687  10.772  19.558  0.00  0.00    +0.000 A 
ATOM     18  C   UNL     1       1.048  11.838  18.733  0.00  0.00    +0.000 A 
ATOM     19  C   UNL     1       0.418  13.080  18.844  0.00  0.00    +0.000 A 
ATOM     20  C   UNL     1      -0.619  13.265  19.758  0.00  0.00    +0.000 A 
ATOM     21  C   UNL     1      -1.062  12.199  20.547  0.00  0.00    +0.000 A 
ATOM     22  C   UNL     1      -0.385  10.958  20.448  0.00  0.00    +0.000 A 
BRANCH  21  23
ATOM     23  C   UNL     1      -2.209  12.391  21.448  0.00  0.00    +0.000 A 
ATOM     24  N   UNL     1      -2.234  12.280  22.768  0.00  0.00    +0.000 NA
ATOM     25  C   UNL     1      -3.545  12.493  23.147  0.00  0.00    +0.000 A 
ATOM     26  C   UNL     1      -4.155  12.457  24.413  0.00  0.00    +0.000 A 
ATOM     27  C   UNL     1      -5.543  12.650  24.497  0.00  0.00    +0.000 A 
ATOM     28  C   UNL     1      -6.305  12.895  23.352  0.00  0.00    +0.000 A 
ATOM     29  C   UNL     1      -5.709  12.982  22.091  0.00  0.00    +0.000 A 
ATOM     30  C   UNL     1      -4.330  12.771  22.039  0.00  0.00    +0.000 A 
ATOM     31  N   UNL     1      -3.447  12.784  20.998  0.00  0.00    +0.000 N 
ATOM     32  H   UNL     1      -3.669  13.028  20.047  0.00  0.00    +0.000 HD
ENDBRANCH  21  23
ENDBRANCH   3  17
TORSDOF 3
ENDMDL
MODEL 6
REMARK VINA RESULT:      -8.7      1.697      2.387
REMARK  Name = 
REMARK  3 active torsions:
REMARK  status: ('A' for Active; 'I' for Inactive)
REMARK    1  A    between atoms: C_8  and  C_9
REMARK    2  A    between atoms: N_11  and  C_12
REMARK    3  A    between atoms: C_16  and  C_17
REMARK                            x       y       z     vdW  Elec       q    Type
REMARK                         _______ _______ _______ _____ _____    ______ ____
ROOT
ATOM      1  C   UNL     1       2.046   8.864  18.381  0.00  0.00    +0.000 C 
ATOM      2  O   UNL     1       2.152   9.366  17.268  0.00  0.00    +0.000 OA
ATOM      3  N   UNL     1       1.491   9.463  19.510  0.00  0.00    +0.000 N 
ATOM      4  H   UNL     1       1.667   9.029  20.401  0.00  0.00    +0.000 HD
ENDROOT
BRANCH   1  12
ATOM      5  O   UNL     1       2.103   2.934  22.334  0.00  0.00    +0.000 OA
ATOM      6  C   UNL     1       2.494   3.425  21.274  0.00  0.00    +0.000 C 
ATOM      7  C   UNL     1       3.058   2.571  20.161  0.00  0.00    +0.000 C 
ATOM      8  S   UNL     1       4.447   3.358  19.313  0.00  0.00    +0.000 S 
ATOM      9  C   UNL     1       3.699   4.948  19.031  0.00  0.00    +0.000 A 
ATOM     10  C   UNL     1       4.148   5.722  17.953  0.00  0.00    +0.000 A 
ATOM     11  C   UNL     1       3.609   6.991  17.709  0.00  0.00    +0.000 A 
ATOM     12  C   UNL     1       2.626   7.501  18.560  0.00  0.00    +0.000 A 
ATOM     13  C   UNL     1       2.214   6.748  19.674  0.00  0.00    +0.000 A 
ATOM     14  C   UNL     1       2.730   5.468  19.899  0.00  0.00    +0.000 A 
ATOM     15  N   UNL     1       2.277   4.757  21.023  0.00  0.00    +0.000 N 
ATOM     16  H   UNL     1       1.750   5.239  21.741  0.00  0.00    +0.000 HD
ENDBRANCH   1  12
BRANCH   3  17
ATOM     17  C   UNL     1       0.857  10.733  19.532  0.00  0.00    +0.000 A 
ATOM     18  C   UNL     1       1.332  11.829  18.810  0.00  0.00    +0.000 A 
ATOM     19  C   UNL     1       0.714  13.079  18.910  0.00  0.00    +0.000 A 
ATOM     20  C   UNL     1      -0.418  13.243  19.707  0.00  0.00    +0.000 A 
ATOM     21  C   UNL     1      -0.969  12.151  20.384  0.00  0.00    +0.000 A 
ATOM     22  C   UNL     1      -0.308  10.900  20.300  0.00  0.00    +0.000 A 
BRANCH  21  23
ATOM     23  C   UNL     1      -2.210  12.326  21.154  0.00  0.00    +0.000 A 
ATOM     24  N   UNL     1      -3.416  12.634  20.697  0.00  0.00    +0.000 NA
ATOM     25  C   UNL     1      -4.231  12.744  21.806  0.00  0.00    +0.000 A 
ATOM     26  C   UNL     1      -5.589  13.088  21.919  0.00  0.00    +0.000 A 
ATOM     27  C   UNL     1      -6.153  13.189  23.202  0.00  0.00    +0.000 A 
ATOM     28  C   UNL     1      -5.390  12.936  24.344  0.00  0.00    +0.000 A 
ATOM     29  C   UNL     1      -4.052  12.546  24.249  0.00  0.00    +0.000 A 
ATOM     30  C   UNL     1      -3.517  12.468  22.962  0.00  0.00    +0.000 A 
ATOM     31  N   UNL     1      -2.274  12.127  22.513  0.00  0.00    +0.000 N 
ATOM     32  H   UNL     1      -1.517  11.794  23.087  0.00  0.00    +0.000 HD
ENDBRANCH  21  23
ENDBRANCH   3  17
TORSDOF 3
ENDMDL
MODEL 7
REMARK VINA RESULT:      -8.7      2.199      3.028
REMARK  Name = 
REMARK  3 active torsions:
REMARK  status: ('A' for Active; 'I' for Inactive)
REMARK    1  A    between atoms: C_8  and  C_9
REMARK    2  A    between atoms: N_11  and  C_12
REMARK    3  A    between atoms: C_16  and  C_17
REMARK                            x       y       z     vdW  Elec       q    Type
REMARK                         _______ _______ _______ _____ _____    ______ ____
ROOT
ATOM      1  C   UNL     1       1.964   9.131  18.272  0.00  0.00    +0.000 C 
ATOM      2  O   UNL     1       2.148  10.006  17.434  0.00  0.00    +0.000 OA
ATOM      3  N   UNL     1       1.257   9.265  19.466  0.00  0.00    +0.000 N 
ATOM      4  H   UNL     1       1.370   8.542  20.157  0.00  0.00    +0.000 HD
ENDROOT
BRANCH   1  12
ATOM      5  O   UNL     1       7.540   5.731  15.420  0.00  0.00    +0.000 OA
ATOM      6  C   UNL     1       6.549   5.586  16.137  0.00  0.00    +0.000 C 
ATOM      7  C   UNL     1       6.352   4.349  16.985  0.00  0.00    +0.000 C 
ATOM      8  S   UNL     1       4.628   3.809  17.041  0.00  0.00    +0.000 S 
ATOM      9  C   UNL     1       3.887   5.379  17.432  0.00  0.00    +0.000 A 
ATOM     10  C   UNL     1       2.659   5.395  18.106  0.00  0.00    +0.000 A 
ATOM     11  C   UNL     1       2.025   6.606  18.409  0.00  0.00    +0.000 A 
ATOM     12  C   UNL     1       2.612   7.812  18.020  0.00  0.00    +0.000 A 
ATOM     13  C   UNL     1       3.817   7.795  17.295  0.00  0.00    +0.000 A 
ATOM     14  C   UNL     1       4.465   6.587  17.020  0.00  0.00    +0.000 A 
ATOM     15  N   UNL     1       5.671   6.629  16.299  0.00  0.00    +0.000 N 
ATOM     16  H   UNL     1       5.945   7.485  15.832  0.00  0.00    +0.000 HD
ENDBRANCH   1  12
BRANCH   3  17
ATOM     17  C   UNL     1       0.541  10.424  19.866  0.00  0.00    +0.000 A 
ATOM     18  C   UNL     1       1.108  11.435  20.642  0.00  0.00    +0.000 A 
ATOM     19  C   UNL     1       0.348  12.528  21.067  0.00  0.00    +0.000 A 
ATOM     20  C   UNL     1      -0.987  12.650  20.685  0.00  0.00    +0.000 A 
ATOM     21  C   UNL     1      -1.569  11.697  19.843  0.00  0.00    +0.000 A 
ATOM     22  C   UNL     1      -0.794  10.576  19.454  0.00  0.00    +0.000 A 
BRANCH  21  23
ATOM     23  C   UNL     1      -2.955  11.883  19.386  0.00  0.00    +0.000 A 
ATOM     24  N   UNL     1      -3.497  11.481  18.245  0.00  0.00    +0.000 NA
ATOM     25  C   UNL     1      -4.798  11.943  18.252  0.00  0.00    +0.000 A 
ATOM     26  C   UNL     1      -5.815  11.846  17.288  0.00  0.00    +0.000 A 
ATOM     27  C   UNL     1      -7.043  12.479  17.538  0.00  0.00    +0.000 A 
ATOM     28  C   UNL     1      -7.263  13.177  18.728  0.00  0.00    +0.000 A 
ATOM     29  C   UNL     1      -6.280  13.243  19.719  0.00  0.00    +0.000 A 
ATOM     30  C   UNL     1      -5.066  12.616  19.435  0.00  0.00    +0.000 A 
ATOM     31  N   UNL     1      -3.916  12.488  20.161  0.00  0.00    +0.000 N 
ATOM     32  H   UNL     1      -3.787  12.799  21.109  0.00  0.00    +0.000 HD
ENDBRANCH  21  23
ENDBRANCH   3  17
TORSDOF 3
ENDMDL
MODEL 8
REMARK VINA RESULT:      -8.6      2.196      2.770
REMARK  Name = 
REMARK  3 active torsions:
REMARK  status: ('A' for Active; 'I' for Inactive)
REMARK    1  A    between atoms: C_8  and  C_9
REMARK    2  A    between atoms: N_11  and  C_12
REMARK    3  A    between atoms: C_16  and  C_17
REMARK                            x       y       z     vdW  Elec       q    Type
REMARK                         _______ _______ _______ _____ _____    ______ ____
ROOT
ATOM      1  C   UNL     1       1.940   9.249  18.320  0.00  0.00    +0.000 C 
ATOM      2  O   UNL     1       2.100  10.101  17.455  0.00  0.00    +0.000 OA
ATOM      3  N   UNL     1       1.295   9.424  19.543  0.00  0.00    +0.000 N 
ATOM      4  H   UNL     1       1.427   8.714  20.244  0.00  0.00    +0.000 HD
ENDROOT
BRANCH   1  12
ATOM      5  O   UNL     1       7.422   5.688  15.481  0.00  0.00    +0.000 OA
ATOM      6  C   UNL     1       6.424   5.572  16.194  0.00  0.00    +0.000 C 
ATOM      7  C   UNL     1       6.187   4.339  17.038  0.00  0.00    +0.000 C 
ATOM      8  S   UNL     1       4.447   3.851  17.087  0.00  0.00    +0.000 S 
ATOM      9  C   UNL     1       3.752   5.442  17.479  0.00  0.00    +0.000 A 
ATOM     10  C   UNL     1       2.523   5.494  18.148  0.00  0.00    +0.000 A 
ATOM     11  C   UNL     1       1.924   6.722  18.452  0.00  0.00    +0.000 A 
ATOM     12  C   UNL     1       2.549   7.912  18.068  0.00  0.00    +0.000 A 
ATOM     13  C   UNL     1       3.756   7.859  17.347  0.00  0.00    +0.000 A 
ATOM     14  C   UNL     1       4.368   6.634  17.072  0.00  0.00    +0.000 A 
ATOM     15  N   UNL     1       5.577   6.640  16.355  0.00  0.00    +0.000 N 
ATOM     16  H   UNL     1       5.878   7.489  15.891  0.00  0.00    +0.000 HD
ENDBRANCH   1  12
BRANCH   3  17
ATOM     17  C   UNL     1       0.622  10.606  19.950  0.00  0.00    +0.000 A 
ATOM     18  C   UNL     1       1.249  11.628  20.665  0.00  0.00    +0.000 A 
ATOM     19  C   UNL     1       0.533  12.745  21.101  0.00  0.00    +0.000 A 
ATOM     20  C   UNL     1      -0.820  12.880  20.792  0.00  0.00    +0.000 A 
ATOM     21  C   UNL     1      -1.464  11.916  20.012  0.00  0.00    +0.000 A 
ATOM     22  C   UNL     1      -0.732  10.771  19.610  0.00  0.00    +0.000 A 
BRANCH  21  23
ATOM     23  C   UNL     1      -2.871  12.115  19.629  0.00  0.00    +0.000 A 
ATOM     24  N   UNL     1      -3.850  12.627  20.361  0.00  0.00    +0.000 NA
ATOM     25  C   UNL     1      -4.991  12.547  19.588  0.00  0.00    +0.000 A 
ATOM     26  C   UNL     1      -6.321  12.903  19.871  0.00  0.00    +0.000 A 
ATOM     27  C   UNL     1      -7.307  12.645  18.905  0.00  0.00    +0.000 A 
ATOM     28  C   UNL     1      -6.976  12.064  17.678  0.00  0.00    +0.000 A 
ATOM     29  C   UNL     1      -5.653  11.748  17.361  0.00  0.00    +0.000 A 
ATOM     30  C   UNL     1      -4.698  12.003  18.347  0.00  0.00    +0.000 A 
ATOM     31  N   UNL     1      -3.346  11.821  18.372  0.00  0.00    +0.000 N 
ATOM     32  H   UNL     1      -2.784  11.508  17.598  0.00  0.00    +0.000 HD
ENDBRANCH  21  23
ENDBRANCH   3  17
TORSDOF 3
ENDMDL
MODEL 9
REMARK VINA RESULT:      -8.6      1.012      1.040
REMARK  Name = 
REMARK  3 active torsions:
REMARK  status: ('A' for Active; 'I' for Inactive)
REMARK    1  A    between atoms: C_8  and  C_9
REMARK    2  A    between atoms: N_11  and  C_12
REMARK    3  A    between atoms: C_16  and  C_17
REMARK                            x       y       z     vdW  Elec       q    Type
REMARK                         _______ _______ _______ _____ _____    ______ ____
ROOT
ATOM      1  C   UNL     1       1.449   8.754  19.754  0.00  0.00    +0.000 C 
ATOM      2  O   UNL     1       1.211   8.982  20.934  0.00  0.00    +0.000 OA
ATOM      3  N   UNL     1       1.115   9.564  18.670  0.00  0.00    +0.000 N 
ATOM      4  H   UNL     1       1.171   9.158  17.751  0.00  0.00    +0.000 HD
ENDROOT
BRANCH   1  12
ATOM      5  O   UNL     1       2.799   2.123  21.990  0.00  0.00    +0.000 OA
ATOM      6  C   UNL     1       2.868   2.877  21.018  0.00  0.00    +0.000 C 
ATOM      7  C   UNL     1       3.140   2.358  19.624  0.00  0.00    +0.000 C 
ATOM      8  S   UNL     1       4.217   3.452  18.670  0.00  0.00    +0.000 S 
ATOM      9  C   UNL     1       3.361   4.980  18.984  0.00  0.00    +0.000 A 
ATOM     10  C   UNL     1       3.472   6.019  18.051  0.00  0.00    +0.000 A 
ATOM     11  C   UNL     1       2.840   7.249  18.269  0.00  0.00    +0.000 A 
ATOM     12  C   UNL     1       2.106   7.452  19.441  0.00  0.00    +0.000 A 
ATOM     13  C   UNL     1       2.040   6.429  20.404  0.00  0.00    +0.000 A 
ATOM     14  C   UNL     1       2.645   5.191  20.170  0.00  0.00    +0.000 A 
ATOM     15  N   UNL     1       2.542   4.202  21.164  0.00  0.00    +0.000 N 
ATOM     16  H   UNL     1       2.212   4.454  22.088  0.00  0.00    +0.000 HD
ENDBRANCH   1  12
BRANCH   3  17
ATOM     17  C   UNL     1       0.524  10.851  18.765  0.00  0.00    +0.000 A 
ATOM     18  C   UNL     1       1.255  12.033  18.631  0.00  0.00    +0.000 A 
ATOM     19  C   UNL     1       0.646  13.279  18.794  0.00  0.00    +0.000 A 
ATOM     20  C   UNL     1      -0.721  13.367  19.055  0.00  0.00    +0.000 A 
ATOM     21  C   UNL     1      -1.502  12.209  19.119  0.00  0.00    +0.000 A 
ATOM     22  C   UNL     1      -0.860  10.952  18.988  0.00  0.00    +0.000 A 
BRANCH  21  23
ATOM     23  C   UNL     1      -2.955  12.324  19.315  0.00  0.00    +0.000 A 
ATOM     24  N   UNL     1      -3.601  12.738  20.396  0.00  0.00    +0.000 NA
ATOM     25  C   UNL     1      -4.947  12.610  20.114  0.00  0.00    +0.000 A 
ATOM     26  C   UNL     1      -6.081  12.861  20.904  0.00  0.00    +0.000 A 
ATOM     27  C   UNL     1      -7.349  12.573  20.373  0.00  0.00    +0.000 A 
ATOM     28  C   UNL     1      -7.488  12.065  19.079  0.00  0.00    +0.000 A 
ATOM     29  C   UNL     1      -6.374  11.854  18.262  0.00  0.00    +0.000 A 
ATOM     30  C   UNL     1      -5.128  12.136  18.823  0.00  0.00    +0.000 A 
ATOM     31  N   UNL     1      -3.862  12.048  18.319  0.00  0.00    +0.000 N 
ATOM     32  H   UNL     1      -3.627  11.805  17.371  0.00  0.00    +0.000 HD
ENDBRANCH  21  23
ENDBRANCH   3  17
TORSDOF 3
ENDMDL
