MODEL 1
REMARK VINA RESULT:      -8.4      0.000      0.000
REMARK  Name = 
REMARK  8 active torsions:
REMARK  status: ('A' for Active; 'I' for Inactive)
REMARK    1  A    between atoms: C_1  and  O_2
REMARK    2  A    between atoms: O_2  and  C_3
REMARK    3  A    between atoms: C_7  and  C_8
REMARK    4  A    between atoms: N_10  and  C_11
REMARK    5  A    between atoms: C_11  and  C_12
REMARK    6  A    between atoms: C_19  and  C_20
REMARK    7  A    between atoms: N_22  and  C_23
REMARK    8  A    between atoms: C_23  and  C_24
REMARK                            x       y       z     vdW  Elec       q    Type
REMARK                         _______ _______ _______ _____ _____    ______ ____
ROOT
ATOM      1  C   UNL     1       0.985   9.281  19.473  0.00  0.00    +0.000 A 
ATOM      2  N   UNL     1       1.856   8.599  18.716  0.00  0.00    +0.000 NA
ATOM      3  N   UNL     1       2.213   7.545  19.462  0.00  0.00    +0.000 N 
ATOM      4  C   UNL     1       1.724   7.604  20.742  0.00  0.00    +0.000 A 
ATOM      5  C   UNL     1       0.862   8.688  20.775  0.00  0.00    +0.000 A 
ENDROOT
BRANCH   1  10
ATOM      6  C   UNL     1      -1.517  11.563  17.795  0.00  0.00    +0.000 A 
ATOM      7  C   UNL     1      -0.888  12.800  17.923  0.00  0.00    +0.000 A 
ATOM      8  C   UNL     1       0.359  12.889  18.541  0.00  0.00    +0.000 A 
ATOM      9  C   UNL     1       0.980  11.745  19.042  0.00  0.00    +0.000 A 
ATOM     10  C   UNL     1       0.353  10.494  18.941  0.00  0.00    +0.000 A 
ATOM     11  C   UNL     1      -0.889  10.419  18.296  0.00  0.00    +0.000 A 
BRANCH   6  13
ATOM     12  C   UNL     1      -3.885  11.577  18.000  0.00  0.00    +0.000 C 
ATOM     13  O   UNL     1      -2.732  11.344  17.200  0.00  0.00    +0.000 OA
ENDBRANCH   6  13
ENDBRANCH   1  10
BRANCH   5  14
ATOM     14  C   UNL     1      -0.058   9.081  21.834  0.00  0.00    +0.000 C 
ATOM     15  O   UNL     1      -0.812   8.275  22.373  0.00  0.00    +0.000 OA
ATOM     16  N   UNL     1      -0.083  10.413  22.189  0.00  0.00    +0.000 N 
ATOM     17  H   UNL     1       0.399  11.104  21.625  0.00  0.00    +0.000 HD
BRANCH  16  18
ATOM     18  C   UNL     1      -1.128  10.868  23.092  0.00  0.00    +0.000 C 
BRANCH  18  19
ATOM     19  C   UNL     1      -1.268  12.342  23.012  0.00  0.00    +0.000 A 
ATOM     20  N   UNL     1      -0.312  13.249  23.161  0.00  0.00    +0.000 NA
ATOM     21  N   UNL     1      -0.900  14.417  23.629  0.00  0.00    +0.000 NA
ATOM     22  C   UNL     1      -2.186  14.182  23.664  0.00  0.00    +0.000 A 
ATOM     23  N   UNL     1      -2.459  13.009  23.004  0.00  0.00    +0.000 N 
ATOM     24  C   UNL     1      -3.836  12.597  23.240  0.00  0.00    +0.000 C 
ATOM     25  C   UNL     1      -4.055  13.184  24.636  0.00  0.00    +0.000 C 
ATOM     26  C   UNL     1      -3.291  14.538  24.586  0.00  0.00    +0.000 C 
ENDBRANCH  18  19
ENDBRANCH  16  18
ENDBRANCH   5  14
BRANCH   3  27
ATOM     27  C   UNL     1       3.032   6.493  18.863  0.00  0.00    +0.000 C 
BRANCH  27  28
ATOM     28  C   UNL     1       2.460   5.114  19.109  0.00  0.00    +0.000 A 
ATOM     29  C   UNL     1       2.608   4.479  20.354  0.00  0.00    +0.000 A 
ATOM     30  C   UNL     1       2.095   3.198  20.569  0.00  0.00    +0.000 A 
ATOM     31  C   UNL     1       1.412   2.540  19.550  0.00  0.00    +0.000 A 
ATOM     32  C   UNL     1       1.229   3.170  18.320  0.00  0.00    +0.000 A 
ATOM     33  C   UNL     1       1.745   4.450  18.101  0.00  0.00    +0.000 A 
ENDBRANCH  27  28
ENDBRANCH   3  27
TORSDOF 7
ENDMDL
MODEL 2
REMARK VINA RESULT:      -8.4      1.031      1.386
REMARK  Name = 
REMARK  8 active torsions:
REMARK  status: ('A' for Active; 'I' for Inactive)
REMARK    1  A    between atoms: C_1  and  O_2
REMARK    2  A    between atoms: O_2  and  C_3
REMARK    3  A    between atoms: C_7  and  C_8
REMARK    4  A    between atoms: N_10  and  C_11
REMARK    5  A    between atoms: C_11  and  C_12
REMARK    6  A    between atoms: C_19  and  C_20
REMARK    7  A    between atoms: N_22  and  C_23
REMARK    8  A    between atoms: C_23  and  C_24
REMARK                            x       y       z     vdW  Elec       q    Type
REMARK                         _______ _______ _______ _____ _____    ______ ____
ROOT
ATOM      1  C   UNL     1       0.871   9.337  19.684  0.00  0.00    +0.000 A 
ATOM      2  N   UNL     1       1.751   8.608  18.983  0.00  0.00    +0.000 NA
ATOM      3  N   UNL     1       2.127   7.626  19.812  0.00  0.00    +0.000 N 
ATOM      4  C   UNL     1       1.640   7.783  21.084  0.00  0.00    +0.000 A 
ATOM      5  C   UNL     1       0.760   8.851  21.031  0.00  0.00    +0.000 A 
ENDROOT
BRANCH   1  10
ATOM      6  C   UNL     1      -1.666  11.428  17.819  0.00  0.00    +0.000 A 
ATOM      7  C   UNL     1      -1.064  12.684  17.855  0.00  0.00    +0.000 A 
ATOM      8  C   UNL     1       0.177  12.847  18.471  0.00  0.00    +0.000 A 
ATOM      9  C   UNL     1       0.818  11.759  19.062  0.00  0.00    +0.000 A 
ATOM     10  C   UNL     1       0.218  10.491  19.056  0.00  0.00    +0.000 A 
ATOM     11  C   UNL     1      -1.018  10.339  18.412  0.00  0.00    +0.000 A 
BRANCH   6  13
ATOM     12  C   UNL     1      -2.890  11.055  15.816  0.00  0.00    +0.000 C 
ATOM     13  O   UNL     1      -2.872  11.137  17.237  0.00  0.00    +0.000 OA
ENDBRANCH   6  13
ENDBRANCH   1  10
BRANCH   5  14
ATOM     14  C   UNL     1      -0.164   9.316  22.057  0.00  0.00    +0.000 C 
ATOM     15  O   UNL     1      -0.961   8.559  22.606  0.00  0.00    +0.000 OA
ATOM     16  N   UNL     1      -0.141  10.659  22.369  0.00  0.00    +0.000 N 
ATOM     17  H   UNL     1       0.381  11.311  21.794  0.00  0.00    +0.000 HD
BRANCH  16  18
ATOM     18  C   UNL     1      -1.184  11.186  23.235  0.00  0.00    +0.000 C 
BRANCH  18  19
ATOM     19  C   UNL     1      -2.188  11.927  22.434  0.00  0.00    +0.000 A 
ATOM     20  N   UNL     1      -2.034  12.424  21.214  0.00  0.00    +0.000 NA
ATOM     21  N   UNL     1      -2.887  13.512  21.086  0.00  0.00    +0.000 NA
ATOM     22  C   UNL     1      -3.566  13.570  22.201  0.00  0.00    +0.000 A 
ATOM     23  N   UNL     1      -3.361  12.421  22.927  0.00  0.00    +0.000 N 
ATOM     24  C   UNL     1      -3.899  12.562  24.273  0.00  0.00    +0.000 C 
ATOM     25  C   UNL     1      -3.726  14.070  24.473  0.00  0.00    +0.000 C 
ATOM     26  C   UNL     1      -4.057  14.663  23.074  0.00  0.00    +0.000 C 
ENDBRANCH  18  19
ENDBRANCH  16  18
ENDBRANCH   5  14
BRANCH   3  27
ATOM     27  C   UNL     1       2.961   6.541  19.300  0.00  0.00    +0.000 C 
BRANCH  27  28
ATOM     28  C   UNL     1       2.241   5.211  19.311  0.00  0.00    +0.000 A 
ATOM     29  C   UNL     1       1.949   4.534  18.114  0.00  0.00    +0.000 A 
ATOM     30  C   UNL     1       1.266   3.316  18.130  0.00  0.00    +0.000 A 
ATOM     31  C   UNL     1       0.880   2.748  19.341  0.00  0.00    +0.000 A 
ATOM     32  C   UNL     1       1.191   3.391  20.538  0.00  0.00    +0.000 A 
ATOM     33  C   UNL     1       1.871   4.613  20.524  0.00  0.00    +0.000 A 
ENDBRANCH  27  28
ENDBRANCH   3  27
TORSDOF 7
ENDMDL
MODEL 3
REMARK VINA RESULT:      -8.3      1.119      1.998
REMARK  Name = 
REMARK  8 active torsions:
REMARK  status: ('A' for Active; 'I' for Inactive)
REMARK    1  A    between atoms: C_1  and  O_2
REMARK    2  A    between atoms: O_2  and  C_3
REMARK    3  A    between atoms: C_7  and  C_8
REMARK    4  A    between atoms: N_10  and  C_11
REMARK    5  A    between atoms: C_11  and  C_12
REMARK    6  A    between atoms: C_19  and  C_20
REMARK    7  A    between atoms: N_22  and  C_23
REMARK    8  A    between atoms: C_23  and  C_24
REMARK                            x       y       z     vdW  Elec       q    Type
REMARK                         _______ _______ _______ _____ _____    ______ ____
ROOT
ATOM      1  C   UNL     1       0.985   9.453  19.515  0.00  0.00    +0.000 A 
ATOM      2  N   UNL     1       1.832   8.758  18.742  0.00  0.00    +0.000 NA
ATOM      3  N   UNL     1       2.121   7.656  19.446  0.00  0.00    +0.000 N 
ATOM      4  C   UNL     1       1.615   7.687  20.720  0.00  0.00    +0.000 A 
ATOM      5  C   UNL     1       0.810   8.811  20.788  0.00  0.00    +0.000 A 
ENDROOT
BRANCH   1  10
ATOM      6  C   UNL     1       0.716  13.084  18.503  0.00  0.00    +0.000 A 
ATOM      7  C   UNL     1      -0.611  13.155  18.087  0.00  0.00    +0.000 A 
ATOM      8  C   UNL     1      -1.425  12.024  18.152  0.00  0.00    +0.000 A 
ATOM      9  C   UNL     1      -0.914  10.815  18.624  0.00  0.00    +0.000 A 
ATOM     10  C   UNL     1       0.426  10.719  19.028  0.00  0.00    +0.000 A 
ATOM     11  C   UNL     1       1.224  11.871  18.978  0.00  0.00    +0.000 A 
BRANCH   6  13
ATOM     12  C   UNL     1       2.975  13.790  18.726  0.00  0.00    +0.000 C 
ATOM     13  O   UNL     1       1.610  14.123  18.500  0.00  0.00    +0.000 OA
ENDBRANCH   6  13
ENDBRANCH   1  10
BRANCH   5  14
ATOM     14  C   UNL     1      -0.106   9.207  21.850  0.00  0.00    +0.000 C 
ATOM     15  O   UNL     1      -0.850   8.400  22.402  0.00  0.00    +0.000 OA
ATOM     16  N   UNL     1      -0.138  10.542  22.195  0.00  0.00    +0.000 N 
ATOM     17  H   UNL     1       0.335  11.231  21.622  0.00  0.00    +0.000 HD
BRANCH  16  18
ATOM     18  C   UNL     1      -1.180  10.997  23.101  0.00  0.00    +0.000 C 
BRANCH  18  19
ATOM     19  C   UNL     1      -1.306  12.473  23.036  0.00  0.00    +0.000 A 
ATOM     20  N   UNL     1      -0.339  13.369  23.187  0.00  0.00    +0.000 NA
ATOM     21  N   UNL     1      -0.912  14.537  23.671  0.00  0.00    +0.000 NA
ATOM     22  C   UNL     1      -2.199  14.315  23.715  0.00  0.00    +0.000 A 
ATOM     23  N   UNL     1      -2.490  13.151  23.046  0.00  0.00    +0.000 N 
ATOM     24  C   UNL     1      -3.870  12.751  23.290  0.00  0.00    +0.000 C 
ATOM     25  C   UNL     1      -4.070  13.326  24.694  0.00  0.00    +0.000 C 
ATOM     26  C   UNL     1      -3.293  14.672  24.651  0.00  0.00    +0.000 C 
ENDBRANCH  18  19
ENDBRANCH  16  18
ENDBRANCH   5  14
BRANCH   3  27
ATOM     27  C   UNL     1       2.894   6.589  18.814  0.00  0.00    +0.000 C 
BRANCH  27  28
ATOM     28  C   UNL     1       2.235   5.237  18.970  0.00  0.00    +0.000 A 
ATOM     29  C   UNL     1       2.087   4.370  17.873  0.00  0.00    +0.000 A 
ATOM     30  C   UNL     1       1.461   3.131  18.019  0.00  0.00    +0.000 A 
ATOM     31  C   UNL     1       0.987   2.731  19.266  0.00  0.00    +0.000 A 
ATOM     32  C   UNL     1       1.155   3.566  20.370  0.00  0.00    +0.000 A 
ATOM     33  C   UNL     1       1.779   4.808  20.225  0.00  0.00    +0.000 A 
ENDBRANCH  27  28
ENDBRANCH   3  27
TORSDOF 7
ENDMDL
MODEL 4
REMARK VINA RESULT:      -8.2      3.520      9.851
REMARK  Name = 
REMARK  8 active torsions:
REMARK  status: ('A' for Active; 'I' for Inactive)
REMARK    1  A    between atoms: C_1  and  O_2
REMARK    2  A    between atoms: O_2  and  C_3
REMARK    3  A    between atoms: C_7  and  C_8
REMARK    4  A    between atoms: N_10  and  C_11
REMARK    5  A    between atoms: C_11  and  C_12
REMARK    6  A    between atoms: C_19  and  C_20
REMARK    7  A    between atoms: N_22  and  C_23
REMARK    8  A    between atoms: C_23  and  C_24
REMARK                            x       y       z     vdW  Elec       q    Type
REMARK                         _______ _______ _______ _____ _____    ______ ____
ROOT
ATOM      1  C   UNL     1       2.016   6.287  19.714  0.00  0.00    +0.000 A 
ATOM      2  N   UNL     1       1.314   6.425  20.848  0.00  0.00    +0.000 NA
ATOM      3  N   UNL     1       1.093   7.740  20.962  0.00  0.00    +0.000 N 
ATOM      4  C   UNL     1       1.765   8.480  20.023  0.00  0.00    +0.000 A 
ATOM      5  C   UNL     1       2.329   7.569  19.146  0.00  0.00    +0.000 A 
ENDROOT
BRANCH   1  10
ATOM      6  C   UNL     1       3.953   3.065  19.325  0.00  0.00    +0.000 A 
ATOM      7  C   UNL     1       3.162   2.380  18.406  0.00  0.00    +0.000 A 
ATOM      8  C   UNL     1       2.005   2.973  17.899  0.00  0.00    +0.000 A 
ATOM      9  C   UNL     1       1.630   4.250  18.315  0.00  0.00    +0.000 A 
ATOM     10  C   UNL     1       2.402   4.948  19.255  0.00  0.00    +0.000 A 
ATOM     11  C   UNL     1       3.574   4.347  19.736  0.00  0.00    +0.000 A 
BRANCH   6  13
ATOM     12  C   UNL     1       4.990   1.508  20.790  0.00  0.00    +0.000 C 
ATOM     13  O   UNL     1       5.114   2.598  19.884  0.00  0.00    +0.000 OA
ENDBRANCH   6  13
ENDBRANCH   1  10
BRANCH   5  14
ATOM     14  C   UNL     1       2.986   7.826  17.871  0.00  0.00    +0.000 C 
ATOM     15  O   UNL     1       2.589   8.694  17.098  0.00  0.00    +0.000 OA
ATOM     16  N   UNL     1       4.057   7.025  17.537  0.00  0.00    +0.000 N 
ATOM     17  H   UNL     1       4.268   6.196  18.083  0.00  0.00    +0.000 HD
BRANCH  16  18
ATOM     18  C   UNL     1       4.600   7.121  16.192  0.00  0.00    +0.000 C 
BRANCH  18  19
ATOM     19  C   UNL     1       5.594   6.045  15.963  0.00  0.00    +0.000 A 
ATOM     20  N   UNL     1       5.372   4.842  15.449  0.00  0.00    +0.000 NA
ATOM     21  N   UNL     1       6.329   3.976  15.961  0.00  0.00    +0.000 NA
ATOM     22  C   UNL     1       7.123   4.710  16.694  0.00  0.00    +0.000 A 
ATOM     23  N   UNL     1       6.862   6.040  16.467  0.00  0.00    +0.000 N 
ATOM     24  C   UNL     1       7.552   6.871  17.444  0.00  0.00    +0.000 C 
ATOM     25  C   UNL     1       7.579   5.914  18.637  0.00  0.00    +0.000 C 
ATOM     26  C   UNL     1       7.828   4.525  17.984  0.00  0.00    +0.000 C 
ENDBRANCH  18  19
ENDBRANCH  16  18
ENDBRANCH   5  14
BRANCH   3  27
ATOM     27  C   UNL     1       0.198   8.224  22.011  0.00  0.00    +0.000 C 
BRANCH  27  28
ATOM     28  C   UNL     1      -0.298   9.627  21.738  0.00  0.00    +0.000 A 
ATOM     29  C   UNL     1      -0.606  10.046  20.432  0.00  0.00    +0.000 A 
ATOM     30  C   UNL     1      -1.045  11.348  20.183  0.00  0.00    +0.000 A 
ATOM     31  C   UNL     1      -1.198  12.246  21.236  0.00  0.00    +0.000 A 
ATOM     32  C   UNL     1      -0.927  11.836  22.541  0.00  0.00    +0.000 A 
ATOM     33  C   UNL     1      -0.484  10.534  22.792  0.00  0.00    +0.000 A 
ENDBRANCH  27  28
ENDBRANCH   3  27
TORSDOF 7
ENDMDL
MODEL 5
REMARK VINA RESULT:      -8.1      4.103      9.378
REMARK  Name = 
REMARK  8 active torsions:
REMARK  status: ('A' for Active; 'I' for Inactive)
REMARK    1  A    between atoms: C_1  and  O_2
REMARK    2  A    between atoms: O_2  and  C_3
REMARK    3  A    between atoms: C_7  and  C_8
REMARK    4  A    between atoms: N_10  and  C_11
REMARK    5  A    between atoms: C_11  and  C_12
REMARK    6  A    between atoms: C_19  and  C_20
REMARK    7  A    between atoms: N_22  and  C_23
REMARK    8  A    between atoms: C_23  and  C_24
REMARK                            x       y       z     vdW  Elec       q    Type
REMARK                         _______ _______ _______ _____ _____    ______ ____
ROOT
ATOM      1  C   UNL     1       3.746   6.824  17.886  0.00  0.00    +0.000 A 
ATOM      2  N   UNL     1       3.392   7.942  17.236  0.00  0.00    +0.000 NA
ATOM      3  N   UNL     1       2.431   8.492  17.988  0.00  0.00    +0.000 N 
ATOM      4  C   UNL     1       2.036   7.687  19.026  0.00  0.00    +0.000 A 
ATOM      5  C   UNL     1       2.913   6.616  19.038  0.00  0.00    +0.000 A 
ENDROOT
BRANCH   1  10
ATOM      6  C   UNL     1       6.992   4.905  17.642  0.00  0.00    +0.000 A 
ATOM      7  C   UNL     1       6.893   4.361  16.363  0.00  0.00    +0.000 A 
ATOM      8  C   UNL     1       5.776   4.632  15.573  0.00  0.00    +0.000 A 
ATOM      9  C   UNL     1       4.749   5.441  16.059  0.00  0.00    +0.000 A 
ATOM     10  C   UNL     1       4.821   5.982  17.352  0.00  0.00    +0.000 A 
ATOM     11  C   UNL     1       5.962   5.718  18.124  0.00  0.00    +0.000 A 
BRANCH   6  13
ATOM     12  C   UNL     1       8.139   5.644  19.588  0.00  0.00    +0.000 C 
ATOM     13  O   UNL     1       8.040   4.724  18.507  0.00  0.00    +0.000 OA
ENDBRANCH   6  13
ENDBRANCH   1  10
BRANCH   5  14
ATOM     14  C   UNL     1       3.055   5.572  20.044  0.00  0.00    +0.000 C 
ATOM     15  O   UNL     1       4.155   5.158  20.401  0.00  0.00    +0.000 OA
ATOM     16  N   UNL     1       1.898   5.029  20.562  0.00  0.00    +0.000 N 
ATOM     17  H   UNL     1       1.000   5.237  20.140  0.00  0.00    +0.000 HD
BRANCH  16  18
ATOM     18  C   UNL     1       2.005   3.853  21.410  0.00  0.00    +0.000 C 
BRANCH  18  19
ATOM     19  C   UNL     1       2.706   2.764  20.688  0.00  0.00    +0.000 A 
ATOM     20  N   UNL     1       3.913   2.276  20.946  0.00  0.00    +0.000 NA
ATOM     21  N   UNL     1       4.433   1.776  19.760  0.00  0.00    +0.000 NA
ATOM     22  C   UNL     1       3.489   1.915  18.867  0.00  0.00    +0.000 A 
ATOM     23  N   UNL     1       2.310   2.248  19.488  0.00  0.00    +0.000 N 
ATOM     24  C   UNL     1       1.310   2.651  18.509  0.00  0.00    +0.000 C 
ATOM     25  C   UNL     1       2.219   3.234  17.424  0.00  0.00    +0.000 C 
ATOM     26  C   UNL     1       3.451   2.285  17.432  0.00  0.00    +0.000 C 
ENDBRANCH  18  19
ENDBRANCH  16  18
ENDBRANCH   5  14
BRANCH   3  27
ATOM     27  C   UNL     1       1.937   9.826  17.651  0.00  0.00    +0.000 C 
BRANCH  27  28
ATOM     28  C   UNL     1       0.856  10.293  18.601  0.00  0.00    +0.000 A 
ATOM     29  C   UNL     1       1.179  10.858  19.846  0.00  0.00    +0.000 A 
ATOM     30  C   UNL     1       0.176  11.269  20.727  0.00  0.00    +0.000 A 
ATOM     31  C   UNL     1      -1.163  11.137  20.370  0.00  0.00    +0.000 A 
ATOM     32  C   UNL     1      -1.499  10.608  19.124  0.00  0.00    +0.000 A 
ATOM     33  C   UNL     1      -0.496  10.192  18.243  0.00  0.00    +0.000 A 
ENDBRANCH  27  28
ENDBRANCH   3  27
TORSDOF 7
ENDMDL
MODEL 6
REMARK VINA RESULT:      -8.1      4.085      9.204
REMARK  Name = 
REMARK  8 active torsions:
REMARK  status: ('A' for Active; 'I' for Inactive)
REMARK    1  A    between atoms: C_1  and  O_2
REMARK    2  A    between atoms: O_2  and  C_3
REMARK    3  A    between atoms: C_7  and  C_8
REMARK    4  A    between atoms: N_10  and  C_11
REMARK    5  A    between atoms: C_11  and  C_12
REMARK    6  A    between atoms: C_19  and  C_20
REMARK    7  A    between atoms: N_22  and  C_23
REMARK    8  A    between atoms: C_23  and  C_24
REMARK                            x       y       z     vdW  Elec       q    Type
REMARK                         _______ _______ _______ _____ _____    ______ ____
ROOT
ATOM      1  C   UNL     1       3.881   7.110  17.810  0.00  0.00    +0.000 A 
ATOM      2  N   UNL     1       3.455   8.220  17.190  0.00  0.00    +0.000 NA
ATOM      3  N   UNL     1       2.459   8.685  17.954  0.00  0.00    +0.000 N 
ATOM      4  C   UNL     1       2.116   7.826  18.968  0.00  0.00    +0.000 A 
ATOM      5  C   UNL     1       3.062   6.815  18.953  0.00  0.00    +0.000 A 
ENDROOT
BRANCH   1  10
ATOM      6  C   UNL     1       5.857   4.652  15.728  0.00  0.00    +0.000 A 
ATOM      7  C   UNL     1       7.155   4.901  16.169  0.00  0.00    +0.000 A 
ATOM      8  C   UNL     1       7.386   5.858  17.157  0.00  0.00    +0.000 A 
ATOM      9  C   UNL     1       6.322   6.577  17.703  0.00  0.00    +0.000 A 
ATOM     10  C   UNL     1       5.011   6.355  17.257  0.00  0.00    +0.000 A 
ATOM     11  C   UNL     1       4.794   5.373  16.280  0.00  0.00    +0.000 A 
BRANCH   6  13
ATOM     12  C   UNL     1       6.108   3.873  13.497  0.00  0.00    +0.000 C 
ATOM     13  O   UNL     1       5.500   3.733  14.776  0.00  0.00    +0.000 OA
ENDBRANCH   6  13
ENDBRANCH   1  10
BRANCH   5  14
ATOM     14  C   UNL     1       3.270   5.755  19.931  0.00  0.00    +0.000 C 
ATOM     15  O   UNL     1       4.373   5.246  20.112  0.00  0.00    +0.000 OA
ATOM     16  N   UNL     1       2.167   5.310  20.628  0.00  0.00    +0.000 N 
ATOM     17  H   UNL     1       1.235   5.598  20.352  0.00  0.00    +0.000 HD
BRANCH  16  18
ATOM     18  C   UNL     1       2.305   4.122  21.455  0.00  0.00    +0.000 C 
BRANCH  18  19
ATOM     19  C   UNL     1       2.680   2.957  20.620  0.00  0.00    +0.000 A 
ATOM     20  N   UNL     1       3.819   2.277  20.653  0.00  0.00    +0.000 NA
ATOM     21  N   UNL     1       4.029   1.734  19.392  0.00  0.00    +0.000 NA
ATOM     22  C   UNL     1       2.974   2.045  18.686  0.00  0.00    +0.000 A 
ATOM     23  N   UNL     1       1.996   2.544  19.513  0.00  0.00    +0.000 N 
ATOM     24  C   UNL     1       0.914   3.127  18.732  0.00  0.00    +0.000 C 
ATOM     25  C   UNL     1       1.693   3.589  17.499  0.00  0.00    +0.000 C 
ATOM     26  C   UNL     1       2.737   2.458  17.282  0.00  0.00    +0.000 C 
ENDBRANCH  18  19
ENDBRANCH  16  18
ENDBRANCH   5  14
BRANCH   3  27
ATOM     27  C   UNL     1       1.879   9.992  17.653  0.00  0.00    +0.000 C 
BRANCH  27  28
ATOM     28  C   UNL     1       0.789  10.373  18.629  0.00  0.00    +0.000 A 
ATOM     29  C   UNL     1      -0.568  10.227  18.294  0.00  0.00    +0.000 A 
ATOM     30  C   UNL     1      -1.571  10.599  19.193  0.00  0.00    +0.000 A 
ATOM     31  C   UNL     1      -1.233  11.104  20.445  0.00  0.00    +0.000 A 
ATOM     32  C   UNL     1       0.109  11.224  20.804  0.00  0.00    +0.000 A 
ATOM     33  C   UNL     1       1.114  10.857  19.905  0.00  0.00    +0.000 A 
ENDBRANCH  27  28
ENDBRANCH   3  27
TORSDOF 7
ENDMDL
MODEL 7
REMARK VINA RESULT:      -8.1      0.878      1.277
REMARK  Name = 
REMARK  8 active torsions:
REMARK  status: ('A' for Active; 'I' for Inactive)
REMARK    1  A    between atoms: C_1  and  O_2
REMARK    2  A    between atoms: O_2  and  C_3
REMARK    3  A    between atoms: C_7  and  C_8
REMARK    4  A    between atoms: N_10  and  C_11
REMARK    5  A    between atoms: C_11  and  C_12
REMARK    6  A    between atoms: C_19  and  C_20
REMARK    7  A    between atoms: N_22  and  C_23
REMARK    8  A    between atoms: C_23  and  C_24
REMARK                            x       y       z     vdW  Elec       q    Type
REMARK                         _______ _______ _______ _____ _____    ______ ____
ROOT
ATOM      1  C   UNL     1       0.859   9.360  19.639  0.00  0.00    +0.000 A 
ATOM      2  N   UNL     1       1.728   8.624  18.930  0.00  0.00    +0.000 NA
ATOM      3  N   UNL     1       2.112   7.646  19.758  0.00  0.00    +0.000 N 
ATOM      4  C   UNL     1       1.644   7.812  21.037  0.00  0.00    +0.000 A 
ATOM      5  C   UNL     1       0.767   8.882  20.990  0.00  0.00    +0.000 A 
ENDROOT
BRANCH   1  10
ATOM      6  C   UNL     1      -1.630  11.423  17.683  0.00  0.00    +0.000 A 
ATOM      7  C   UNL     1      -1.091  12.701  17.815  0.00  0.00    +0.000 A 
ATOM      8  C   UNL     1       0.094  12.889  18.528  0.00  0.00    +0.000 A 
ATOM      9  C   UNL     1       0.740  11.803  19.118  0.00  0.00    +0.000 A 
ATOM     10  C   UNL     1       0.201  10.512  19.014  0.00  0.00    +0.000 A 
ATOM     11  C   UNL     1      -0.977  10.337  18.274  0.00  0.00    +0.000 A 
BRANCH   6  13
ATOM     12  C   UNL     1      -4.000  11.566  17.565  0.00  0.00    +0.000 C 
ATOM     13  O   UNL     1      -2.777  11.108  17.001  0.00  0.00    +0.000 OA
ENDBRANCH   6  13
ENDBRANCH   1  10
BRANCH   5  14
ATOM     14  C   UNL     1      -0.140   9.356  22.027  0.00  0.00    +0.000 C 
ATOM     15  O   UNL     1      -0.893   8.594  22.629  0.00  0.00    +0.000 OA
ATOM     16  N   UNL     1      -0.155  10.710  22.287  0.00  0.00    +0.000 N 
ATOM     17  H   UNL     1       0.326  11.356  21.670  0.00  0.00    +0.000 HD
BRANCH  16  18
ATOM     18  C   UNL     1      -1.189  11.234  23.164  0.00  0.00    +0.000 C 
BRANCH  18  19
ATOM     19  C   UNL     1      -1.365  12.689  22.936  0.00  0.00    +0.000 A 
ATOM     20  N   UNL     1      -1.031  13.677  23.757  0.00  0.00    +0.000 NA
ATOM     21  N   UNL     1      -1.876  14.748  23.500  0.00  0.00    +0.000 NA
ATOM     22  C   UNL     1      -2.622  14.384  22.491  0.00  0.00    +0.000 A 
ATOM     23  N   UNL     1      -2.119  13.231  21.937  0.00  0.00    +0.000 N 
ATOM     24  C   UNL     1      -3.061  12.670  20.978  0.00  0.00    +0.000 C 
ATOM     25  C   UNL     1      -4.380  13.146  21.591  0.00  0.00    +0.000 C 
ATOM     26  C   UNL     1      -4.045  14.569  22.118  0.00  0.00    +0.000 C 
ENDBRANCH  18  19
ENDBRANCH  16  18
ENDBRANCH   5  14
BRANCH   3  27
ATOM     27  C   UNL     1       2.936   6.556  19.240  0.00  0.00    +0.000 C 
BRANCH  27  28
ATOM     28  C   UNL     1       2.221   5.224  19.293  0.00  0.00    +0.000 A 
ATOM     29  C   UNL     1       1.916   4.517  18.117  0.00  0.00    +0.000 A 
ATOM     30  C   UNL     1       1.239   3.297  18.171  0.00  0.00    +0.000 A 
ATOM     31  C   UNL     1       0.872   2.757  19.401  0.00  0.00    +0.000 A 
ATOM     32  C   UNL     1       1.195   3.430  20.578  0.00  0.00    +0.000 A 
ATOM     33  C   UNL     1       1.870   4.653  20.526  0.00  0.00    +0.000 A 
ENDBRANCH  27  28
ENDBRANCH   3  27
TORSDOF 7
ENDMDL
MODEL 8
REMARK VINA RESULT:      -8.0      1.278      1.833
REMARK  Name = 
REMARK  8 active torsions:
REMARK  status: ('A' for Active; 'I' for Inactive)
REMARK    1  A    between atoms: C_1  and  O_2
REMARK    2  A    between atoms: O_2  and  C_3
REMARK    3  A    between atoms: C_7  and  C_8
REMARK    4  A    between atoms: N_10  and  C_11
REMARK    5  A    between atoms: C_11  and  C_12
REMARK    6  A    between atoms: C_19  and  C_20
REMARK    7  A    between atoms: N_22  and  C_23
REMARK    8  A    between atoms: C_23  and  C_24
REMARK                            x       y       z     vdW  Elec       q    Type
REMARK                         _______ _______ _______ _____ _____    ______ ____
ROOT
ATOM      1  C   UNL     1       0.912   9.461  19.701  0.00  0.00    +0.000 A 
ATOM      2  N   UNL     1       1.808   8.750  19.001  0.00  0.00    +0.000 NA
ATOM      3  N   UNL     1       2.134   7.722  19.795  0.00  0.00    +0.000 N 
ATOM      4  C   UNL     1       1.599   7.828  21.054  0.00  0.00    +0.000 A 
ATOM      5  C   UNL     1       0.740   8.914  21.018  0.00  0.00    +0.000 A 
ENDROOT
BRANCH   1  10
ATOM      6  C   UNL     1       0.429  13.030  18.556  0.00  0.00    +0.000 A 
ATOM      7  C   UNL     1      -0.828  12.958  17.958  0.00  0.00    +0.000 A 
ATOM      8  C   UNL     1      -1.526  11.750  17.942  0.00  0.00    +0.000 A 
ATOM      9  C   UNL     1      -0.968  10.607  18.516  0.00  0.00    +0.000 A 
ATOM     10  C   UNL     1       0.305  10.655  19.104  0.00  0.00    +0.000 A 
ATOM     11  C   UNL     1       0.982  11.882  19.132  0.00  0.00    +0.000 A 
BRANCH   6  13
ATOM     12  C   UNL     1       0.543  15.359  19.016  0.00  0.00    +0.000 C 
ATOM     13  O   UNL     1       1.206  14.155  18.647  0.00  0.00    +0.000 OA
ENDBRANCH   6  13
ENDBRANCH   1  10
BRANCH   5  14
ATOM     14  C   UNL     1      -0.215   9.347  22.029  0.00  0.00    +0.000 C 
ATOM     15  O   UNL     1      -0.920   8.548  22.642  0.00  0.00    +0.000 OA
ATOM     16  N   UNL     1      -0.333  10.702  22.250  0.00  0.00    +0.000 N 
ATOM     17  H   UNL     1       0.109  11.365  21.623  0.00  0.00    +0.000 HD
BRANCH  16  18
ATOM     18  C   UNL     1      -1.416  11.173  23.099  0.00  0.00    +0.000 C 
BRANCH  18  19
ATOM     19  C   UNL     1      -2.115  12.310  22.454  0.00  0.00    +0.000 A 
ATOM     20  N   UNL     1      -1.710  13.010  21.402  0.00  0.00    +0.000 NA
ATOM     21  N   UNL     1      -2.256  14.283  21.501  0.00  0.00    +0.000 NA
ATOM     22  C   UNL     1      -3.022  14.264  22.560  0.00  0.00    +0.000 A 
ATOM     23  N   UNL     1      -3.182  12.970  22.992  0.00  0.00    +0.000 N 
ATOM     24  C   UNL     1      -3.818  12.942  24.302  0.00  0.00    +0.000 C 
ATOM     25  C   UNL     1      -3.310  14.267  24.873  0.00  0.00    +0.000 C 
ATOM     26  C   UNL     1      -3.329  15.224  23.648  0.00  0.00    +0.000 C 
ENDBRANCH  18  19
ENDBRANCH  16  18
ENDBRANCH   5  14
BRANCH   3  27
ATOM     27  C   UNL     1       2.970   6.648  19.264  0.00  0.00    +0.000 C 
BRANCH  27  28
ATOM     28  C   UNL     1       2.243   5.321  19.230  0.00  0.00    +0.000 A 
ATOM     29  C   UNL     1       1.761   4.728  20.409  0.00  0.00    +0.000 A 
ATOM     30  C   UNL     1       1.107   3.494  20.373  0.00  0.00    +0.000 A 
ATOM     31  C   UNL     1       0.910   2.844  19.158  0.00  0.00    +0.000 A 
ATOM     32  C   UNL     1       1.354   3.435  17.976  0.00  0.00    +0.000 A 
ATOM     33  C   UNL     1       2.012   4.668  18.010  0.00  0.00    +0.000 A 
ENDBRANCH  27  28
ENDBRANCH   3  27
TORSDOF 7
ENDMDL
MODEL 9
REMARK VINA RESULT:      -8.0      1.535      2.469
REMARK  Name = 
REMARK  8 active torsions:
REMARK  status: ('A' for Active; 'I' for Inactive)
REMARK    1  A    between atoms: C_1  and  O_2
REMARK    2  A    between atoms: O_2  and  C_3
REMARK    3  A    between atoms: C_7  and  C_8
REMARK    4  A    between atoms: N_10  and  C_11
REMARK    5  A    between atoms: C_11  and  C_12
REMARK    6  A    between atoms: C_19  and  C_20
REMARK    7  A    between atoms: N_22  and  C_23
REMARK    8  A    between atoms: C_23  and  C_24
REMARK                            x       y       z     vdW  Elec       q    Type
REMARK                         _______ _______ _______ _____ _____    ______ ____
ROOT
ATOM      1  C   UNL     1       0.900   9.517  19.695  0.00  0.00    +0.000 A 
ATOM      2  N   UNL     1       1.772   8.788  18.984  0.00  0.00    +0.000 NA
ATOM      3  N   UNL     1       2.065   7.739  19.763  0.00  0.00    +0.000 N 
ATOM      4  C   UNL     1       1.533   7.843  21.024  0.00  0.00    +0.000 A 
ATOM      5  C   UNL     1       0.710   8.956  21.004  0.00  0.00    +0.000 A 
ENDROOT
BRANCH   1  10
ATOM      6  C   UNL     1       0.557  13.102  18.549  0.00  0.00    +0.000 A 
ATOM      7  C   UNL     1      -0.726  13.093  18.004  0.00  0.00    +0.000 A 
ATOM      8  C   UNL     1      -1.486  11.924  18.025  0.00  0.00    +0.000 A 
ATOM      9  C   UNL     1      -0.966  10.756  18.583  0.00  0.00    +0.000 A 
ATOM     10  C   UNL     1       0.331  10.739  19.117  0.00  0.00    +0.000 A 
ATOM     11  C   UNL     1       1.073  11.929  19.109  0.00  0.00    +0.000 A 
BRANCH   6  13
ATOM     12  C   UNL     1       2.670  13.976  19.195  0.00  0.00    +0.000 C 
ATOM     13  O   UNL     1       1.395  14.185  18.600  0.00  0.00    +0.000 OA
ENDBRANCH   6  13
ENDBRANCH   1  10
BRANCH   5  14
ATOM     14  C   UNL     1      -0.232   9.404  22.021  0.00  0.00    +0.000 C 
ATOM     15  O   UNL     1      -0.898   8.613  22.684  0.00  0.00    +0.000 OA
ATOM     16  N   UNL     1      -0.382  10.764  22.191  0.00  0.00    +0.000 N 
ATOM     17  H   UNL     1       0.026  11.412  21.526  0.00  0.00    +0.000 HD
BRANCH  16  18
ATOM     18  C   UNL     1      -1.456  11.240  23.048  0.00  0.00    +0.000 C 
BRANCH  18  19
ATOM     19  C   UNL     1      -2.162  12.372  22.404  0.00  0.00    +0.000 A 
ATOM     20  N   UNL     1      -3.030  12.313  21.402  0.00  0.00    +0.000 NA
ATOM     21  N   UNL     1      -2.970  13.516  20.713  0.00  0.00    +0.000 NA
ATOM     22  C   UNL     1      -2.129  14.268  21.374  0.00  0.00    +0.000 A 
ATOM     23  N   UNL     1      -1.847  13.688  22.587  0.00  0.00    +0.000 N 
ATOM     24  C   UNL     1      -0.733  14.368  23.234  0.00  0.00    +0.000 C 
ATOM     25  C   UNL     1       0.041  14.842  22.002  0.00  0.00    +0.000 C 
ATOM     26  C   UNL     1      -1.078  15.244  21.000  0.00  0.00    +0.000 C 
ENDBRANCH  18  19
ENDBRANCH  16  18
ENDBRANCH   5  14
BRANCH   3  27
ATOM     27  C   UNL     1       2.866   6.646  19.216  0.00  0.00    +0.000 C 
BRANCH  27  28
ATOM     28  C   UNL     1       2.159   5.312  19.317  0.00  0.00    +0.000 A 
ATOM     29  C   UNL     1       1.789   4.780  20.564  0.00  0.00    +0.000 A 
ATOM     30  C   UNL     1       1.153   3.540  20.652  0.00  0.00    +0.000 A 
ATOM     31  C   UNL     1       0.863   2.821  19.496  0.00  0.00    +0.000 A 
ATOM     32  C   UNL     1       1.195   3.350  18.250  0.00  0.00    +0.000 A 
ATOM     33  C   UNL     1       1.834   4.590  18.159  0.00  0.00    +0.000 A 
ENDBRANCH  27  28
ENDBRANCH   3  27
TORSDOF 7
ENDMDL
