MODEL 1
REMARK VINA RESULT:      -8.5      0.000      0.000
REMARK  Name = 
REMARK  4 active torsions:
REMARK  status: ('A' for Active; 'I' for Inactive)
REMARK    1  A    between atoms: C_2  and  C_15
REMARK    2  A    between atoms: N_3  and  C_4
REMARK    3  A    between atoms: C_8  and  C_9
REMARK    4  A    between atoms: C_17  and  C_18
REMARK                            x       y       z     vdW  Elec       q    Type
REMARK                         _______ _______ _______ _____ _____    ______ ____
ROOT
ATOM      1  O   UNL     1       2.129   7.783  19.083  0.00  0.00    +0.000 OA
ATOM      2  C   UNL     1       1.783   7.545  20.241  0.00  0.00    +0.000 C 
ATOM      3  N   UNL     1       1.916   6.306  20.853  0.00  0.00    +0.000 N 
ATOM      4  H   UNL     1       1.419   6.162  21.727  0.00  0.00    +0.000 HD
ENDROOT
BRANCH   3   5
ATOM      5  C   UNL     1       2.560   5.186  20.267  0.00  0.00    +0.000 A 
ATOM      6  C   UNL     1       1.988   3.908  20.297  0.00  0.00    +0.000 A 
ATOM      7  C   UNL     1       2.661   2.802  19.792  0.00  0.00    +0.000 A 
ATOM      8  C   UNL     1       3.908   2.962  19.208  0.00  0.00    +0.000 A 
ATOM      9  C   UNL     1       4.482   4.237  19.093  0.00  0.00    +0.000 A 
ATOM     10  C   UNL     1       3.802   5.349  19.632  0.00  0.00    +0.000 A 
BRANCH   9  11
ATOM     11  C   UNL     1       5.777   4.389  18.433  0.00  0.00    +0.000 A 
ATOM     12  N   UNL     1       6.946   4.665  18.979  0.00  0.00    +0.000 NA
ATOM     13  N   UNL     1       7.902   4.670  17.985  0.00  0.00    +0.000 NA
ATOM     14  C   UNL     1       7.295   4.426  16.849  0.00  0.00    +0.000 A 
ATOM     15  N   UNL     1       5.967   4.264  17.077  0.00  0.00    +0.000 N 
ATOM     16  H   UNL     1       5.251   4.089  16.388  0.00  0.00    +0.000 HD
ENDBRANCH   9  11
ENDBRANCH   3   5
BRANCH   2  17
ATOM     17  C   UNL     1       1.162   8.594  21.012  0.00  0.00    +0.000 A 
ATOM     18  C   UNL     1       0.158   9.457  20.645  0.00  0.00    +0.000 A 
ATOM     19  C   UNL     1      -0.037  10.303  21.757  0.00  0.00    +0.000 A 
ATOM     20  N   UNL     1       0.800   9.954  22.752  0.00  0.00    +0.000 NA
ATOM     21  O   UNL     1       1.553   8.888  22.278  0.00  0.00    +0.000 OA
BRANCH  19  22
ATOM     22  C   UNL     1      -0.996  11.405  21.869  0.00  0.00    +0.000 A 
ATOM     23  C   UNL     1      -1.404  12.113  20.732  0.00  0.00    +0.000 A 
ATOM     24  C   UNL     1      -2.303  13.178  20.842  0.00  0.00    +0.000 A 
ATOM     25  C   UNL     1      -2.808  13.543  22.089  0.00  0.00    +0.000 A 
ATOM     26  C   UNL     1      -2.413  12.848  23.228  0.00  0.00    +0.000 A 
ATOM     27  C   UNL     1      -1.510  11.786  23.120  0.00  0.00    +0.000 A 
ENDBRANCH  19  22
ENDBRANCH   2  17
TORSDOF 4
ENDMDL
MODEL 2
REMARK VINA RESULT:      -8.4      2.713      3.880
REMARK  Name = 
REMARK  4 active torsions:
REMARK  status: ('A' for Active; 'I' for Inactive)
REMARK    1  A    between atoms: C_2  and  C_15
REMARK    2  A    between atoms: N_3  and  C_4
REMARK    3  A    between atoms: C_8  and  C_9
REMARK    4  A    between atoms: C_17  and  C_18
REMARK                            x       y       z     vdW  Elec       q    Type
REMARK                         _______ _______ _______ _____ _____    ______ ____
ROOT
ATOM      1  O   UNL     1       2.722   5.638  17.948  0.00  0.00    +0.000 OA
ATOM      2  C   UNL     1       3.196   6.754  18.162  0.00  0.00    +0.000 C 
ATOM      3  N   UNL     1       4.547   7.057  18.062  0.00  0.00    +0.000 N 
ATOM      4  H   UNL     1       4.857   7.941  18.454  0.00  0.00    +0.000 HD
ENDROOT
BRANCH   3   5
ATOM      5  C   UNL     1       5.541   6.154  17.601  0.00  0.00    +0.000 A 
ATOM      6  C   UNL     1       6.444   5.542  18.479  0.00  0.00    +0.000 A 
ATOM      7  C   UNL     1       7.464   4.722  18.012  0.00  0.00    +0.000 A 
ATOM      8  C   UNL     1       7.575   4.468  16.653  0.00  0.00    +0.000 A 
ATOM      9  C   UNL     1       6.645   5.004  15.750  0.00  0.00    +0.000 A 
ATOM     10  C   UNL     1       5.629   5.855  16.233  0.00  0.00    +0.000 A 
BRANCH   9  11
ATOM     11  C   UNL     1       6.754   4.685  14.328  0.00  0.00    +0.000 A 
ATOM     12  N   UNL     1       6.111   3.757  13.646  0.00  0.00    +0.000 NA
ATOM     13  N   UNL     1       6.494   3.842  12.323  0.00  0.00    +0.000 NA
ATOM     14  C   UNL     1       7.384   4.801  12.229  0.00  0.00    +0.000 A 
ATOM     15  N   UNL     1       7.592   5.341  13.457  0.00  0.00    +0.000 N 
ATOM     16  H   UNL     1       8.239   6.078  13.692  0.00  0.00    +0.000 HD
ENDBRANCH   9  11
ENDBRANCH   3   5
BRANCH   2  17
ATOM     17  C   UNL     1       2.316   7.815  18.583  0.00  0.00    +0.000 A 
ATOM     18  C   UNL     1       1.836   8.094  19.840  0.00  0.00    +0.000 A 
ATOM     19  C   UNL     1       0.986   9.209  19.681  0.00  0.00    +0.000 A 
ATOM     20  N   UNL     1       0.969   9.593  18.391  0.00  0.00    +0.000 NA
ATOM     21  O   UNL     1       1.797   8.714  17.706  0.00  0.00    +0.000 OA
BRANCH  19  22
ATOM     22  C   UNL     1       0.221   9.889  20.728  0.00  0.00    +0.000 A 
ATOM     23  C   UNL     1      -0.470  11.075  20.450  0.00  0.00    +0.000 A 
ATOM     24  C   UNL     1      -1.184  11.735  21.456  0.00  0.00    +0.000 A 
ATOM     25  C   UNL     1      -1.218  11.215  22.748  0.00  0.00    +0.000 A 
ATOM     26  C   UNL     1      -0.537  10.036  23.040  0.00  0.00    +0.000 A 
ATOM     27  C   UNL     1       0.180   9.377  22.037  0.00  0.00    +0.000 A 
ENDBRANCH  19  22
ENDBRANCH   2  17
TORSDOF 4
ENDMDL
MODEL 3
REMARK VINA RESULT:      -8.3      0.425      1.222
REMARK  Name = 
REMARK  4 active torsions:
REMARK  status: ('A' for Active; 'I' for Inactive)
REMARK    1  A    between atoms: C_2  and  C_15
REMARK    2  A    between atoms: N_3  and  C_4
REMARK    3  A    between atoms: C_8  and  C_9
REMARK    4  A    between atoms: C_17  and  C_18
REMARK                            x       y       z     vdW  Elec       q    Type
REMARK                         _______ _______ _______ _____ _____    ______ ____
ROOT
ATOM      1  O   UNL     1       2.259   7.771  19.263  0.00  0.00    +0.000 OA
ATOM      2  C   UNL     1       1.793   7.505  20.372  0.00  0.00    +0.000 C 
ATOM      3  N   UNL     1       1.807   6.237  20.936  0.00  0.00    +0.000 N 
ATOM      4  H   UNL     1       1.222   6.084  21.753  0.00  0.00    +0.000 HD
ENDROOT
BRANCH   3   5
ATOM      5  C   UNL     1       2.446   5.108  20.360  0.00  0.00    +0.000 A 
ATOM      6  C   UNL     1       1.933   3.814  20.511  0.00  0.00    +0.000 A 
ATOM      7  C   UNL     1       2.607   2.706  20.012  0.00  0.00    +0.000 A 
ATOM      8  C   UNL     1       3.793   2.877  19.316  0.00  0.00    +0.000 A 
ATOM      9  C   UNL     1       4.302   4.164  19.081  0.00  0.00    +0.000 A 
ATOM     10  C   UNL     1       3.622   5.279  19.614  0.00  0.00    +0.000 A 
BRANCH   9  11
ATOM     11  C   UNL     1       5.530   4.324  18.306  0.00  0.00    +0.000 A 
ATOM     12  N   UNL     1       5.686   4.258  16.997  0.00  0.00    +0.000 NA
ATOM     13  N   UNL     1       7.008   4.514  16.702  0.00  0.00    +0.000 NA
ATOM     14  C   UNL     1       7.640   4.703  17.835  0.00  0.00    +0.000 A 
ATOM     15  N   UNL     1       6.762   4.574  18.863  0.00  0.00    +0.000 N 
ATOM     16  H   UNL     1       6.969   4.644  19.848  0.00  0.00    +0.000 HD
ENDBRANCH   9  11
ENDBRANCH   3   5
BRANCH   2  17
ATOM     17  C   UNL     1       1.156   8.553  21.129  0.00  0.00    +0.000 A 
ATOM     18  C   UNL     1       0.095   9.352  20.777  0.00  0.00    +0.000 A 
ATOM     19  C   UNL     1      -0.092  10.232  21.864  0.00  0.00    +0.000 A 
ATOM     20  N   UNL     1       0.804   9.964  22.831  0.00  0.00    +0.000 NA
ATOM     21  O   UNL     1       1.588   8.917  22.364  0.00  0.00    +0.000 OA
BRANCH  19  22
ATOM     22  C   UNL     1      -1.098  11.290  21.977  0.00  0.00    +0.000 A 
ATOM     23  C   UNL     1      -1.773  11.507  23.185  0.00  0.00    +0.000 A 
ATOM     24  C   UNL     1      -2.748  12.503  23.287  0.00  0.00    +0.000 A 
ATOM     25  C   UNL     1      -3.056  13.298  22.184  0.00  0.00    +0.000 A 
ATOM     26  C   UNL     1      -2.394  13.095  20.977  0.00  0.00    +0.000 A 
ATOM     27  C   UNL     1      -1.421  12.096  20.872  0.00  0.00    +0.000 A 
ENDBRANCH  19  22
ENDBRANCH   2  17
TORSDOF 4
ENDMDL
MODEL 4
REMARK VINA RESULT:      -8.3      2.580      3.840
REMARK  Name = 
REMARK  4 active torsions:
REMARK  status: ('A' for Active; 'I' for Inactive)
REMARK    1  A    between atoms: C_2  and  C_15
REMARK    2  A    between atoms: N_3  and  C_4
REMARK    3  A    between atoms: C_8  and  C_9
REMARK    4  A    between atoms: C_17  and  C_18
REMARK                            x       y       z     vdW  Elec       q    Type
REMARK                         _______ _______ _______ _____ _____    ______ ____
ROOT
ATOM      1  O   UNL     1       3.155   5.601  19.279  0.00  0.00    +0.000 OA
ATOM      2  C   UNL     1       3.311   6.706  18.756  0.00  0.00    +0.000 C 
ATOM      3  N   UNL     1       4.382   7.033  17.937  0.00  0.00    +0.000 N 
ATOM      4  H   UNL     1       4.524   8.016  17.726  0.00  0.00    +0.000 HD
ENDROOT
BRANCH   3   5
ATOM      5  C   UNL     1       5.378   6.115  17.511  0.00  0.00    +0.000 A 
ATOM      6  C   UNL     1       6.242   5.492  18.419  0.00  0.00    +0.000 A 
ATOM      7  C   UNL     1       7.265   4.657  17.987  0.00  0.00    +0.000 A 
ATOM      8  C   UNL     1       7.419   4.399  16.634  0.00  0.00    +0.000 A 
ATOM      9  C   UNL     1       6.527   4.946  15.699  0.00  0.00    +0.000 A 
ATOM     10  C   UNL     1       5.508   5.812  16.146  0.00  0.00    +0.000 A 
BRANCH   9  11
ATOM     11  C   UNL     1       6.679   4.624  14.282  0.00  0.00    +0.000 A 
ATOM     12  N   UNL     1       7.379   5.268  13.367  0.00  0.00    +0.000 NA
ATOM     13  N   UNL     1       7.272   4.585  12.174  0.00  0.00    +0.000 NA
ATOM     14  C   UNL     1       6.487   3.554  12.375  0.00  0.00    +0.000 A 
ATOM     15  N   UNL     1       6.078   3.550  13.670  0.00  0.00    +0.000 N 
ATOM     16  H   UNL     1       5.449   2.891  14.104  0.00  0.00    +0.000 HD
ENDBRANCH   9  11
ENDBRANCH   3   5
BRANCH   2  17
ATOM     17  C   UNL     1       2.353   7.747  19.032  0.00  0.00    +0.000 A 
ATOM     18  C   UNL     1       1.854   8.164  20.243  0.00  0.00    +0.000 A 
ATOM     19  C   UNL     1       0.923   9.180  19.937  0.00  0.00    +0.000 A 
ATOM     20  N   UNL     1       0.877   9.376  18.606  0.00  0.00    +0.000 NA
ATOM     21  O   UNL     1       1.769   8.472  18.044  0.00  0.00    +0.000 OA
BRANCH  19  22
ATOM     22  C   UNL     1       0.109   9.943  20.886  0.00  0.00    +0.000 A 
ATOM     23  C   UNL     1      -0.051   9.502  22.205  0.00  0.00    +0.000 A 
ATOM     24  C   UNL     1      -0.845  10.220  23.104  0.00  0.00    +0.000 A 
ATOM     25  C   UNL     1      -1.484  11.389  22.696  0.00  0.00    +0.000 A 
ATOM     26  C   UNL     1      -1.333  11.842  21.388  0.00  0.00    +0.000 A 
ATOM     27  C   UNL     1      -0.543  11.122  20.487  0.00  0.00    +0.000 A 
ENDBRANCH  19  22
ENDBRANCH   2  17
TORSDOF 4
ENDMDL
MODEL 5
REMARK VINA RESULT:      -8.2      3.136      4.181
REMARK  Name = 
REMARK  4 active torsions:
REMARK  status: ('A' for Active; 'I' for Inactive)
REMARK    1  A    between atoms: C_2  and  C_15
REMARK    2  A    between atoms: N_3  and  C_4
REMARK    3  A    between atoms: C_8  and  C_9
REMARK    4  A    between atoms: C_17  and  C_18
REMARK                            x       y       z     vdW  Elec       q    Type
REMARK                         _______ _______ _______ _____ _____    ______ ____
ROOT
ATOM      1  O   UNL     1       2.842   5.524  17.968  0.00  0.00    +0.000 OA
ATOM      2  C   UNL     1       3.318   6.640  18.181  0.00  0.00    +0.000 C 
ATOM      3  N   UNL     1       4.664   6.949  18.048  0.00  0.00    +0.000 N 
ATOM      4  H   UNL     1       4.981   7.830  18.441  0.00  0.00    +0.000 HD
ENDROOT
BRANCH   3   5
ATOM      5  C   UNL     1       5.648   6.054  17.552  0.00  0.00    +0.000 A 
ATOM      6  C   UNL     1       6.574   5.433  18.399  0.00  0.00    +0.000 A 
ATOM      7  C   UNL     1       7.584   4.622  17.896  0.00  0.00    +0.000 A 
ATOM      8  C   UNL     1       7.662   4.385  16.532  0.00  0.00    +0.000 A 
ATOM      9  C   UNL     1       6.709   4.931  15.659  0.00  0.00    +0.000 A 
ATOM     10  C   UNL     1       5.704   5.773  16.178  0.00  0.00    +0.000 A 
BRANCH   9  11
ATOM     11  C   UNL     1       6.784   4.631  14.231  0.00  0.00    +0.000 A 
ATOM     12  N   UNL     1       7.483   5.253  13.300  0.00  0.00    +0.000 NA
ATOM     13  N   UNL     1       7.287   4.603  12.099  0.00  0.00    +0.000 NA
ATOM     14  C   UNL     1       6.451   3.615  12.314  0.00  0.00    +0.000 A 
ATOM     15  N   UNL     1       6.096   3.607  13.625  0.00  0.00    +0.000 N 
ATOM     16  H   UNL     1       5.449   2.976  14.072  0.00  0.00    +0.000 HD
ENDBRANCH   9  11
ENDBRANCH   3   5
BRANCH   2  17
ATOM     17  C   UNL     1       2.445   7.694  18.636  0.00  0.00    +0.000 A 
ATOM     18  C   UNL     1       2.065   8.843  17.986  0.00  0.00    +0.000 A 
ATOM     19  C   UNL     1       1.241   9.537  18.897  0.00  0.00    +0.000 A 
ATOM     20  N   UNL     1       1.117   8.830  20.035  0.00  0.00    +0.000 NA
ATOM     21  O   UNL     1       1.878   7.680  19.870  0.00  0.00    +0.000 OA
BRANCH  19  22
ATOM     22  C   UNL     1       0.587  10.830  18.684  0.00  0.00    +0.000 A 
ATOM     23  C   UNL     1      -0.786  10.900  18.415  0.00  0.00    +0.000 A 
ATOM     24  C   UNL     1      -1.405  12.133  18.191  0.00  0.00    +0.000 A 
ATOM     25  C   UNL     1      -0.661  13.310  18.239  0.00  0.00    +0.000 A 
ATOM     26  C   UNL     1       0.704  13.258  18.507  0.00  0.00    +0.000 A 
ATOM     27  C   UNL     1       1.326  12.025  18.726  0.00  0.00    +0.000 A 
ENDBRANCH  19  22
ENDBRANCH   2  17
TORSDOF 4
ENDMDL
MODEL 6
REMARK VINA RESULT:      -8.1      3.074      4.145
REMARK  Name = 
REMARK  4 active torsions:
REMARK  status: ('A' for Active; 'I' for Inactive)
REMARK    1  A    between atoms: C_2  and  C_15
REMARK    2  A    between atoms: N_3  and  C_4
REMARK    3  A    between atoms: C_8  and  C_9
REMARK    4  A    between atoms: C_17  and  C_18
REMARK                            x       y       z     vdW  Elec       q    Type
REMARK                         _______ _______ _______ _____ _____    ______ ____
ROOT
ATOM      1  O   UNL     1       3.203   5.381  19.010  0.00  0.00    +0.000 OA
ATOM      2  C   UNL     1       3.424   6.538  18.650  0.00  0.00    +0.000 C 
ATOM      3  N   UNL     1       4.561   6.934  17.959  0.00  0.00    +0.000 N 
ATOM      4  H   UNL     1       4.742   7.931  17.892  0.00  0.00    +0.000 HD
ENDROOT
BRANCH   3   5
ATOM      5  C   UNL     1       5.563   6.047  17.487  0.00  0.00    +0.000 A 
ATOM      6  C   UNL     1       6.495   5.460  18.352  0.00  0.00    +0.000 A 
ATOM      7  C   UNL     1       7.522   4.656  17.872  0.00  0.00    +0.000 A 
ATOM      8  C   UNL     1       7.612   4.392  16.514  0.00  0.00    +0.000 A 
ATOM      9  C   UNL     1       6.654   4.902  15.624  0.00  0.00    +0.000 A 
ATOM     10  C   UNL     1       5.631   5.737  16.120  0.00  0.00    +0.000 A 
BRANCH   9  11
ATOM     11  C   UNL     1       6.743   4.574  14.203  0.00  0.00    +0.000 A 
ATOM     12  N   UNL     1       7.453   5.174  13.267  0.00  0.00    +0.000 NA
ATOM     13  N   UNL     1       7.267   4.501  12.078  0.00  0.00    +0.000 NA
ATOM     14  C   UNL     1       6.424   3.522  12.304  0.00  0.00    +0.000 A 
ATOM     15  N   UNL     1       6.056   3.541  13.610  0.00  0.00    +0.000 N 
ATOM     16  H   UNL     1       5.401   2.922  14.063  0.00  0.00    +0.000 HD
ENDBRANCH   9  11
ENDBRANCH   3   5
BRANCH   2  17
ATOM     17  C   UNL     1       2.474   7.567  18.994  0.00  0.00    +0.000 A 
ATOM     18  C   UNL     1       2.084   8.663  18.262  0.00  0.00    +0.000 A 
ATOM     19  C   UNL     1       1.169   9.357  19.081  0.00  0.00    +0.000 A 
ATOM     20  N   UNL     1       1.003   8.701  20.244  0.00  0.00    +0.000 NA
ATOM     21  O   UNL     1       1.827   7.584  20.188  0.00  0.00    +0.000 OA
BRANCH  19  22
ATOM     22  C   UNL     1       0.470  10.604  18.760  0.00  0.00    +0.000 A 
ATOM     23  C   UNL     1       1.129  11.835  18.852  0.00  0.00    +0.000 A 
ATOM     24  C   UNL     1       0.455  13.027  18.566  0.00  0.00    +0.000 A 
ATOM     25  C   UNL     1      -0.884  12.999  18.180  0.00  0.00    +0.000 A 
ATOM     26  C   UNL     1      -1.553  11.782  18.082  0.00  0.00    +0.000 A 
ATOM     27  C   UNL     1      -0.881  10.591  18.372  0.00  0.00    +0.000 A 
ENDBRANCH  19  22
ENDBRANCH   2  17
TORSDOF 4
ENDMDL
MODEL 7
REMARK VINA RESULT:      -8.1      6.562      8.369
REMARK  Name = 
REMARK  4 active torsions:
REMARK  status: ('A' for Active; 'I' for Inactive)
REMARK    1  A    between atoms: C_2  and  C_15
REMARK    2  A    between atoms: N_3  and  C_4
REMARK    3  A    between atoms: C_8  and  C_9
REMARK    4  A    between atoms: C_17  and  C_18
REMARK                            x       y       z     vdW  Elec       q    Type
REMARK                         _______ _______ _______ _____ _____    ______ ____
ROOT
ATOM      1  O   UNL     1       8.230   6.648  18.864  0.00  0.00    +0.000 OA
ATOM      2  C   UNL     1       7.939   7.607  18.147  0.00  0.00    +0.000 C 
ATOM      3  N   UNL     1       7.123   7.521  17.028  0.00  0.00    +0.000 N 
ATOM      4  H   UNL     1       7.112   8.316  16.397  0.00  0.00    +0.000 HD
ENDROOT
BRANCH   3   5
ATOM      5  C   UNL     1       6.436   6.346  16.623  0.00  0.00    +0.000 A 
ATOM      6  C   UNL     1       6.847   5.597  15.513  0.00  0.00    +0.000 A 
ATOM      7  C   UNL     1       6.122   4.495  15.076  0.00  0.00    +0.000 A 
ATOM      8  C   UNL     1       4.988   4.098  15.768  0.00  0.00    +0.000 A 
ATOM      9  C   UNL     1       4.586   4.779  16.927  0.00  0.00    +0.000 A 
ATOM     10  C   UNL     1       5.314   5.911  17.347  0.00  0.00    +0.000 A 
BRANCH   9  11
ATOM     11  C   UNL     1       3.414   4.315  17.666  0.00  0.00    +0.000 A 
ATOM     12  N   UNL     1       2.227   4.883  17.759  0.00  0.00    +0.000 NA
ATOM     13  N   UNL     1       1.414   4.074  18.525  0.00  0.00    +0.000 NA
ATOM     14  C   UNL     1       2.127   3.043  18.909  0.00  0.00    +0.000 A 
ATOM     15  N   UNL     1       3.386   3.161  18.414  0.00  0.00    +0.000 N 
ATOM     16  H   UNL     1       4.158   2.529  18.566  0.00  0.00    +0.000 HD
ENDBRANCH   9  11
ENDBRANCH   3   5
BRANCH   2  17
ATOM     17  C   UNL     1       8.503   8.898  18.450  0.00  0.00    +0.000 A 
ATOM     18  C   UNL     1       8.590  10.013  17.650  0.00  0.00    +0.000 A 
ATOM     19  C   UNL     1       9.267  10.980  18.424  0.00  0.00    +0.000 A 
ATOM     20  N   UNL     1       9.558  10.476  19.638  0.00  0.00    +0.000 NA
ATOM     21  O   UNL     1       9.084   9.171  19.647  0.00  0.00    +0.000 OA
BRANCH  19  22
ATOM     22  C   UNL     1       9.618  12.343  18.019  0.00  0.00    +0.000 A 
ATOM     23  C   UNL     1      10.813  12.599  17.336  0.00  0.00    +0.000 A 
ATOM     24  C   UNL     1      11.157  13.903  16.968  0.00  0.00    +0.000 A 
ATOM     25  C   UNL     1      10.308  14.965  17.275  0.00  0.00    +0.000 A 
ATOM     26  C   UNL     1       9.116  14.727  17.953  0.00  0.00    +0.000 A 
ATOM     27  C   UNL     1       8.773  13.423  18.325  0.00  0.00    +0.000 A 
ENDBRANCH  19  22
ENDBRANCH   2  17
TORSDOF 4
ENDMDL
MODEL 8
REMARK VINA RESULT:      -8.1      3.377      9.702
REMARK  Name = 
REMARK  4 active torsions:
REMARK  status: ('A' for Active; 'I' for Inactive)
REMARK    1  A    between atoms: C_2  and  C_15
REMARK    2  A    between atoms: N_3  and  C_4
REMARK    3  A    between atoms: C_8  and  C_9
REMARK    4  A    between atoms: C_17  and  C_18
REMARK                            x       y       z     vdW  Elec       q    Type
REMARK                         _______ _______ _______ _____ _____    ______ ____
ROOT
ATOM      1  O   UNL     1       2.159  10.000  17.429  0.00  0.00    +0.000 OA
ATOM      2  C   UNL     1       1.873   9.064  18.177  0.00  0.00    +0.000 C 
ATOM      3  N   UNL     1       0.921   9.137  19.185  0.00  0.00    +0.000 N 
ATOM      4  H   UNL     1       0.907   8.386  19.868  0.00  0.00    +0.000 HD
ENDROOT
BRANCH   3   5
ATOM      5  C   UNL     1       0.083  10.259  19.418  0.00  0.00    +0.000 A 
ATOM      6  C   UNL     1       0.422  11.252  20.346  0.00  0.00    +0.000 A 
ATOM      7  C   UNL     1      -0.441  12.304  20.627  0.00  0.00    +0.000 A 
ATOM      8  C   UNL     1      -1.648  12.403  19.952  0.00  0.00    +0.000 A 
ATOM      9  C   UNL     1      -1.991  11.469  18.963  0.00  0.00    +0.000 A 
ATOM     10  C   UNL     1      -1.119  10.391  18.705  0.00  0.00    +0.000 A 
BRANCH   9  11
ATOM     11  C   UNL     1      -3.247  11.619  18.233  0.00  0.00    +0.000 A 
ATOM     12  N   UNL     1      -3.550  11.180  17.026  0.00  0.00    +0.000 NA
ATOM     13  N   UNL     1      -4.861  11.511  16.756  0.00  0.00    +0.000 NA
ATOM     14  C   UNL     1      -5.325  12.171  17.790  0.00  0.00    +0.000 A 
ATOM     15  N   UNL     1      -4.348  12.279  18.727  0.00  0.00    +0.000 N 
ATOM     16  H   UNL     1      -4.410  12.755  19.614  0.00  0.00    +0.000 HD
ENDBRANCH   9  11
ENDBRANCH   3   5
BRANCH   2  17
ATOM     17  C   UNL     1       2.587   7.820  18.039  0.00  0.00    +0.000 A 
ATOM     18  C   UNL     1       2.199   6.554  18.408  0.00  0.00    +0.000 A 
ATOM     19  C   UNL     1       3.288   5.716  18.086  0.00  0.00    +0.000 A 
ATOM     20  N   UNL     1       4.278   6.442  17.533  0.00  0.00    +0.000 NA
ATOM     21  O   UNL     1       3.838   7.759  17.513  0.00  0.00    +0.000 OA
BRANCH  19  22
ATOM     22  C   UNL     1       3.377   4.269  18.292  0.00  0.00    +0.000 A 
ATOM     23  C   UNL     1       2.698   3.385  17.446  0.00  0.00    +0.000 A 
ATOM     24  C   UNL     1       2.767   2.004  17.656  0.00  0.00    +0.000 A 
ATOM     25  C   UNL     1       3.519   1.493  18.712  0.00  0.00    +0.000 A 
ATOM     26  C   UNL     1       4.201   2.359  19.561  0.00  0.00    +0.000 A 
ATOM     27  C   UNL     1       4.130   3.740  19.355  0.00  0.00    +0.000 A 
ENDBRANCH  19  22
ENDBRANCH   2  17
TORSDOF 4
ENDMDL
MODEL 9
REMARK VINA RESULT:      -8.1      6.348      8.455
REMARK  Name = 
REMARK  4 active torsions:
REMARK  status: ('A' for Active; 'I' for Inactive)
REMARK    1  A    between atoms: C_2  and  C_15
REMARK    2  A    between atoms: N_3  and  C_4
REMARK    3  A    between atoms: C_8  and  C_9
REMARK    4  A    between atoms: C_17  and  C_18
REMARK                            x       y       z     vdW  Elec       q    Type
REMARK                         _______ _______ _______ _____ _____    ______ ____
ROOT
ATOM      1  O   UNL     1       8.318   6.711  18.868  0.00  0.00    +0.000 OA
ATOM      2  C   UNL     1       7.962   7.686  18.203  0.00  0.00    +0.000 C 
ATOM      3  N   UNL     1       7.058   7.621  17.153  0.00  0.00    +0.000 N 
ATOM      4  H   UNL     1       6.989   8.433  16.546  0.00  0.00    +0.000 HD
ENDROOT
BRANCH   3   5
ATOM      5  C   UNL     1       6.349   6.451  16.774  0.00  0.00    +0.000 A 
ATOM      6  C   UNL     1       6.712   5.701  15.649  0.00  0.00    +0.000 A 
ATOM      7  C   UNL     1       5.965   4.603  15.240  0.00  0.00    +0.000 A 
ATOM      8  C   UNL     1       4.857   4.212  15.974  0.00  0.00    +0.000 A 
ATOM      9  C   UNL     1       4.503   4.894  17.148  0.00  0.00    +0.000 A 
ATOM     10  C   UNL     1       5.254   6.022  17.540  0.00  0.00    +0.000 A 
BRANCH   9  11
ATOM     11  C   UNL     1       3.358   4.436  17.932  0.00  0.00    +0.000 A 
ATOM     12  N   UNL     1       2.075   4.641  17.702  0.00  0.00    +0.000 NA
ATOM     13  N   UNL     1       1.347   3.989  18.676  0.00  0.00    +0.000 NA
ATOM     14  C   UNL     1       2.199   3.424  19.496  0.00  0.00    +0.000 A 
ATOM     15  N   UNL     1       3.464   3.692  19.083  0.00  0.00    +0.000 N 
ATOM     16  H   UNL     1       4.321   3.407  19.532  0.00  0.00    +0.000 HD
ENDBRANCH   9  11
ENDBRANCH   3   5
BRANCH   2  17
ATOM     17  C   UNL     1       8.539   8.975  18.494  0.00  0.00    +0.000 A 
ATOM     18  C   UNL     1       8.694  10.060  17.664  0.00  0.00    +0.000 A 
ATOM     19  C   UNL     1       9.351  11.037  18.441  0.00  0.00    +0.000 A 
ATOM     20  N   UNL     1       9.566  10.568  19.684  0.00  0.00    +0.000 NA
ATOM     21  O   UNL     1       9.063   9.275  19.710  0.00  0.00    +0.000 OA
BRANCH  19  22
ATOM     22  C   UNL     1       9.754  12.378  18.012  0.00  0.00    +0.000 A 
ATOM     23  C   UNL     1       8.946  13.488  18.286  0.00  0.00    +0.000 A 
ATOM     24  C   UNL     1       9.322  14.765  17.858  0.00  0.00    +0.000 A 
ATOM     25  C   UNL     1      10.511  14.947  17.155  0.00  0.00    +0.000 A 
ATOM     26  C   UNL     1      11.326  13.854  16.875  0.00  0.00    +0.000 A 
ATOM     27  C   UNL     1      10.950  12.576  17.299  0.00  0.00    +0.000 A 
ENDBRANCH  19  22
ENDBRANCH   2  17
TORSDOF 4
ENDMDL
