MODEL 1
REMARK VINA RESULT:      -8.8      0.000      0.000
REMARK  Name = 
REMARK  3 active torsions:
REMARK  status: ('A' for Active; 'I' for Inactive)
REMARK    1  A    between atoms: C_1  and  N_2
REMARK    2  A    between atoms: N_2  and  C_3
REMARK    3  A    between atoms: C_12  and  C_13
REMARK                            x       y       z     vdW  Elec       q    Type
REMARK                         _______ _______ _______ _____ _____    ______ ____
ROOT
ATOM      1  C   UNL     1       1.890   5.191  20.231  0.00  0.00    +0.000 C 
ATOM      2  O   UNL     1       0.880   4.500  20.206  0.00  0.00    +0.000 OA
ATOM      3  N   UNL     1       3.195   4.710  20.444  0.00  0.00    +0.000 N 
ATOM      4  C   UNL     1       3.399   3.258  20.613  0.00  0.00    +0.000 C 
ATOM      5  C   UNL     1       4.587   2.904  19.681  0.00  0.00    +0.000 C 
ATOM      6  C   UNL     1       4.513   4.024  18.650  0.00  0.00    +0.000 C 
ATOM      7  C   UNL     1       4.260   5.217  19.583  0.00  0.00    +0.000 C 
ATOM      8  C   UNL     1       3.274   3.815  17.730  0.00  0.00    +0.000 C 
ATOM      9  O   UNL     1       2.299   3.108  17.913  0.00  0.00    +0.000 OA
ATOM     10  N   UNL     1       3.508   4.503  16.555  0.00  0.00    +0.000 N 
ATOM     11  C   UNL     1       4.882   4.650  16.423  0.00  0.00    +0.000 A 
ATOM     12  C   UNL     1       5.506   4.918  15.231  0.00  0.00    +0.000 A 
ATOM     13  C   UNL     1       6.894   4.878  15.234  0.00  0.00    +0.000 A 
ATOM     14  C   UNL     1       7.596   4.629  16.431  0.00  0.00    +0.000 A 
ATOM     15  C   UNL     1       6.928   4.369  17.643  0.00  0.00    +0.000 A 
ATOM     16  C   UNL     1       5.552   4.327  17.613  0.00  0.00    +0.000 A 
ATOM     17  H   UNL     1       2.958   5.347  16.435  0.00  0.00    +0.000 HD
ENDROOT
BRANCH   1  23
ATOM     18  C   UNL     1       1.700  11.537  18.643  0.00  0.00    +0.000 C 
ATOM     19  N   UNL     1       0.876  10.717  19.529  0.00  0.00    +0.000 N 
ATOM     20  C   UNL     1       1.257   9.363  19.687  0.00  0.00    +0.000 A 
ATOM     21  C   UNL     1       1.823   8.619  18.642  0.00  0.00    +0.000 A 
ATOM     22  C   UNL     1       2.048   7.243  18.797  0.00  0.00    +0.000 A 
ATOM     23  C   UNL     1       1.738   6.642  20.007  0.00  0.00    +0.000 A 
ATOM     24  C   UNL     1       1.223   7.436  21.018  0.00  0.00    +0.000 A 
ATOM     25  N   UNL     1       1.010   8.762  20.879  0.00  0.00    +0.000 NA
BRANCH  19  26
ATOM     26  C   UNL     1      -0.172  11.346  20.248  0.00  0.00    +0.000 A 
ATOM     27  C   UNL     1      -0.055  11.566  21.637  0.00  0.00    +0.000 A 
ATOM     28  C   UNL     1      -1.075  12.161  22.385  0.00  0.00    +0.000 A 
ATOM     29  C   UNL     1      -2.251  12.564  21.755  0.00  0.00    +0.000 A 
ATOM     30  C   UNL     1      -2.402  12.372  20.386  0.00  0.00    +0.000 A 
ATOM     31  C   UNL     1      -1.369  11.768  19.641  0.00  0.00    +0.000 A 
ENDBRANCH  19  26
ENDBRANCH   1  23
TORSDOF 2
ENDMDL
MODEL 2
REMARK VINA RESULT:      -8.0      4.676     11.545
REMARK  Name = 
REMARK  3 active torsions:
REMARK  status: ('A' for Active; 'I' for Inactive)
REMARK    1  A    between atoms: C_1  and  N_2
REMARK    2  A    between atoms: N_2  and  C_3
REMARK    3  A    between atoms: C_12  and  C_13
REMARK                            x       y       z     vdW  Elec       q    Type
REMARK                         _______ _______ _______ _____ _____    ______ ____
ROOT
ATOM      1  C   UNL     1      -5.016  11.739  17.975  0.00  0.00    +0.000 C 
ATOM      2  O   UNL     1      -5.452  10.754  17.392  0.00  0.00    +0.000 OA
ATOM      3  N   UNL     1      -5.727  12.936  18.183  0.00  0.00    +0.000 N 
ATOM      4  C   UNL     1      -7.122  13.027  17.711  0.00  0.00    +0.000 C 
ATOM      5  C   UNL     1      -7.917  13.618  18.905  0.00  0.00    +0.000 C 
ATOM      6  C   UNL     1      -7.041  13.217  20.086  0.00  0.00    +0.000 C 
ATOM      7  C   UNL     1      -5.658  13.550  19.506  0.00  0.00    +0.000 C 
ATOM      8  C   UNL     1      -7.146  11.683  20.325  0.00  0.00    +0.000 C 
ATOM      9  O   UNL     1      -7.563  10.820  19.572  0.00  0.00    +0.000 OA
ATOM     10  N   UNL     1      -6.781  11.439  21.635  0.00  0.00    +0.000 N 
ATOM     11  C   UNL     1      -6.979  12.614  22.348  0.00  0.00    +0.000 A 
ATOM     12  C   UNL     1      -7.105  12.662  23.714  0.00  0.00    +0.000 A 
ATOM     13  C   UNL     1      -7.457  13.887  24.263  0.00  0.00    +0.000 A 
ATOM     14  C   UNL     1      -7.610  15.019  23.436  0.00  0.00    +0.000 A 
ATOM     15  C   UNL     1      -7.462  14.943  22.038  0.00  0.00    +0.000 A 
ATOM     16  C   UNL     1      -7.197  13.706  21.495  0.00  0.00    +0.000 A 
ATOM     17  H   UNL     1      -5.877  10.995  21.754  0.00  0.00    +0.000 HD
ENDROOT
BRANCH   1  23
ATOM     18  C   UNL     1       0.888  12.064  20.778  0.00  0.00    +0.000 C 
ATOM     19  N   UNL     1       0.216  11.016  20.013  0.00  0.00    +0.000 N 
ATOM     20  C   UNL     1      -1.063  11.324  19.490  0.00  0.00    +0.000 A 
ATOM     21  C   UNL     1      -1.967  12.156  20.167  0.00  0.00    +0.000 A 
ATOM     22  C   UNL     1      -3.275  12.315  19.685  0.00  0.00    +0.000 A 
ATOM     23  C   UNL     1      -3.644  11.670  18.515  0.00  0.00    +0.000 A 
ATOM     24  C   UNL     1      -2.696  10.898  17.867  0.00  0.00    +0.000 A 
ATOM     25  N   UNL     1      -1.434  10.745  18.320  0.00  0.00    +0.000 NA
BRANCH  19  26
ATOM     26  C   UNL     1       0.921   9.813  19.755  0.00  0.00    +0.000 A 
ATOM     27  C   UNL     1       1.536   9.599  18.503  0.00  0.00    +0.000 A 
ATOM     28  C   UNL     1       2.220   8.418  18.201  0.00  0.00    +0.000 A 
ATOM     29  C   UNL     1       2.315   7.409  19.158  0.00  0.00    +0.000 A 
ATOM     30  C   UNL     1       1.730   7.584  20.406  0.00  0.00    +0.000 A 
ATOM     31  C   UNL     1       1.038   8.777  20.700  0.00  0.00    +0.000 A 
ENDBRANCH  19  26
ENDBRANCH   1  23
TORSDOF 2
ENDMDL
MODEL 3
REMARK VINA RESULT:      -7.7      4.469     11.418
REMARK  Name = 
REMARK  3 active torsions:
REMARK  status: ('A' for Active; 'I' for Inactive)
REMARK    1  A    between atoms: C_1  and  N_2
REMARK    2  A    between atoms: N_2  and  C_3
REMARK    3  A    between atoms: C_12  and  C_13
REMARK                            x       y       z     vdW  Elec       q    Type
REMARK                         _______ _______ _______ _____ _____    ______ ____
ROOT
ATOM      1  C   UNL     1      -5.166  11.247  18.456  0.00  0.00    +0.000 C 
ATOM      2  O   UNL     1      -5.685  10.138  18.411  0.00  0.00    +0.000 OA
ATOM      3  N   UNL     1      -5.862  12.468  18.393  0.00  0.00    +0.000 N 
ATOM      4  C   UNL     1      -7.335  12.445  18.308  0.00  0.00    +0.000 C 
ATOM      5  C   UNL     1      -7.818  13.470  19.368  0.00  0.00    +0.000 C 
ATOM      6  C   UNL     1      -6.642  13.488  20.337  0.00  0.00    +0.000 C 
ATOM      7  C   UNL     1      -5.481  13.521  19.332  0.00  0.00    +0.000 C 
ATOM      8  C   UNL     1      -6.596  12.155  21.138  0.00  0.00    +0.000 C 
ATOM      9  O   UNL     1      -7.148  11.097  20.891  0.00  0.00    +0.000 OA
ATOM     10  N   UNL     1      -5.886  12.392  22.300  0.00  0.00    +0.000 N 
ATOM     11  C   UNL     1      -5.953  13.754  22.559  0.00  0.00    +0.000 A 
ATOM     12  C   UNL     1      -5.718  14.304  23.794  0.00  0.00    +0.000 A 
ATOM     13  C   UNL     1      -5.980  15.661  23.930  0.00  0.00    +0.000 A 
ATOM     14  C   UNL     1      -6.407  16.417  22.820  0.00  0.00    +0.000 A 
ATOM     15  C   UNL     1      -6.628  15.828  21.560  0.00  0.00    +0.000 A 
ATOM     16  C   UNL     1      -6.448  14.466  21.457  0.00  0.00    +0.000 A 
ATOM     17  H   UNL     1      -4.960  11.980  22.328  0.00  0.00    +0.000 HD
ENDROOT
BRANCH   1  23
ATOM     18  C   UNL     1       1.234  12.275  19.351  0.00  0.00    +0.000 C 
ATOM     19  N   UNL     1       0.455  11.063  19.108  0.00  0.00    +0.000 N 
ATOM     20  C   UNL     1      -0.934  11.227  18.890  0.00  0.00    +0.000 A 
ATOM     21  C   UNL     1      -1.680  12.222  19.539  0.00  0.00    +0.000 A 
ATOM     22  C   UNL     1      -3.077  12.254  19.408  0.00  0.00    +0.000 A 
ATOM     23  C   UNL     1      -3.699  11.316  18.600  0.00  0.00    +0.000 A 
ATOM     24  C   UNL     1      -2.907  10.386  17.949  0.00  0.00    +0.000 A 
ATOM     25  N   UNL     1      -1.563  10.351  18.065  0.00  0.00    +0.000 NA
BRANCH  19  26
ATOM     26  C   UNL     1       1.144   9.829  18.998  0.00  0.00    +0.000 A 
ATOM     27  C   UNL     1       1.171   8.925  20.082  0.00  0.00    +0.000 A 
ATOM     28  C   UNL     1       1.859   7.710  20.022  0.00  0.00    +0.000 A 
ATOM     29  C   UNL     1       2.541   7.357  18.859  0.00  0.00    +0.000 A 
ATOM     30  C   UNL     1       2.532   8.216  17.766  0.00  0.00    +0.000 A 
ATOM     31  C   UNL     1       1.839   9.441  17.838  0.00  0.00    +0.000 A 
ENDBRANCH  19  26
ENDBRANCH   1  23
TORSDOF 2
ENDMDL
MODEL 4
REMARK VINA RESULT:      -7.4      6.553     10.487
REMARK  Name = 
REMARK  3 active torsions:
REMARK  status: ('A' for Active; 'I' for Inactive)
REMARK    1  A    between atoms: C_1  and  N_2
REMARK    2  A    between atoms: N_2  and  C_3
REMARK    3  A    between atoms: C_12  and  C_13
REMARK                            x       y       z     vdW  Elec       q    Type
REMARK                         _______ _______ _______ _____ _____    ______ ____
ROOT
ATOM      1  C   UNL     1       4.050  16.577  20.415  0.00  0.00    +0.000 C 
ATOM      2  O   UNL     1       3.917  17.579  19.724  0.00  0.00    +0.000 OA
ATOM      3  N   UNL     1       3.005  15.911  21.083  0.00  0.00    +0.000 N 
ATOM      4  C   UNL     1       1.626  16.412  20.925  0.00  0.00    +0.000 C 
ATOM      5  C   UNL     1       0.771  15.155  20.614  0.00  0.00    +0.000 C 
ATOM      6  C   UNL     1       1.814  14.213  20.023  0.00  0.00    +0.000 C 
ATOM      7  C   UNL     1       2.966  14.453  21.009  0.00  0.00    +0.000 C 
ATOM      8  C   UNL     1       2.232  14.708  18.608  0.00  0.00    +0.000 C 
ATOM      9  O   UNL     1       2.065  15.804  18.103  0.00  0.00    +0.000 OA
ATOM     10  N   UNL     1       2.751  13.624  17.925  0.00  0.00    +0.000 N 
ATOM     11  C   UNL     1       2.234  12.476  18.509  0.00  0.00    +0.000 A 
ATOM     12  C   UNL     1       2.199  11.255  17.883  0.00  0.00    +0.000 A 
ATOM     13  C   UNL     1       1.508  10.243  18.535  0.00  0.00    +0.000 A 
ATOM     14  C   UNL     1       0.935  10.474  19.802  0.00  0.00    +0.000 A 
ATOM     15  C   UNL     1       0.997  11.735  20.427  0.00  0.00    +0.000 A 
ATOM     16  C   UNL     1       1.610  12.756  19.734  0.00  0.00    +0.000 A 
ATOM     17  H   UNL     1       3.756  13.641  17.794  0.00  0.00    +0.000 HD
ENDROOT
BRANCH   1  23
ATOM     18  C   UNL     1      10.111  14.460  21.679  0.00  0.00    +0.000 C 
ATOM     19  N   UNL     1       9.090  14.017  20.732  0.00  0.00    +0.000 N 
ATOM     20  C   UNL     1       7.891  14.769  20.685  0.00  0.00    +0.000 A 
ATOM     21  C   UNL     1       7.339  15.367  21.827  0.00  0.00    +0.000 A 
ATOM     22  C   UNL     1       6.076  15.975  21.764  0.00  0.00    +0.000 A 
ATOM     23  C   UNL     1       5.405  16.008  20.552  0.00  0.00    +0.000 A 
ATOM     24  C   UNL     1       6.019  15.440  19.449  0.00  0.00    +0.000 A 
ATOM     25  N   UNL     1       7.236  14.859  19.500  0.00  0.00    +0.000 NA
BRANCH  19  26
ATOM     26  C   UNL     1       9.401  12.947  19.856  0.00  0.00    +0.000 A 
ATOM     27  C   UNL     1       9.155  11.612  20.242  0.00  0.00    +0.000 A 
ATOM     28  C   UNL     1       9.469  10.528  19.417  0.00  0.00    +0.000 A 
ATOM     29  C   UNL     1      10.038  10.753  18.165  0.00  0.00    +0.000 A 
ATOM     30  C   UNL     1      10.289  12.054  17.744  0.00  0.00    +0.000 A 
ATOM     31  C   UNL     1       9.973  13.140  18.585  0.00  0.00    +0.000 A 
ENDBRANCH  19  26
ENDBRANCH   1  23
TORSDOF 2
ENDMDL
MODEL 5
REMARK VINA RESULT:      -7.3      4.673      8.248
REMARK  Name = 
REMARK  3 active torsions:
REMARK  status: ('A' for Active; 'I' for Inactive)
REMARK    1  A    between atoms: C_1  and  N_2
REMARK    2  A    between atoms: N_2  and  C_3
REMARK    3  A    between atoms: C_12  and  C_13
REMARK                            x       y       z     vdW  Elec       q    Type
REMARK                         _______ _______ _______ _____ _____    ______ ____
ROOT
ATOM      1  C   UNL     1       0.321  14.072  19.978  0.00  0.00    +0.000 C 
ATOM      2  O   UNL     1      -0.620  14.603  19.402  0.00  0.00    +0.000 OA
ATOM      3  N   UNL     1       0.216  12.995  20.878  0.00  0.00    +0.000 N 
ATOM      4  C   UNL     1      -1.115  12.412  21.137  0.00  0.00    +0.000 C 
ATOM      5  C   UNL     1      -0.915  10.878  21.016  0.00  0.00    +0.000 C 
ATOM      6  C   UNL     1       0.309  10.797  20.112  0.00  0.00    +0.000 C 
ATOM      7  C   UNL     1       1.171  11.898  20.747  0.00  0.00    +0.000 C 
ATOM      8  C   UNL     1      -0.077  11.213  18.662  0.00  0.00    +0.000 C 
ATOM      9  O   UNL     1      -1.062  11.818  18.278  0.00  0.00    +0.000 OA
ATOM     10  N   UNL     1       0.862  10.665  17.808  0.00  0.00    +0.000 N 
ATOM     11  C   UNL     1       1.431   9.578  18.457  0.00  0.00    +0.000 A 
ATOM     12  C   UNL     1       2.096   8.568  17.807  0.00  0.00    +0.000 A 
ATOM     13  C   UNL     1       2.468   7.474  18.575  0.00  0.00    +0.000 A 
ATOM     14  C   UNL     1       2.214   7.459  19.962  0.00  0.00    +0.000 A 
ATOM     15  C   UNL     1       1.540   8.515  20.605  0.00  0.00    +0.000 A 
ATOM     16  C   UNL     1       1.099   9.557  19.820  0.00  0.00    +0.000 A 
ATOM     17  H   UNL     1       1.512  11.329  17.402  0.00  0.00    +0.000 HD
ENDROOT
BRANCH   1  23
ATOM     18  C   UNL     1       6.082  17.030  19.036  0.00  0.00    +0.000 C 
ATOM     19  N   UNL     1       5.680  15.626  19.013  0.00  0.00    +0.000 N 
ATOM     20  C   UNL     1       4.303  15.350  19.198  0.00  0.00    +0.000 A 
ATOM     21  C   UNL     1       3.493  16.126  20.040  0.00  0.00    +0.000 A 
ATOM     22  C   UNL     1       2.174  15.730  20.309  0.00  0.00    +0.000 A 
ATOM     23  C   UNL     1       1.677  14.587  19.702  0.00  0.00    +0.000 A 
ATOM     24  C   UNL     1       2.510  13.887  18.846  0.00  0.00    +0.000 A 
ATOM     25  N   UNL     1       3.777  14.264  18.577  0.00  0.00    +0.000 NA
BRANCH  19  26
ATOM     26  C   UNL     1       6.660  14.649  18.703  0.00  0.00    +0.000 A 
ATOM     27  C   UNL     1       7.714  14.382  19.603  0.00  0.00    +0.000 A 
ATOM     28  C   UNL     1       8.712  13.444  19.324  0.00  0.00    +0.000 A 
ATOM     29  C   UNL     1       8.678  12.733  18.126  0.00  0.00    +0.000 A 
ATOM     30  C   UNL     1       7.651  12.960  17.217  0.00  0.00    +0.000 A 
ATOM     31  C   UNL     1       6.652  13.911  17.505  0.00  0.00    +0.000 A 
ENDBRANCH  19  26
ENDBRANCH   1  23
TORSDOF 2
ENDMDL
MODEL 6
REMARK VINA RESULT:      -7.2      5.017      7.881
REMARK  Name = 
REMARK  3 active torsions:
REMARK  status: ('A' for Active; 'I' for Inactive)
REMARK    1  A    between atoms: C_1  and  N_2
REMARK    2  A    between atoms: N_2  and  C_3
REMARK    3  A    between atoms: C_12  and  C_13
REMARK                            x       y       z     vdW  Elec       q    Type
REMARK                         _______ _______ _______ _____ _____    ______ ____
ROOT
ATOM      1  C   UNL     1       0.647  13.413  19.888  0.00  0.00    +0.000 C 
ATOM      2  O   UNL     1      -0.271  13.968  19.298  0.00  0.00    +0.000 OA
ATOM      3  N   UNL     1       0.498  12.358  20.807  0.00  0.00    +0.000 N 
ATOM      4  C   UNL     1      -0.856  11.830  21.070  0.00  0.00    +0.000 C 
ATOM      5  C   UNL     1      -0.714  10.288  20.979  0.00  0.00    +0.000 C 
ATOM      6  C   UNL     1       0.509  10.144  20.082  0.00  0.00    +0.000 C 
ATOM      7  C   UNL     1       1.411  11.223  20.700  0.00  0.00    +0.000 C 
ATOM      8  C   UNL     1       0.145  10.547  18.623  0.00  0.00    +0.000 C 
ATOM      9  O   UNL     1      -0.814  11.182  18.224  0.00  0.00    +0.000 OA
ATOM     10  N   UNL     1       1.066   9.948  17.784  0.00  0.00    +0.000 N 
ATOM     11  C   UNL     1       1.590   8.852  18.455  0.00  0.00    +0.000 A 
ATOM     12  C   UNL     1       2.219   7.806  17.826  0.00  0.00    +0.000 A 
ATOM     13  C   UNL     1       2.546   6.713  18.617  0.00  0.00    +0.000 A 
ATOM     14  C   UNL     1       2.286   6.733  20.002  0.00  0.00    +0.000 A 
ATOM     15  C   UNL     1       1.650   7.826  20.623  0.00  0.00    +0.000 A 
ATOM     16  C   UNL     1       1.253   8.869  19.816  0.00  0.00    +0.000 A 
ATOM     17  H   UNL     1       1.742  10.579  17.369  0.00  0.00    +0.000 HD
ENDROOT
BRANCH   1  23
ATOM     18  C   UNL     1       6.652  15.140  17.944  0.00  0.00    +0.000 C 
ATOM     19  N   UNL     1       5.843  15.521  19.099  0.00  0.00    +0.000 N 
ATOM     20  C   UNL     1       4.586  14.883  19.239  0.00  0.00    +0.000 A 
ATOM     21  C   UNL     1       3.804  14.523  18.132  0.00  0.00    +0.000 A 
ATOM     22  C   UNL     1       2.504  14.030  18.319  0.00  0.00    +0.000 A 
ATOM     23  C   UNL     1       2.023  13.870  19.609  0.00  0.00    +0.000 A 
ATOM     24  C   UNL     1       2.857  14.201  20.663  0.00  0.00    +0.000 A 
ATOM     25  N   UNL     1       4.111  14.669  20.492  0.00  0.00    +0.000 NA
BRANCH  19  26
ATOM     26  C   UNL     1       6.403  16.409  20.052  0.00  0.00    +0.000 A 
ATOM     27  C   UNL     1       5.895  17.718  20.195  0.00  0.00    +0.000 A 
ATOM     28  C   UNL     1       6.435  18.631  21.106  0.00  0.00    +0.000 A 
ATOM     29  C   UNL     1       7.506  18.252  21.913  0.00  0.00    +0.000 A 
ATOM     30  C   UNL     1       8.029  16.969  21.809  0.00  0.00    +0.000 A 
ATOM     31  C   UNL     1       7.481  16.056  20.885  0.00  0.00    +0.000 A 
ENDBRANCH  19  26
ENDBRANCH   1  23
TORSDOF 2
ENDMDL
MODEL 7
REMARK VINA RESULT:      -7.2      6.931      9.418
REMARK  Name = 
REMARK  3 active torsions:
REMARK  status: ('A' for Active; 'I' for Inactive)
REMARK    1  A    between atoms: C_1  and  N_2
REMARK    2  A    between atoms: N_2  and  C_3
REMARK    3  A    between atoms: C_12  and  C_13
REMARK                            x       y       z     vdW  Elec       q    Type
REMARK                         _______ _______ _______ _____ _____    ______ ____
ROOT
ATOM      1  C   UNL     1       6.460  16.880  18.859  0.00  0.00    +0.000 C 
ATOM      2  O   UNL     1       6.661  17.835  19.599  0.00  0.00    +0.000 OA
ATOM      3  N   UNL     1       7.408  16.322  17.982  0.00  0.00    +0.000 N 
ATOM      4  C   UNL     1       8.773  16.885  17.958  0.00  0.00    +0.000 C 
ATOM      5  C   UNL     1       9.719  15.657  18.026  0.00  0.00    +0.000 C 
ATOM      6  C   UNL     1       8.827  14.619  18.697  0.00  0.00    +0.000 C 
ATOM      7  C   UNL     1       7.520  14.867  17.930  0.00  0.00    +0.000 C 
ATOM      8  C   UNL     1       8.625  14.986  20.196  0.00  0.00    +0.000 C 
ATOM      9  O   UNL     1       8.826  16.050  20.755  0.00  0.00    +0.000 OA
ATOM     10  N   UNL     1       8.271  13.829  20.864  0.00  0.00    +0.000 N 
ATOM     11  C   UNL     1       8.733  12.756  20.114  0.00  0.00    +0.000 A 
ATOM     12  C   UNL     1       8.921  11.497  20.625  0.00  0.00    +0.000 A 
ATOM     13  C   UNL     1       9.538  10.574  19.792  0.00  0.00    +0.000 A 
ATOM     14  C   UNL     1       9.887  10.928  18.473  0.00  0.00    +0.000 A 
ATOM     15  C   UNL     1       9.671  12.226  17.970  0.00  0.00    +0.000 A 
ATOM     16  C   UNL     1       9.136  13.158  18.832  0.00  0.00    +0.000 A 
ATOM     17  H   UNL     1       7.301  13.782  21.155  0.00  0.00    +0.000 HD
ENDROOT
BRANCH   1  23
ATOM     18  C   UNL     1       0.263  14.777  18.815  0.00  0.00    +0.000 C 
ATOM     19  N   UNL     1       1.543  14.072  18.857  0.00  0.00    +0.000 N 
ATOM     20  C   UNL     1       2.711  14.869  18.924  0.00  0.00    +0.000 A 
ATOM     21  C   UNL     1       2.805  16.113  18.282  0.00  0.00    +0.000 A 
ATOM     22  C   UNL     1       4.028  16.800  18.251  0.00  0.00    +0.000 A 
ATOM     23  C   UNL     1       5.126  16.249  18.894  0.00  0.00    +0.000 A 
ATOM     24  C   UNL     1       4.961  15.041  19.548  0.00  0.00    +0.000 A 
ATOM     25  N   UNL     1       3.787  14.377  19.589  0.00  0.00    +0.000 NA
BRANCH  19  26
ATOM     26  C   UNL     1       1.531  12.657  18.936  0.00  0.00    +0.000 A 
ATOM     27  C   UNL     1       0.850  12.004  19.986  0.00  0.00    +0.000 A 
ATOM     28  C   UNL     1       0.834  10.613  20.112  0.00  0.00    +0.000 A 
ATOM     29  C   UNL     1       1.502   9.825  19.176  0.00  0.00    +0.000 A 
ATOM     30  C   UNL     1       2.178  10.429  18.123  0.00  0.00    +0.000 A 
ATOM     31  C   UNL     1       2.192  11.833  18.006  0.00  0.00    +0.000 A 
ENDBRANCH  19  26
ENDBRANCH   1  23
TORSDOF 2
ENDMDL
MODEL 8
REMARK VINA RESULT:      -7.2      6.368     10.084
REMARK  Name = 
REMARK  3 active torsions:
REMARK  status: ('A' for Active; 'I' for Inactive)
REMARK    1  A    between atoms: C_1  and  N_2
REMARK    2  A    between atoms: N_2  and  C_3
REMARK    3  A    between atoms: C_12  and  C_13
REMARK                            x       y       z     vdW  Elec       q    Type
REMARK                         _______ _______ _______ _____ _____    ______ ____
ROOT
ATOM      1  C   UNL     1       3.739  15.784  20.580  0.00  0.00    +0.000 C 
ATOM      2  O   UNL     1       3.912  16.746  19.841  0.00  0.00    +0.000 OA
ATOM      3  N   UNL     1       2.485  15.261  20.947  0.00  0.00    +0.000 N 
ATOM      4  C   UNL     1       1.266  15.872  20.382  0.00  0.00    +0.000 C 
ATOM      5  C   UNL     1       0.406  14.679  19.889  0.00  0.00    +0.000 C 
ATOM      6  C   UNL     1       1.467  13.610  19.658  0.00  0.00    +0.000 C 
ATOM      7  C   UNL     1       2.316  13.811  20.922  0.00  0.00    +0.000 C 
ATOM      8  C   UNL     1       2.314  13.969  18.403  0.00  0.00    +0.000 C 
ATOM      9  O   UNL     1       2.412  15.039  17.829  0.00  0.00    +0.000 OA
ATOM     10  N   UNL     1       2.887  12.800  17.938  0.00  0.00    +0.000 N 
ATOM     11  C   UNL     1       2.110  11.745  18.395  0.00  0.00    +0.000 A 
ATOM     12  C   UNL     1       2.123  10.493  17.833  0.00  0.00    +0.000 A 
ATOM     13  C   UNL     1       1.175   9.592  18.300  0.00  0.00    +0.000 A 
ATOM     14  C   UNL     1       0.297   9.959  19.340  0.00  0.00    +0.000 A 
ATOM     15  C   UNL     1       0.314  11.248  19.907  0.00  0.00    +0.000 A 
ATOM     16  C   UNL     1       1.201  12.161  19.379  0.00  0.00    +0.000 A 
ATOM     17  H   UNL     1       3.885  12.718  18.099  0.00  0.00    +0.000 HD
ENDROOT
BRANCH   1  23
ATOM     18  C   UNL     1       8.669  12.773  23.654  0.00  0.00    +0.000 C 
ATOM     19  N   UNL     1       8.375  12.989  22.239  0.00  0.00    +0.000 N 
ATOM     20  C   UNL     1       7.227  13.760  21.934  0.00  0.00    +0.000 A 
ATOM     21  C   UNL     1       6.067  13.718  22.722  0.00  0.00    +0.000 A 
ATOM     22  C   UNL     1       4.905  14.382  22.301  0.00  0.00    +0.000 A 
ATOM     23  C   UNL     1       4.934  15.107  21.120  0.00  0.00    +0.000 A 
ATOM     24  C   UNL     1       6.120  15.148  20.407  0.00  0.00    +0.000 A 
ATOM     25  N   UNL     1       7.244  14.518  20.808  0.00  0.00    +0.000 NA
BRANCH  19  26
ATOM     26  C   UNL     1       9.301  12.513  21.278  0.00  0.00    +0.000 A 
ATOM     27  C   UNL     1      10.446  13.271  20.950  0.00  0.00    +0.000 A 
ATOM     28  C   UNL     1      11.370  12.848  19.991  0.00  0.00    +0.000 A 
ATOM     29  C   UNL     1      11.177  11.636  19.331  0.00  0.00    +0.000 A 
ATOM     30  C   UNL     1      10.067  10.855  19.632  0.00  0.00    +0.000 A 
ATOM     31  C   UNL     1       9.138  11.292  20.597  0.00  0.00    +0.000 A 
ENDBRANCH  19  26
ENDBRANCH   1  23
TORSDOF 2
ENDMDL
MODEL 9
REMARK VINA RESULT:      -7.2      6.482     10.364
REMARK  Name = 
REMARK  3 active torsions:
REMARK  status: ('A' for Active; 'I' for Inactive)
REMARK    1  A    between atoms: C_1  and  N_2
REMARK    2  A    between atoms: N_2  and  C_3
REMARK    3  A    between atoms: C_12  and  C_13
REMARK                            x       y       z     vdW  Elec       q    Type
REMARK                         _______ _______ _______ _____ _____    ______ ____
ROOT
ATOM      1  C   UNL     1       3.974  16.242  20.177  0.00  0.00    +0.000 C 
ATOM      2  O   UNL     1       3.888  17.209  19.430  0.00  0.00    +0.000 OA
ATOM      3  N   UNL     1       2.891  15.619  20.824  0.00  0.00    +0.000 N 
ATOM      4  C   UNL     1       1.527  16.123  20.571  0.00  0.00    +0.000 C 
ATOM      5  C   UNL     1       0.675  14.859  20.282  0.00  0.00    +0.000 C 
ATOM      6  C   UNL     1       1.735  13.879  19.792  0.00  0.00    +0.000 C 
ATOM      7  C   UNL     1       2.840  14.160  20.822  0.00  0.00    +0.000 C 
ATOM      8  C   UNL     1       2.229  14.298  18.377  0.00  0.00    +0.000 C 
ATOM      9  O   UNL     1       2.100  15.369  17.810  0.00  0.00    +0.000 OA
ATOM     10  N   UNL     1       2.769  13.177  17.776  0.00  0.00    +0.000 N 
ATOM     11  C   UNL     1       2.212  12.065  18.391  0.00  0.00    +0.000 A 
ATOM     12  C   UNL     1       2.194  10.814  17.826  0.00  0.00    +0.000 A 
ATOM     13  C   UNL     1       1.461   9.842  18.493  0.00  0.00    +0.000 A 
ATOM     14  C   UNL     1       0.828  10.142  19.716  0.00  0.00    +0.000 A 
ATOM     15  C   UNL     1       0.872  11.433  20.278  0.00  0.00    +0.000 A 
ATOM     16  C   UNL     1       1.531  12.412  19.567  0.00  0.00    +0.000 A 
ATOM     17  H   UNL     1       3.780  13.179  17.695  0.00  0.00    +0.000 HD
ENDROOT
BRANCH   1  23
ATOM     18  C   UNL     1       9.815  13.888  21.957  0.00  0.00    +0.000 C 
ATOM     19  N   UNL     1       9.028  13.749  20.734  0.00  0.00    +0.000 N 
ATOM     20  C   UNL     1       7.810  14.469  20.670  0.00  0.00    +0.000 A 
ATOM     21  C   UNL     1       7.010  14.684  21.802  0.00  0.00    +0.000 A 
ATOM     22  C   UNL     1       5.743  15.272  21.668  0.00  0.00    +0.000 A 
ATOM     23  C   UNL     1       5.315  15.669  20.410  0.00  0.00    +0.000 A 
ATOM     24  C   UNL     1       6.167  15.472  19.338  0.00  0.00    +0.000 A 
ATOM     25  N   UNL     1       7.389  14.913  19.459  0.00  0.00    +0.000 NA
BRANCH  19  26
ATOM     26  C   UNL     1       9.575  13.001  19.661  0.00  0.00    +0.000 A 
ATOM     27  C   UNL     1      10.641  13.521  18.896  0.00  0.00    +0.000 A 
ATOM     28  C   UNL     1      11.192  12.825  17.816  0.00  0.00    +0.000 A 
ATOM     29  C   UNL     1      10.690  11.571  17.472  0.00  0.00    +0.000 A 
ATOM     30  C   UNL     1       9.647  11.020  18.206  0.00  0.00    +0.000 A 
ATOM     31  C   UNL     1       9.094  11.731  19.291  0.00  0.00    +0.000 A 
ENDBRANCH  19  26
ENDBRANCH   1  23
TORSDOF 2
ENDMDL
