MODEL 1
REMARK VINA RESULT:      -8.6      0.000      0.000
REMARK  Name = 
REMARK  5 active torsions:
REMARK  status: ('A' for Active; 'I' for Inactive)
REMARK    1  A    between atoms: C_1  and  C_2
REMARK    2  A    between atoms: C_4  and  C_5
REMARK    3  A    between atoms: C_5  and  N_6
REMARK    4  A    between atoms: C_10  and  C_11
REMARK    5  A    between atoms: C_14  and  C_15
REMARK                            x       y       z     vdW  Elec       q    Type
REMARK                         _______ _______ _______ _____ _____    ______ ____
ROOT
ATOM      1  N   UNL     1       3.680   3.792  18.389  0.00  0.00    +0.000 NA
ATOM      2  C   UNL     1       3.548   2.660  19.310  0.00  0.00    +0.000 C 
ATOM      3  C   UNL     1       2.111   2.182  19.234  0.00  0.00    +0.000 C 
ATOM      4  C   UNL     1       1.313   3.414  18.867  0.00  0.00    +0.000 C 
ATOM      5  C   UNL     1       2.318   4.375  18.231  0.00  0.00    +0.000 C 
ENDROOT
BRANCH   5   6
ATOM      6  C   UNL     1       2.250   5.755  18.831  0.00  0.00    +0.000 A 
ATOM      7  N   UNL     1       2.639   6.831  18.132  0.00  0.00    +0.000 NA
ATOM      8  O   UNL     1       2.380   7.886  18.998  0.00  0.00    +0.000 OA
ATOM      9  C   UNL     1       1.843   7.351  20.138  0.00  0.00    +0.000 A 
ATOM     10  N   UNL     1       1.728   6.042  20.079  0.00  0.00    +0.000 NA
BRANCH   9  11
ATOM     11  C   UNL     1       1.463   8.231  21.319  0.00  0.00    +0.000 C 
ATOM     12  C   UNL     1       0.012   8.632  21.492  0.00  0.00    +0.000 C 
ATOM     13  C   UNL     1       1.020   9.663  21.118  0.00  0.00    +0.000 C 
ENDBRANCH   9  11
ENDBRANCH   5   6
BRANCH   1  14
ATOM     14  C   UNL     1       4.258   3.451  17.078  0.00  0.00    +0.000 C 
BRANCH  14  18
ATOM     15  C   UNL     1       7.752   6.892  18.151  0.00  0.00    +0.000 C 
ATOM     16  C   UNL     1       7.074   5.987  17.169  0.00  0.00    +0.000 A 
ATOM     17  C   UNL     1       6.026   5.164  17.554  0.00  0.00    +0.000 A 
ATOM     18  C   UNL     1       5.395   4.346  16.603  0.00  0.00    +0.000 A 
ATOM     19  C   UNL     1       5.899   4.346  15.274  0.00  0.00    +0.000 A 
ATOM     20  C   UNL     1       5.406   3.526  14.230  0.00  0.00    +0.000 A 
ATOM     21  C   UNL     1       5.974   3.547  12.958  0.00  0.00    +0.000 A 
ATOM     22  C   UNL     1       7.038   4.399  12.693  0.00  0.00    +0.000 A 
ATOM     23  C   UNL     1       7.523   5.224  13.709  0.00  0.00    +0.000 A 
ATOM     24  C   UNL     1       6.985   5.210  14.989  0.00  0.00    +0.000 A 
ATOM     25  N   UNL     1       7.545   6.017  15.906  0.00  0.00    +0.000 NA
ENDBRANCH  14  18
ENDBRANCH   1  14
TORSDOF 4
ENDMDL
MODEL 2
REMARK VINA RESULT:      -8.4      1.049      1.315
REMARK  Name = 
REMARK  5 active torsions:
REMARK  status: ('A' for Active; 'I' for Inactive)
REMARK    1  A    between atoms: C_1  and  C_2
REMARK    2  A    between atoms: C_4  and  C_5
REMARK    3  A    between atoms: C_5  and  N_6
REMARK    4  A    between atoms: C_10  and  C_11
REMARK    5  A    between atoms: C_14  and  C_15
REMARK                            x       y       z     vdW  Elec       q    Type
REMARK                         _______ _______ _______ _____ _____    ______ ____
ROOT
ATOM      1  N   UNL     1       3.676   3.647  17.995  0.00  0.00    +0.000 NA
ATOM      2  C   UNL     1       3.759   2.438  18.818  0.00  0.00    +0.000 C 
ATOM      3  C   UNL     1       2.375   1.817  18.849  0.00  0.00    +0.000 C 
ATOM      4  C   UNL     1       1.425   2.984  18.681  0.00  0.00    +0.000 C 
ATOM      5  C   UNL     1       2.255   4.094  18.034  0.00  0.00    +0.000 C 
ENDROOT
BRANCH   5   6
ATOM      6  C   UNL     1       2.122   5.406  18.761  0.00  0.00    +0.000 A 
ATOM      7  N   UNL     1       1.964   5.444  20.092  0.00  0.00    +0.000 NA
ATOM      8  O   UNL     1       1.932   6.805  20.371  0.00  0.00    +0.000 OA
ATOM      9  C   UNL     1       2.088   7.465  19.183  0.00  0.00    +0.000 A 
ATOM     10  N   UNL     1       2.226   6.648  18.162  0.00  0.00    +0.000 NA
BRANCH   9  11
ATOM     11  C   UNL     1       2.074   8.985  19.118  0.00  0.00    +0.000 C 
ATOM     12  C   UNL     1       0.748   9.694  18.924  0.00  0.00    +0.000 C 
ATOM     13  C   UNL     1       1.758   9.712  17.830  0.00  0.00    +0.000 C 
ENDBRANCH   9  11
ENDBRANCH   5   6
BRANCH   1  14
ATOM     14  C   UNL     1       4.132   3.475  16.606  0.00  0.00    +0.000 C 
BRANCH  14  18
ATOM     15  C   UNL     1       7.702   6.774  17.865  0.00  0.00    +0.000 C 
ATOM     16  C   UNL     1       7.041   5.896  16.848  0.00  0.00    +0.000 A 
ATOM     17  C   UNL     1       5.941   5.116  17.176  0.00  0.00    +0.000 A 
ATOM     18  C   UNL     1       5.329   4.323  16.192  0.00  0.00    +0.000 A 
ATOM     19  C   UNL     1       5.902   4.301  14.893  0.00  0.00    +0.000 A 
ATOM     20  C   UNL     1       5.432   3.500  13.823  0.00  0.00    +0.000 A 
ATOM     21  C   UNL     1       6.068   3.496  12.583  0.00  0.00    +0.000 A 
ATOM     22  C   UNL     1       7.178   4.304  12.375  0.00  0.00    +0.000 A 
ATOM     23  C   UNL     1       7.641   5.110  13.416  0.00  0.00    +0.000 A 
ATOM     24  C   UNL     1       7.035   5.120  14.666  0.00  0.00    +0.000 A 
ATOM     25  N   UNL     1       7.579   5.904  15.612  0.00  0.00    +0.000 NA
ENDBRANCH  14  18
ENDBRANCH   1  14
TORSDOF 4
ENDMDL
MODEL 3
REMARK VINA RESULT:      -8.3      2.139      7.395
REMARK  Name = 
REMARK  5 active torsions:
REMARK  status: ('A' for Active; 'I' for Inactive)
REMARK    1  A    between atoms: C_1  and  C_2
REMARK    2  A    between atoms: C_4  and  C_5
REMARK    3  A    between atoms: C_5  and  N_6
REMARK    4  A    between atoms: C_10  and  C_11
REMARK    5  A    between atoms: C_14  and  C_15
REMARK                            x       y       z     vdW  Elec       q    Type
REMARK                         _______ _______ _______ _____ _____    ______ ____
ROOT
ATOM      1  N   UNL     1       4.713   4.147  17.188  0.00  0.00    +0.000 NA
ATOM      2  C   UNL     1       5.405   3.978  18.469  0.00  0.00    +0.000 C 
ATOM      3  C   UNL     1       5.832   5.357  18.935  0.00  0.00    +0.000 C 
ATOM      4  C   UNL     1       6.030   6.151  17.662  0.00  0.00    +0.000 C 
ATOM      5  C   UNL     1       5.215   5.418  16.595  0.00  0.00    +0.000 C 
ENDROOT
BRANCH   5   6
ATOM      6  C   UNL     1       6.015   5.151  15.348  0.00  0.00    +0.000 A 
ATOM      7  N   UNL     1       7.263   5.625  15.213  0.00  0.00    +0.000 NA
ATOM      8  O   UNL     1       7.661   5.131  13.977  0.00  0.00    +0.000 OA
ATOM      9  C   UNL     1       6.621   4.391  13.484  0.00  0.00    +0.000 A 
ATOM     10  N   UNL     1       5.589   4.358  14.298  0.00  0.00    +0.000 NA
BRANCH   9  11
ATOM     11  C   UNL     1       6.708   3.720  12.121  0.00  0.00    +0.000 C 
ATOM     12  C   UNL     1       5.426   3.278  11.442  0.00  0.00    +0.000 C 
ATOM     13  C   UNL     1       6.383   2.253  11.946  0.00  0.00    +0.000 C 
ENDBRANCH   9  11
ENDBRANCH   5   6
BRANCH   1  14
ATOM     14  C   UNL     1       3.244   4.159  17.283  0.00  0.00    +0.000 C 
BRANCH  14  18
ATOM     15  C   UNL     1       1.860   2.677  21.876  0.00  0.00    +0.000 C 
ATOM     16  C   UNL     1       2.036   3.758  20.855  0.00  0.00    +0.000 A 
ATOM     17  C   UNL     1       2.542   3.480  19.593  0.00  0.00    +0.000 A 
ATOM     18  C   UNL     1       2.671   4.513  18.649  0.00  0.00    +0.000 A 
ATOM     19  C   UNL     1       2.330   5.833  19.046  0.00  0.00    +0.000 A 
ATOM     20  C   UNL     1       2.472   6.979  18.225  0.00  0.00    +0.000 A 
ATOM     21  C   UNL     1       2.157   8.253  18.692  0.00  0.00    +0.000 A 
ATOM     22  C   UNL     1       1.677   8.413  19.986  0.00  0.00    +0.000 A 
ATOM     23  C   UNL     1       1.518   7.291  20.800  0.00  0.00    +0.000 A 
ATOM     24  C   UNL     1       1.841   6.013  20.363  0.00  0.00    +0.000 A 
ATOM     25  N   UNL     1       1.685   5.003  21.235  0.00  0.00    +0.000 NA
ENDBRANCH  14  18
ENDBRANCH   1  14
TORSDOF 4
ENDMDL
MODEL 4
REMARK VINA RESULT:      -8.3      2.398      6.772
REMARK  Name = 
REMARK  5 active torsions:
REMARK  status: ('A' for Active; 'I' for Inactive)
REMARK    1  A    between atoms: C_1  and  C_2
REMARK    2  A    between atoms: C_4  and  C_5
REMARK    3  A    between atoms: C_5  and  N_6
REMARK    4  A    between atoms: C_10  and  C_11
REMARK    5  A    between atoms: C_14  and  C_15
REMARK                            x       y       z     vdW  Elec       q    Type
REMARK                         _______ _______ _______ _____ _____    ______ ____
ROOT
ATOM      1  N   UNL     1       6.950   5.366  18.392  0.00  0.00    +0.000 NA
ATOM      2  C   UNL     1       8.205   5.949  18.876  0.00  0.00    +0.000 C 
ATOM      3  C   UNL     1       8.178   7.426  18.532  0.00  0.00    +0.000 C 
ATOM      4  C   UNL     1       7.316   7.518  17.292  0.00  0.00    +0.000 C 
ATOM      5  C   UNL     1       6.467   6.245  17.291  0.00  0.00    +0.000 C 
ENDROOT
BRANCH   5   6
ATOM      6  C   UNL     1       6.513   5.527  15.968  0.00  0.00    +0.000 A 
ATOM      7  N   UNL     1       7.584   5.626  15.166  0.00  0.00    +0.000 NA
ATOM      8  O   UNL     1       7.261   4.798  14.098  0.00  0.00    +0.000 OA
ATOM      9  C   UNL     1       6.029   4.263  14.360  0.00  0.00    +0.000 A 
ATOM     10  N   UNL     1       5.532   4.668  15.509  0.00  0.00    +0.000 NA
BRANCH   9  11
ATOM     11  C   UNL     1       5.353   3.322  13.374  0.00  0.00    +0.000 C 
ATOM     12  C   UNL     1       6.062   2.995  12.074  0.00  0.00    +0.000 C 
ATOM     13  C   UNL     1       4.824   3.823  12.048  0.00  0.00    +0.000 C 
ENDBRANCH   9  11
ENDBRANCH   5   6
BRANCH   1  14
ATOM     14  C   UNL     1       5.913   5.203  19.425  0.00  0.00    +0.000 C 
BRANCH  14  18
ATOM     15  C   UNL     1       2.107   8.103  17.904  0.00  0.00    +0.000 C 
ATOM     16  C   UNL     1       2.676   6.748  18.196  0.00  0.00    +0.000 A 
ATOM     17  C   UNL     1       3.978   6.598  18.651  0.00  0.00    +0.000 A 
ATOM     18  C   UNL     1       4.473   5.316  18.940  0.00  0.00    +0.000 A 
ATOM     19  C   UNL     1       3.631   4.199  18.697  0.00  0.00    +0.000 A 
ATOM     20  C   UNL     1       4.018   2.848  18.878  0.00  0.00    +0.000 A 
ATOM     21  C   UNL     1       3.154   1.797  18.580  0.00  0.00    +0.000 A 
ATOM     22  C   UNL     1       1.876   2.068  18.109  0.00  0.00    +0.000 A 
ATOM     23  C   UNL     1       1.477   3.394  17.940  0.00  0.00    +0.000 A 
ATOM     24  C   UNL     1       2.325   4.459  18.214  0.00  0.00    +0.000 A 
ATOM     25  N   UNL     1       1.857   5.698  17.985  0.00  0.00    +0.000 NA
ENDBRANCH  14  18
ENDBRANCH   1  14
TORSDOF 4
ENDMDL
MODEL 5
REMARK VINA RESULT:      -8.3      2.285      6.513
REMARK  Name = 
REMARK  5 active torsions:
REMARK  status: ('A' for Active; 'I' for Inactive)
REMARK    1  A    between atoms: C_1  and  C_2
REMARK    2  A    between atoms: C_4  and  C_5
REMARK    3  A    between atoms: C_5  and  N_6
REMARK    4  A    between atoms: C_10  and  C_11
REMARK    5  A    between atoms: C_14  and  C_15
REMARK                            x       y       z     vdW  Elec       q    Type
REMARK                         _______ _______ _______ _____ _____    ______ ____
ROOT
ATOM      1  N   UNL     1       5.301   5.566  16.239  0.00  0.00    +0.000 NA
ATOM      2  C   UNL     1       5.479   5.471  14.787  0.00  0.00    +0.000 C 
ATOM      3  C   UNL     1       6.592   4.473  14.533  0.00  0.00    +0.000 C 
ATOM      4  C   UNL     1       7.478   4.562  15.757  0.00  0.00    +0.000 C 
ATOM      5  C   UNL     1       6.595   5.158  16.855  0.00  0.00    +0.000 C 
ENDROOT
BRANCH   5   6
ATOM      6  C   UNL     1       7.252   6.323  17.548  0.00  0.00    +0.000 A 
ATOM      7  N   UNL     1       8.038   6.134  18.619  0.00  0.00    +0.000 NA
ATOM      8  O   UNL     1       8.477   7.417  18.923  0.00  0.00    +0.000 OA
ATOM      9  C   UNL     1       7.926   8.263  17.998  0.00  0.00    +0.000 A 
ATOM     10  N   UNL     1       7.175   7.635  17.119  0.00  0.00    +0.000 NA
BRANCH   9  11
ATOM     11  C   UNL     1       8.178   9.762  18.052  0.00  0.00    +0.000 C 
ATOM     12  C   UNL     1       9.576  10.276  17.768  0.00  0.00    +0.000 C 
ATOM     13  C   UNL     1       9.022  10.376  19.147  0.00  0.00    +0.000 C 
ENDBRANCH   9  11
ENDBRANCH   5   6
BRANCH   1  14
ATOM     14  C   UNL     1       4.191   4.760  16.773  0.00  0.00    +0.000 C 
BRANCH  14  18
ATOM     15  C   UNL     1       1.916   8.707  18.884  0.00  0.00    +0.000 C 
ATOM     16  C   UNL     1       2.353   7.275  18.935  0.00  0.00    +0.000 A 
ATOM     17  C   UNL     1       3.037   6.694  17.877  0.00  0.00    +0.000 A 
ATOM     18  C   UNL     1       3.455   5.356  17.967  0.00  0.00    +0.000 A 
ATOM     19  C   UNL     1       3.106   4.618  19.129  0.00  0.00    +0.000 A 
ATOM     20  C   UNL     1       3.402   3.247  19.328  0.00  0.00    +0.000 A 
ATOM     21  C   UNL     1       2.994   2.573  20.476  0.00  0.00    +0.000 A 
ATOM     22  C   UNL     1       2.294   3.255  21.463  0.00  0.00    +0.000 A 
ATOM     23  C   UNL     1       2.010   4.610  21.287  0.00  0.00    +0.000 A 
ATOM     24  C   UNL     1       2.391   5.300  20.144  0.00  0.00    +0.000 A 
ATOM     25  N   UNL     1       2.039   6.593  20.055  0.00  0.00    +0.000 NA
ENDBRANCH  14  18
ENDBRANCH   1  14
TORSDOF 4
ENDMDL
MODEL 6
REMARK VINA RESULT:      -8.2      1.051      1.138
REMARK  Name = 
REMARK  5 active torsions:
REMARK  status: ('A' for Active; 'I' for Inactive)
REMARK    1  A    between atoms: C_1  and  C_2
REMARK    2  A    between atoms: C_4  and  C_5
REMARK    3  A    between atoms: C_5  and  N_6
REMARK    4  A    between atoms: C_10  and  C_11
REMARK    5  A    between atoms: C_14  and  C_15
REMARK                            x       y       z     vdW  Elec       q    Type
REMARK                         _______ _______ _______ _____ _____    ______ ____
ROOT
ATOM      1  N   UNL     1       3.307   3.952  19.453  0.00  0.00    +0.000 NA
ATOM      2  C   UNL     1       3.068   2.924  20.469  0.00  0.00    +0.000 C 
ATOM      3  C   UNL     1       1.618   2.497  20.347  0.00  0.00    +0.000 C 
ATOM      4  C   UNL     1       0.900   3.717  19.811  0.00  0.00    +0.000 C 
ATOM      5  C   UNL     1       1.985   4.570  19.151  0.00  0.00    +0.000 C 
ENDROOT
BRANCH   5   6
ATOM      6  C   UNL     1       1.943   6.004  19.609  0.00  0.00    +0.000 A 
ATOM      7  N   UNL     1       2.352   6.997  18.805  0.00  0.00    +0.000 NA
ATOM      8  O   UNL     1       2.113   8.138  19.561  0.00  0.00    +0.000 OA
ATOM      9  C   UNL     1       1.568   7.730  20.748  0.00  0.00    +0.000 A 
ATOM     10  N   UNL     1       1.427   6.425  20.821  0.00  0.00    +0.000 NA
BRANCH   9  11
ATOM     11  C   UNL     1       1.205   8.732  21.834  0.00  0.00    +0.000 C 
ATOM     12  C   UNL     1      -0.240   9.174  21.965  0.00  0.00    +0.000 C 
ATOM     13  C   UNL     1       0.786  10.144  21.489  0.00  0.00    +0.000 C 
ENDBRANCH   9  11
ENDBRANCH   5   6
BRANCH   1  14
ATOM     14  C   UNL     1       3.948   3.460  18.223  0.00  0.00    +0.000 C 
BRANCH  14  18
ATOM     15  C   UNL     1       8.121   5.923  19.535  0.00  0.00    +0.000 C 
ATOM     16  C   UNL     1       7.225   5.348  18.481  0.00  0.00    +0.000 A 
ATOM     17  C   UNL     1       6.051   4.691  18.816  0.00  0.00    +0.000 A 
ATOM     18  C   UNL     1       5.220   4.184  17.803  0.00  0.00    +0.000 A 
ATOM     19  C   UNL     1       5.648   4.313  16.455  0.00  0.00    +0.000 A 
ATOM     20  C   UNL     1       4.949   3.794  15.338  0.00  0.00    +0.000 A 
ATOM     21  C   UNL     1       5.447   3.921  14.043  0.00  0.00    +0.000 A 
ATOM     22  C   UNL     1       6.649   4.583  13.830  0.00  0.00    +0.000 A 
ATOM     23  C   UNL     1       7.341   5.113  14.919  0.00  0.00    +0.000 A 
ATOM     24  C   UNL     1       6.873   4.986  16.221  0.00  0.00    +0.000 A 
ATOM     25  N   UNL     1       7.631   5.500  17.205  0.00  0.00    +0.000 NA
ENDBRANCH  14  18
ENDBRANCH   1  14
TORSDOF 4
ENDMDL
MODEL 7
REMARK VINA RESULT:      -8.2      0.987      1.296
REMARK  Name = 
REMARK  5 active torsions:
REMARK  status: ('A' for Active; 'I' for Inactive)
REMARK    1  A    between atoms: C_1  and  C_2
REMARK    2  A    between atoms: C_4  and  C_5
REMARK    3  A    between atoms: C_5  and  N_6
REMARK    4  A    between atoms: C_10  and  C_11
REMARK    5  A    between atoms: C_14  and  C_15
REMARK                            x       y       z     vdW  Elec       q    Type
REMARK                         _______ _______ _______ _____ _____    ______ ____
ROOT
ATOM      1  N   UNL     1       3.800   4.414  19.400  0.00  0.00    +0.000 NA
ATOM      2  C   UNL     1       2.910   3.264  19.580  0.00  0.00    +0.000 C 
ATOM      3  C   UNL     1       2.216   3.018  18.254  0.00  0.00    +0.000 C 
ATOM      4  C   UNL     1       2.153   4.379  17.593  0.00  0.00    +0.000 C 
ATOM      5  C   UNL     1       3.247   5.209  18.267  0.00  0.00    +0.000 C 
ENDROOT
BRANCH   5   6
ATOM      6  C   UNL     1       2.741   6.544  18.744  0.00  0.00    +0.000 A 
ATOM      7  N   UNL     1       2.750   7.614  17.935  0.00  0.00    +0.000 NA
ATOM      8  O   UNL     1       2.171   8.609  18.714  0.00  0.00    +0.000 OA
ATOM      9  C   UNL     1       1.852   8.044  19.919  0.00  0.00    +0.000 A 
ATOM     10  N   UNL     1       2.168   6.769  19.982  0.00  0.00    +0.000 NA
BRANCH   9  11
ATOM     11  C   UNL     1       1.220   8.867  21.032  0.00  0.00    +0.000 C 
ATOM     12  C   UNL     1      -0.163   8.488  21.523  0.00  0.00    +0.000 C 
ATOM     13  C   UNL     1       0.026   9.757  20.768  0.00  0.00    +0.000 C 
ENDBRANCH   9  11
ENDBRANCH   5   6
BRANCH   1  14
ATOM     14  C   UNL     1       5.209   4.065  19.154  0.00  0.00    +0.000 C 
BRANCH  14  18
ATOM     15  C   UNL     1       8.075   8.070  18.177  0.00  0.00    +0.000 C 
ATOM     16  C   UNL     1       7.332   6.856  17.712  0.00  0.00    +0.000 A 
ATOM     17  C   UNL     1       6.645   6.046  18.604  0.00  0.00    +0.000 A 
ATOM     18  C   UNL     1       5.937   4.929  18.132  0.00  0.00    +0.000 A 
ATOM     19  C   UNL     1       6.001   4.629  16.745  0.00  0.00    +0.000 A 
ATOM     20  C   UNL     1       5.394   3.501  16.141  0.00  0.00    +0.000 A 
ATOM     21  C   UNL     1       5.531   3.244  14.778  0.00  0.00    +0.000 A 
ATOM     22  C   UNL     1       6.263   4.116  13.983  0.00  0.00    +0.000 A 
ATOM     23  C   UNL     1       6.852   5.239  14.563  0.00  0.00    +0.000 A 
ATOM     24  C   UNL     1       6.745   5.509  15.921  0.00  0.00    +0.000 A 
ATOM     25  N   UNL     1       7.379   6.597  16.389  0.00  0.00    +0.000 NA
ENDBRANCH  14  18
ENDBRANCH   1  14
TORSDOF 4
ENDMDL
MODEL 8
REMARK VINA RESULT:      -8.1      2.162      7.291
REMARK  Name = 
REMARK  5 active torsions:
REMARK  status: ('A' for Active; 'I' for Inactive)
REMARK    1  A    between atoms: C_1  and  C_2
REMARK    2  A    between atoms: C_4  and  C_5
REMARK    3  A    between atoms: C_5  and  N_6
REMARK    4  A    between atoms: C_10  and  C_11
REMARK    5  A    between atoms: C_14  and  C_15
REMARK                            x       y       z     vdW  Elec       q    Type
REMARK                         _______ _______ _______ _____ _____    ______ ____
ROOT
ATOM      1  N   UNL     1       5.109   5.600  17.304  0.00  0.00    +0.000 NA
ATOM      2  C   UNL     1       5.831   5.213  18.520  0.00  0.00    +0.000 C 
ATOM      3  C   UNL     1       7.061   6.095  18.614  0.00  0.00    +0.000 C 
ATOM      4  C   UNL     1       7.404   6.434  17.179  0.00  0.00    +0.000 C 
ATOM      5  C   UNL     1       6.112   6.215  16.390  0.00  0.00    +0.000 C 
ENDROOT
BRANCH   5   6
ATOM      6  C   UNL     1       6.324   5.359  15.169  0.00  0.00    +0.000 A 
ATOM      7  N   UNL     1       7.464   5.433  14.465  0.00  0.00    +0.000 NA
ATOM      8  O   UNL     1       7.289   4.474  13.474  0.00  0.00    +0.000 OA
ATOM      9  C   UNL     1       6.064   3.900  13.679  0.00  0.00    +0.000 A 
ATOM     10  N   UNL     1       5.436   4.399  14.721  0.00  0.00    +0.000 NA
BRANCH   9  11
ATOM     11  C   UNL     1       5.535   2.819  12.748  0.00  0.00    +0.000 C 
ATOM     12  C   UNL     1       6.157   2.671  11.374  0.00  0.00    +0.000 C 
ATOM     13  C   UNL     1       4.759   3.170  11.498  0.00  0.00    +0.000 C 
ENDBRANCH   9  11
ENDBRANCH   5   6
BRANCH   1  14
ATOM     14  C   UNL     1       3.976   6.513  17.529  0.00  0.00    +0.000 C 
BRANCH  14  18
ATOM     15  C   UNL     1       1.186   7.757  21.513  0.00  0.00    +0.000 C 
ATOM     16  C   UNL     1       1.652   6.742  20.515  0.00  0.00    +0.000 A 
ATOM     17  C   UNL     1       2.556   7.075  19.518  0.00  0.00    +0.000 A 
ATOM     18  C   UNL     1       2.992   6.093  18.613  0.00  0.00    +0.000 A 
ATOM     19  C   UNL     1       2.438   4.790  18.717  0.00  0.00    +0.000 A 
ATOM     20  C   UNL     1       2.734   3.721  17.836  0.00  0.00    +0.000 A 
ATOM     21  C   UNL     1       2.122   2.476  17.970  0.00  0.00    +0.000 A 
ATOM     22  C   UNL     1       1.213   2.263  18.998  0.00  0.00    +0.000 A 
ATOM     23  C   UNL     1       0.925   3.303  19.883  0.00  0.00    +0.000 A 
ATOM     24  C   UNL     1       1.508   4.557  19.760  0.00  0.00    +0.000 A 
ATOM     25  N   UNL     1       1.138   5.502  20.641  0.00  0.00    +0.000 NA
ENDBRANCH  14  18
ENDBRANCH   1  14
TORSDOF 4
ENDMDL
MODEL 9
REMARK VINA RESULT:      -8.0      1.392      1.779
REMARK  Name = 
REMARK  5 active torsions:
REMARK  status: ('A' for Active; 'I' for Inactive)
REMARK    1  A    between atoms: C_1  and  C_2
REMARK    2  A    between atoms: C_4  and  C_5
REMARK    3  A    between atoms: C_5  and  N_6
REMARK    4  A    between atoms: C_10  and  C_11
REMARK    5  A    between atoms: C_14  and  C_15
REMARK                            x       y       z     vdW  Elec       q    Type
REMARK                         _______ _______ _______ _____ _____    ______ ____
ROOT
ATOM      1  N   UNL     1       3.807   4.148  19.235  0.00  0.00    +0.000 NA
ATOM      2  C   UNL     1       2.924   2.999  19.455  0.00  0.00    +0.000 C 
ATOM      3  C   UNL     1       2.223   2.710  18.141  0.00  0.00    +0.000 C 
ATOM      4  C   UNL     1       2.149   4.050  17.440  0.00  0.00    +0.000 C 
ATOM      5  C   UNL     1       3.243   4.905  18.082  0.00  0.00    +0.000 C 
ENDROOT
BRANCH   5   6
ATOM      6  C   UNL     1       2.733   6.252  18.521  0.00  0.00    +0.000 A 
ATOM      7  N   UNL     1       2.561   6.535  19.821  0.00  0.00    +0.000 NA
ATOM      8  O   UNL     1       2.136   7.858  19.807  0.00  0.00    +0.000 OA
ATOM      9  C   UNL     1       2.104   8.258  18.499  0.00  0.00    +0.000 A 
ATOM     10  N   UNL     1       2.478   7.310  17.668  0.00  0.00    +0.000 NA
BRANCH   9  11
ATOM     11  C   UNL     1       1.652   9.659  18.115  0.00  0.00    +0.000 C 
ATOM     12  C   UNL     1       1.042  10.547  19.182  0.00  0.00    +0.000 C 
ATOM     13  C   UNL     1       0.185  10.028  18.079  0.00  0.00    +0.000 C 
ENDBRANCH   9  11
ENDBRANCH   5   6
BRANCH   1  14
ATOM     14  C   UNL     1       5.216   3.798  18.992  0.00  0.00    +0.000 C 
BRANCH  14  18
ATOM     15  C   UNL     1       8.148   7.835  18.434  0.00  0.00    +0.000 C 
ATOM     16  C   UNL     1       7.406   6.674  17.847  0.00  0.00    +0.000 A 
ATOM     17  C   UNL     1       6.686   5.801  18.650  0.00  0.00    +0.000 A 
ATOM     18  C   UNL     1       5.981   4.736  18.066  0.00  0.00    +0.000 A 
ATOM     19  C   UNL     1       6.079   4.554  16.661  0.00  0.00    +0.000 A 
ATOM     20  C   UNL     1       5.478   3.489  15.947  0.00  0.00    +0.000 A 
ATOM     21  C   UNL     1       5.649   3.346  14.571  0.00  0.00    +0.000 A 
ATOM     22  C   UNL     1       6.412   4.272  13.873  0.00  0.00    +0.000 A 
ATOM     23  C   UNL     1       6.996   5.335  14.561  0.00  0.00    +0.000 A 
ATOM     24  C   UNL     1       6.855   5.490  15.934  0.00  0.00    +0.000 A 
ATOM     25  N   UNL     1       7.487   6.527  16.509  0.00  0.00    +0.000 NA
ENDBRANCH  14  18
ENDBRANCH   1  14
TORSDOF 4
ENDMDL
