MODEL 1
REMARK VINA RESULT:      -8.1      0.000      0.000
REMARK  Name = 
REMARK  4 active torsions:
REMARK  status: ('A' for Active; 'I' for Inactive)
REMARK    1  A    between atoms: C_2  and  C_3
REMARK    2  A    between atoms: C_3  and  N_4
REMARK    3  A    between atoms: N_18  and  C_19
REMARK    4  A    between atoms: C_24  and  N_25
REMARK                            x       y       z     vdW  Elec       q    Type
REMARK                         _______ _______ _______ _____ _____    ______ ____
ROOT
ATOM      1  C   UNL     1       3.258   4.243  20.382  0.00  0.00    +0.000 C 
ENDROOT
BRANCH   1   2
ATOM      2  N   UNL     1       3.838   4.174  19.044  0.00  0.00    +0.000 N 
ATOM      3  C   UNL     1       3.131   3.600  17.989  0.00  0.00    +0.000 A 
ATOM      4  N   UNL     1       3.509   3.495  16.748  0.00  0.00    +0.000 NA
ATOM      5  C   UNL     1       4.753   4.084  16.508  0.00  0.00    +0.000 A 
ATOM      6  C   UNL     1       5.480   4.713  17.477  0.00  0.00    +0.000 A 
ATOM      7  O   UNL     1       6.622   5.241  16.961  0.00  0.00    +0.000 OA
ATOM      8  C   UNL     1       6.609   4.921  15.627  0.00  0.00    +0.000 A 
ATOM      9  C   UNL     1       7.586   5.279  14.700  0.00  0.00    +0.000 A 
ATOM     10  C   UNL     1       7.401   4.824  13.388  0.00  0.00    +0.000 A 
ATOM     11  C   UNL     1       6.287   4.056  13.036  0.00  0.00    +0.000 A 
ATOM     12  C   UNL     1       5.305   3.730  13.982  0.00  0.00    +0.000 A 
ATOM     13  C   UNL     1       5.471   4.175  15.304  0.00  0.00    +0.000 A 
ATOM     14  C   UNL     1       5.067   4.809  18.839  0.00  0.00    +0.000 A 
ATOM     15  O   UNL     1       5.682   5.378  19.739  0.00  0.00    +0.000 OA
ENDBRANCH   1   2
BRANCH   1  17
ATOM     16  O   UNL     1       0.969   4.954  20.528  0.00  0.00    +0.000 OA
ATOM     17  C   UNL     1       2.142   5.297  20.402  0.00  0.00    +0.000 C 
ATOM     18  N   UNL     1       2.586   6.611  20.325  0.00  0.00    +0.000 N 
ATOM     19  H   UNL     1       3.525   6.758  19.949  0.00  0.00    +0.000 HD
BRANCH  18  20
ATOM     20  C   UNL     1       1.769   7.785  20.398  0.00  0.00    +0.000 A 
ATOM     21  C   UNL     1       1.158   8.163  21.606  0.00  0.00    +0.000 A 
ATOM     22  C   UNL     1       0.240   9.220  21.667  0.00  0.00    +0.000 A 
ATOM     23  C   UNL     1      -0.044   9.969  20.534  0.00  0.00    +0.000 A 
ATOM     24  C   UNL     1       0.622   9.686  19.343  0.00  0.00    +0.000 A 
ATOM     25  C   UNL     1       1.525   8.604  19.270  0.00  0.00    +0.000 A 
BRANCH  25  26
ATOM     26  N   UNL     1       2.184   8.357  17.976  0.00  0.00    +0.000 N 
ATOM     27  O   UNL     1       2.435   9.330  17.251  0.00  0.00    +0.000 OA
ATOM     28  O   UNL     1       2.431   7.178  17.664  0.00  0.00    +0.000 OA
ENDBRANCH  25  26
ENDBRANCH  18  20
ENDBRANCH   1  17
TORSDOF 4
ENDMDL
MODEL 2
REMARK VINA RESULT:      -7.9      1.020      1.267
REMARK  Name = 
REMARK  4 active torsions:
REMARK  status: ('A' for Active; 'I' for Inactive)
REMARK    1  A    between atoms: C_2  and  C_3
REMARK    2  A    between atoms: C_3  and  N_4
REMARK    3  A    between atoms: N_18  and  C_19
REMARK    4  A    between atoms: C_24  and  N_25
REMARK                            x       y       z     vdW  Elec       q    Type
REMARK                         _______ _______ _______ _____ _____    ______ ____
ROOT
ATOM      1  C   UNL     1       4.322   5.217  19.638  0.00  0.00    +0.000 C 
ENDROOT
BRANCH   1   2
ATOM      2  N   UNL     1       4.708   4.900  18.266  0.00  0.00    +0.000 N 
ATOM      3  C   UNL     1       3.882   4.128  17.452  0.00  0.00    +0.000 A 
ATOM      4  N   UNL     1       4.084   3.791  16.211  0.00  0.00    +0.000 NA
ATOM      5  C   UNL     1       5.257   4.339  15.685  0.00  0.00    +0.000 A 
ATOM      6  C   UNL     1       6.089   5.149  16.402  0.00  0.00    +0.000 A 
ATOM      7  O   UNL     1       7.125   5.582  15.635  0.00  0.00    +0.000 OA
ATOM      8  C   UNL     1       6.935   5.013  14.401  0.00  0.00    +0.000 A 
ATOM      9  C   UNL     1       7.756   5.199  13.291  0.00  0.00    +0.000 A 
ATOM     10  C   UNL     1       7.405   4.500  12.128  0.00  0.00    +0.000 A 
ATOM     11  C   UNL     1       6.284   3.666  12.093  0.00  0.00    +0.000 A 
ATOM     12  C   UNL     1       5.460   3.515  13.217  0.00  0.00    +0.000 A 
ATOM     13  C   UNL     1       5.793   4.207  14.393  0.00  0.00    +0.000 A 
ATOM     14  C   UNL     1       5.870   5.499  17.768  0.00  0.00    +0.000 A 
ATOM     15  O   UNL     1       6.583   6.236  18.446  0.00  0.00    +0.000 OA
ENDBRANCH   1   2
BRANCH   1  17
ATOM     16  O   UNL     1       1.928   5.244  19.445  0.00  0.00    +0.000 OA
ATOM     17  C   UNL     1       2.947   5.902  19.637  0.00  0.00    +0.000 C 
ATOM     18  N   UNL     1       2.979   7.261  19.919  0.00  0.00    +0.000 N 
ATOM     19  H   UNL     1       3.873   7.739  19.783  0.00  0.00    +0.000 HD
BRANCH  18  20
ATOM     20  C   UNL     1       1.844   8.124  20.055  0.00  0.00    +0.000 A 
ATOM     21  C   UNL     1       1.045   8.085  21.210  0.00  0.00    +0.000 A 
ATOM     22  C   UNL     1      -0.151   8.809  21.304  0.00  0.00    +0.000 A 
ATOM     23  C   UNL     1      -0.547   9.644  20.268  0.00  0.00    +0.000 A 
ATOM     24  C   UNL     1       0.274   9.785  19.151  0.00  0.00    +0.000 A 
ATOM     25  C   UNL     1       1.464   9.034  19.040  0.00  0.00    +0.000 A 
BRANCH  25  26
ATOM     26  N   UNL     1       2.276   9.226  17.827  0.00  0.00    +0.000 N 
ATOM     27  O   UNL     1       2.660   8.220  17.214  0.00  0.00    +0.000 OA
ATOM     28  O   UNL     1       2.559  10.392  17.494  0.00  0.00    +0.000 OA
ENDBRANCH  25  26
ENDBRANCH  18  20
ENDBRANCH   1  17
TORSDOF 4
ENDMDL
MODEL 3
REMARK VINA RESULT:      -7.6      3.722      5.954
REMARK  Name = 
REMARK  4 active torsions:
REMARK  status: ('A' for Active; 'I' for Inactive)
REMARK    1  A    between atoms: C_2  and  C_3
REMARK    2  A    between atoms: C_3  and  N_4
REMARK    3  A    between atoms: N_18  and  C_19
REMARK    4  A    between atoms: C_24  and  N_25
REMARK                            x       y       z     vdW  Elec       q    Type
REMARK                         _______ _______ _______ _____ _____    ______ ____
ROOT
ATOM      1  C   UNL     1       0.825  10.406  20.059  0.00  0.00    +0.000 C 
ENDROOT
BRANCH   1   2
ATOM      2  N   UNL     1       1.417   9.161  19.579  0.00  0.00    +0.000 N 
ATOM      3  C   UNL     1       1.993   9.086  18.313  0.00  0.00    +0.000 A 
ATOM      4  N   UNL     1       2.576   8.058  17.768  0.00  0.00    +0.000 NA
ATOM      5  C   UNL     1       2.636   6.953  18.622  0.00  0.00    +0.000 A 
ATOM      6  C   UNL     1       2.143   6.966  19.894  0.00  0.00    +0.000 A 
ATOM      7  O   UNL     1       2.379   5.782  20.519  0.00  0.00    +0.000 OA
ATOM      8  C   UNL     1       3.032   5.002  19.599  0.00  0.00    +0.000 A 
ATOM      9  C   UNL     1       3.485   3.702  19.816  0.00  0.00    +0.000 A 
ATOM     10  C   UNL     1       4.103   3.064  18.733  0.00  0.00    +0.000 A 
ATOM     11  C   UNL     1       4.257   3.709  17.502  0.00  0.00    +0.000 A 
ATOM     12  C   UNL     1       3.815   5.025  17.315  0.00  0.00    +0.000 A 
ATOM     13  C   UNL     1       3.192   5.684  18.389  0.00  0.00    +0.000 A 
ATOM     14  C   UNL     1       1.489   8.092  20.479  0.00  0.00    +0.000 A 
ATOM     15  O   UNL     1       1.045   8.152  21.624  0.00  0.00    +0.000 OA
ENDBRANCH   1   2
BRANCH   1  17
ATOM     16  O   UNL     1       0.193  11.935  18.318  0.00  0.00    +0.000 OA
ATOM     17  C   UNL     1      -0.131  10.962  18.994  0.00  0.00    +0.000 C 
ATOM     18  N   UNL     1      -1.313  10.247  18.849  0.00  0.00    +0.000 N 
ATOM     19  H   UNL     1      -1.590   9.651  19.633  0.00  0.00    +0.000 HD
BRANCH  18  20
ATOM     20  C   UNL     1      -2.341  10.499  17.885  0.00  0.00    +0.000 A 
ATOM     21  C   UNL     1      -2.334   9.851  16.638  0.00  0.00    +0.000 A 
ATOM     22  C   UNL     1      -3.242  10.190  15.627  0.00  0.00    +0.000 A 
ATOM     23  C   UNL     1      -4.225  11.143  15.857  0.00  0.00    +0.000 A 
ATOM     24  C   UNL     1      -4.325  11.732  17.116  0.00  0.00    +0.000 A 
ATOM     25  C   UNL     1      -3.394  11.414  18.129  0.00  0.00    +0.000 A 
BRANCH  25  26
ATOM     26  N   UNL     1      -3.554  12.082  19.431  0.00  0.00    +0.000 N 
ATOM     27  O   UNL     1      -4.673  12.069  19.962  0.00  0.00    +0.000 OA
ATOM     28  O   UNL     1      -2.561  12.651  19.920  0.00  0.00    +0.000 OA
ENDBRANCH  25  26
ENDBRANCH  18  20
ENDBRANCH   1  17
TORSDOF 4
ENDMDL
MODEL 4
REMARK VINA RESULT:      -7.5      3.266      7.797
REMARK  Name = 
REMARK  4 active torsions:
REMARK  status: ('A' for Active; 'I' for Inactive)
REMARK    1  A    between atoms: C_2  and  C_3
REMARK    2  A    between atoms: C_3  and  N_4
REMARK    3  A    between atoms: N_18  and  C_19
REMARK    4  A    between atoms: C_24  and  N_25
REMARK                            x       y       z     vdW  Elec       q    Type
REMARK                         _______ _______ _______ _____ _____    ______ ____
ROOT
ATOM      1  C   UNL     1       6.674   6.306  16.846  0.00  0.00    +0.000 C 
ENDROOT
BRANCH   1   2
ATOM      2  N   UNL     1       5.562   5.772  17.628  0.00  0.00    +0.000 N 
ATOM      3  C   UNL     1       4.245   6.091  17.306  0.00  0.00    +0.000 A 
ATOM      4  N   UNL     1       3.162   5.670  17.893  0.00  0.00    +0.000 NA
ATOM      5  C   UNL     1       3.422   4.764  18.925  0.00  0.00    +0.000 A 
ATOM      6  C   UNL     1       4.681   4.361  19.263  0.00  0.00    +0.000 A 
ATOM      7  O   UNL     1       4.643   3.439  20.262  0.00  0.00    +0.000 OA
ATOM      8  C   UNL     1       3.315   3.271  20.561  0.00  0.00    +0.000 A 
ATOM      9  C   UNL     1       2.807   2.399  21.522  0.00  0.00    +0.000 A 
ATOM     10  C   UNL     1       1.417   2.401  21.697  0.00  0.00    +0.000 A 
ATOM     11  C   UNL     1       0.590   3.233  20.936  0.00  0.00    +0.000 A 
ATOM     12  C   UNL     1       1.124   4.084  19.958  0.00  0.00    +0.000 A 
ATOM     13  C   UNL     1       2.516   4.099  19.767  0.00  0.00    +0.000 A 
ATOM     14  C   UNL     1       5.865   4.840  18.627  0.00  0.00    +0.000 A 
ATOM     15  O   UNL     1       7.014   4.493  18.889  0.00  0.00    +0.000 OA
ENDBRANCH   1   2
BRANCH   1  17
ATOM     16  O   UNL     1       7.917   4.458  15.949  0.00  0.00    +0.000 OA
ATOM     17  C   UNL     1       7.051   5.306  15.745  0.00  0.00    +0.000 C 
ATOM     18  N   UNL     1       6.307   5.422  14.578  0.00  0.00    +0.000 N 
ATOM     19  H   UNL     1       5.831   6.313  14.422  0.00  0.00    +0.000 HD
BRANCH  18  20
ATOM     20  C   UNL     1       6.399   4.574  13.428  0.00  0.00    +0.000 A 
ATOM     21  C   UNL     1       5.515   3.495  13.256  0.00  0.00    +0.000 A 
ATOM     22  C   UNL     1       5.679   2.566  12.220  0.00  0.00    +0.000 A 
ATOM     23  C   UNL     1       6.694   2.728  11.287  0.00  0.00    +0.000 A 
ATOM     24  C   UNL     1       7.525   3.844  11.367  0.00  0.00    +0.000 A 
ATOM     25  C   UNL     1       7.383   4.765  12.427  0.00  0.00    +0.000 A 
BRANCH  25  26
ATOM     26  N   UNL     1       8.302   5.914  12.455  0.00  0.00    +0.000 N 
ATOM     27  O   UNL     1       8.204   6.766  11.560  0.00  0.00    +0.000 OA
ATOM     28  O   UNL     1       9.152   5.959  13.364  0.00  0.00    +0.000 OA
ENDBRANCH  25  26
ENDBRANCH  18  20
ENDBRANCH   1  17
TORSDOF 4
ENDMDL
MODEL 5
REMARK VINA RESULT:      -7.5      1.201      1.734
REMARK  Name = 
REMARK  4 active torsions:
REMARK  status: ('A' for Active; 'I' for Inactive)
REMARK    1  A    between atoms: C_2  and  C_3
REMARK    2  A    between atoms: C_3  and  N_4
REMARK    3  A    between atoms: N_18  and  C_19
REMARK    4  A    between atoms: C_24  and  N_25
REMARK                            x       y       z     vdW  Elec       q    Type
REMARK                         _______ _______ _______ _____ _____    ______ ____
ROOT
ATOM      1  C   UNL     1       3.093   4.405  20.505  0.00  0.00    +0.000 C 
ENDROOT
BRANCH   1   2
ATOM      2  N   UNL     1       3.900   4.562  19.298  0.00  0.00    +0.000 N 
ATOM      3  C   UNL     1       5.144   5.187  19.347  0.00  0.00    +0.000 A 
ATOM      4  N   UNL     1       5.976   5.371  18.363  0.00  0.00    +0.000 NA
ATOM      5  C   UNL     1       5.529   4.814  17.162  0.00  0.00    +0.000 A 
ATOM      6  C   UNL     1       4.348   4.139  17.048  0.00  0.00    +0.000 A 
ATOM      7  O   UNL     1       4.185   3.658  15.786  0.00  0.00    +0.000 OA
ATOM      8  C   UNL     1       5.298   4.057  15.091  0.00  0.00    +0.000 A 
ATOM      9  C   UNL     1       5.562   3.768  13.753  0.00  0.00    +0.000 A 
ATOM     10  C   UNL     1       6.744   4.297  13.219  0.00  0.00    +0.000 A 
ATOM     11  C   UNL     1       7.611   5.069  13.999  0.00  0.00    +0.000 A 
ATOM     12  C   UNL     1       7.335   5.325  15.349  0.00  0.00    +0.000 A 
ATOM     13  C   UNL     1       6.154   4.805  15.905  0.00  0.00    +0.000 A 
ATOM     14  C   UNL     1       3.432   3.956  18.126  0.00  0.00    +0.000 A 
ATOM     15  O   UNL     1       2.368   3.344  18.071  0.00  0.00    +0.000 OA
ENDBRANCH   1   2
BRANCH   1  17
ATOM     16  O   UNL     1       0.799   5.110  20.607  0.00  0.00    +0.000 OA
ATOM     17  C   UNL     1       1.974   5.457  20.511  0.00  0.00    +0.000 C 
ATOM     18  N   UNL     1       2.416   6.772  20.458  0.00  0.00    +0.000 N 
ATOM     19  H   UNL     1       3.363   6.926  20.104  0.00  0.00    +0.000 HD
BRANCH  18  20
ATOM     20  C   UNL     1       1.595   7.944  20.525  0.00  0.00    +0.000 A 
ATOM     21  C   UNL     1       0.926   8.287  21.713  0.00  0.00    +0.000 A 
ATOM     22  C   UNL     1       0.004   9.341  21.760  0.00  0.00    +0.000 A 
ATOM     23  C   UNL     1      -0.226  10.122  20.636  0.00  0.00    +0.000 A 
ATOM     24  C   UNL     1       0.497   9.874  19.471  0.00  0.00    +0.000 A 
ATOM     25  C   UNL     1       1.404   8.795  19.410  0.00  0.00    +0.000 A 
BRANCH  25  26
ATOM     26  N   UNL     1       2.125   8.585  18.144  0.00  0.00    +0.000 N 
ATOM     27  O   UNL     1       2.187   9.528  17.342  0.00  0.00    +0.000 OA
ATOM     28  O   UNL     1       2.613   7.460  17.930  0.00  0.00    +0.000 OA
ENDBRANCH  25  26
ENDBRANCH  18  20
ENDBRANCH   1  17
TORSDOF 4
ENDMDL
MODEL 6
REMARK VINA RESULT:      -7.4      3.229      5.603
REMARK  Name = 
REMARK  4 active torsions:
REMARK  status: ('A' for Active; 'I' for Inactive)
REMARK    1  A    between atoms: C_2  and  C_3
REMARK    2  A    between atoms: C_3  and  N_4
REMARK    3  A    between atoms: N_18  and  C_19
REMARK    4  A    between atoms: C_24  and  N_25
REMARK                            x       y       z     vdW  Elec       q    Type
REMARK                         _______ _______ _______ _____ _____    ______ ____
ROOT
ATOM      1  C   UNL     1       1.508  10.106  18.739  0.00  0.00    +0.000 C 
ENDROOT
BRANCH   1   2
ATOM      2  N   UNL     1       1.831   8.726  19.092  0.00  0.00    +0.000 N 
ATOM      3  C   UNL     1       1.452   8.198  20.324  0.00  0.00    +0.000 A 
ATOM      4  N   UNL     1       1.648   6.987  20.760  0.00  0.00    +0.000 NA
ATOM      5  C   UNL     1       2.273   6.166  19.818  0.00  0.00    +0.000 A 
ATOM      6  C   UNL     1       2.624   6.596  18.571  0.00  0.00    +0.000 A 
ATOM      7  O   UNL     1       3.165   5.582  17.843  0.00  0.00    +0.000 OA
ATOM      8  C   UNL     1       3.158   4.487  18.670  0.00  0.00    +0.000 A 
ATOM      9  C   UNL     1       3.609   3.214  18.329  0.00  0.00    +0.000 A 
ATOM     10  C   UNL     1       3.545   2.237  19.332  0.00  0.00    +0.000 A 
ATOM     11  C   UNL     1       3.048   2.534  20.604  0.00  0.00    +0.000 A 
ATOM     12  C   UNL     1       2.577   3.818  20.915  0.00  0.00    +0.000 A 
ATOM     13  C   UNL     1       2.632   4.812  19.924  0.00  0.00    +0.000 A 
ATOM     14  C   UNL     1       2.423   7.929  18.106  0.00  0.00    +0.000 A 
ATOM     15  O   UNL     1       2.709   8.354  16.989  0.00  0.00    +0.000 OA
ENDBRANCH   1   2
BRANCH   1  17
ATOM     16  O   UNL     1      -0.884  10.062  18.947  0.00  0.00    +0.000 OA
ATOM     17  C   UNL     1       0.175  10.501  19.389  0.00  0.00    +0.000 C 
ATOM     18  N   UNL     1       0.295  11.319  20.505  0.00  0.00    +0.000 N 
ATOM     19  H   UNL     1       1.173  11.834  20.606  0.00  0.00    +0.000 HD
BRANCH  18  20
ATOM     20  C   UNL     1      -0.775  11.772  21.341  0.00  0.00    +0.000 A 
ATOM     21  C   UNL     1      -1.505  12.927  21.013  0.00  0.00    +0.000 A 
ATOM     22  C   UNL     1      -2.454  13.472  21.889  0.00  0.00    +0.000 A 
ATOM     23  C   UNL     1      -2.746  12.839  23.089  0.00  0.00    +0.000 A 
ATOM     24  C   UNL     1      -2.115  11.636  23.399  0.00  0.00    +0.000 A 
ATOM     25  C   UNL     1      -1.136  11.100  22.534  0.00  0.00    +0.000 A 
BRANCH  25  26
ATOM     26  N   UNL     1      -0.503   9.831  22.930  0.00  0.00    +0.000 N 
ATOM     27  O   UNL     1      -0.858   8.793  22.353  0.00  0.00    +0.000 OA
ATOM     28  O   UNL     1       0.340   9.861  23.845  0.00  0.00    +0.000 OA
ENDBRANCH  25  26
ENDBRANCH  18  20
ENDBRANCH   1  17
TORSDOF 4
ENDMDL
MODEL 7
REMARK VINA RESULT:      -7.3      1.409      1.975
REMARK  Name = 
REMARK  4 active torsions:
REMARK  status: ('A' for Active; 'I' for Inactive)
REMARK    1  A    between atoms: C_2  and  C_3
REMARK    2  A    between atoms: C_3  and  N_4
REMARK    3  A    between atoms: N_18  and  C_19
REMARK    4  A    between atoms: C_24  and  N_25
REMARK                            x       y       z     vdW  Elec       q    Type
REMARK                         _______ _______ _______ _____ _____    ______ ____
ROOT
ATOM      1  C   UNL     1       3.884   4.339  19.647  0.00  0.00    +0.000 C 
ENDROOT
BRANCH   1   2
ATOM      2  N   UNL     1       4.589   4.528  18.382  0.00  0.00    +0.000 N 
ATOM      3  C   UNL     1       5.720   5.337  18.309  0.00  0.00    +0.000 A 
ATOM      4  N   UNL     1       6.458   5.574  17.264  0.00  0.00    +0.000 NA
ATOM      5  C   UNL     1       6.038   4.868  16.132  0.00  0.00    +0.000 A 
ATOM      6  C   UNL     1       4.973   4.014  16.139  0.00  0.00    +0.000 A 
ATOM      7  O   UNL     1       4.818   3.423  14.924  0.00  0.00    +0.000 OA
ATOM      8  C   UNL     1       5.815   3.934  14.133  0.00  0.00    +0.000 A 
ATOM      9  C   UNL     1       6.047   3.592  12.802  0.00  0.00    +0.000 A 
ATOM     10  C   UNL     1       7.100   4.255  12.160  0.00  0.00    +0.000 A 
ATOM     11  C   UNL     1       7.877   5.205  12.829  0.00  0.00    +0.000 A 
ATOM     12  C   UNL     1       7.639   5.514  14.175  0.00  0.00    +0.000 A 
ATOM     13  C   UNL     1       6.587   4.862  14.840  0.00  0.00    +0.000 A 
ATOM     14  C   UNL     1       4.157   3.774  17.285  0.00  0.00    +0.000 A 
ATOM     15  O   UNL     1       3.201   3.004  17.339  0.00  0.00    +0.000 OA
ENDBRANCH   1   2
BRANCH   1  17
ATOM     16  O   UNL     1       1.528   4.788  19.521  0.00  0.00    +0.000 OA
ATOM     17  C   UNL     1       2.652   5.255  19.687  0.00  0.00    +0.000 C 
ATOM     18  N   UNL     1       2.929   6.585  19.974  0.00  0.00    +0.000 N 
ATOM     19  H   UNL     1       3.889   6.900  19.815  0.00  0.00    +0.000 HD
BRANCH  18  20
ATOM     20  C   UNL     1       1.968   7.632  20.145  0.00  0.00    +0.000 A 
ATOM     21  C   UNL     1       1.182   7.705  21.308  0.00  0.00    +0.000 A 
ATOM     22  C   UNL     1       0.136   8.629  21.434  0.00  0.00    +0.000 A 
ATOM     23  C   UNL     1      -0.112   9.549  20.424  0.00  0.00    +0.000 A 
ATOM     24  C   UNL     1       0.713   9.572  19.302  0.00  0.00    +0.000 A 
ATOM     25  C   UNL     1       1.749   8.624  19.158  0.00  0.00    +0.000 A 
BRANCH  25  26
ATOM     26  N   UNL     1       2.575   8.700  17.942  0.00  0.00    +0.000 N 
ATOM     27  O   UNL     1       3.474   7.862  17.789  0.00  0.00    +0.000 OA
ATOM     28  O   UNL     1       2.344   9.623  17.138  0.00  0.00    +0.000 OA
ENDBRANCH  25  26
ENDBRANCH  18  20
ENDBRANCH   1  17
TORSDOF 4
ENDMDL
MODEL 8
REMARK VINA RESULT:      -7.3      3.702      6.315
REMARK  Name = 
REMARK  4 active torsions:
REMARK  status: ('A' for Active; 'I' for Inactive)
REMARK    1  A    between atoms: C_2  and  C_3
REMARK    2  A    between atoms: C_3  and  N_4
REMARK    3  A    between atoms: N_18  and  C_19
REMARK    4  A    between atoms: C_24  and  N_25
REMARK                            x       y       z     vdW  Elec       q    Type
REMARK                         _______ _______ _______ _____ _____    ______ ____
ROOT
ATOM      1  C   UNL     1       1.041  10.683  19.086  0.00  0.00    +0.000 C 
ENDROOT
BRANCH   1   2
ATOM      2  N   UNL     1       1.412   9.306  19.401  0.00  0.00    +0.000 N 
ATOM      3  C   UNL     1       1.109   8.751  20.642  0.00  0.00    +0.000 A 
ATOM      4  N   UNL     1       1.353   7.538  21.048  0.00  0.00    +0.000 NA
ATOM      5  C   UNL     1       1.948   6.746  20.062  0.00  0.00    +0.000 A 
ATOM      6  C   UNL     1       2.226   7.202  18.806  0.00  0.00    +0.000 A 
ATOM      7  O   UNL     1       2.751   6.212  18.036  0.00  0.00    +0.000 OA
ATOM      8  C   UNL     1       2.811   5.106  18.844  0.00  0.00    +0.000 A 
ATOM      9  C   UNL     1       3.273   3.848  18.461  0.00  0.00    +0.000 A 
ATOM     10  C   UNL     1       3.282   2.856  19.450  0.00  0.00    +0.000 A 
ATOM     11  C   UNL     1       2.843   3.122  20.750  0.00  0.00    +0.000 A 
ATOM     12  C   UNL     1       2.361   4.389  21.105  0.00  0.00    +0.000 A 
ATOM     13  C   UNL     1       2.343   5.400  20.129  0.00  0.00    +0.000 A 
ATOM     14  C   UNL     1       1.971   8.538  18.373  0.00  0.00    +0.000 A 
ATOM     15  O   UNL     1       2.190   8.985  17.250  0.00  0.00    +0.000 OA
ENDBRANCH   1   2
BRANCH   1  17
ATOM     16  O   UNL     1      -1.281  10.096  18.909  0.00  0.00    +0.000 OA
ATOM     17  C   UNL     1      -0.456  10.884  19.364  0.00  0.00    +0.000 C 
ATOM     18  N   UNL     1      -0.752  11.962  20.187  0.00  0.00    +0.000 N 
ATOM     19  H   UNL     1      -0.037  12.689  20.269  0.00  0.00    +0.000 HD
BRANCH  18  20
ATOM     20  C   UNL     1      -2.050  12.332  20.664  0.00  0.00    +0.000 A 
ATOM     21  C   UNL     1      -3.135  12.450  19.779  0.00  0.00    +0.000 A 
ATOM     22  C   UNL     1      -4.375  12.952  20.198  0.00  0.00    +0.000 A 
ATOM     23  C   UNL     1      -4.583  13.288  21.528  0.00  0.00    +0.000 A 
ATOM     24  C   UNL     1      -3.560  13.085  22.453  0.00  0.00    +0.000 A 
ATOM     25  C   UNL     1      -2.301  12.609  22.030  0.00  0.00    +0.000 A 
BRANCH  25  26
ATOM     26  N   UNL     1      -1.263  12.429  23.059  0.00  0.00    +0.000 N 
ATOM     27  O   UNL     1      -0.849  13.433  23.655  0.00  0.00    +0.000 OA
ATOM     28  O   UNL     1      -0.835  11.278  23.261  0.00  0.00    +0.000 OA
ENDBRANCH  25  26
ENDBRANCH  18  20
ENDBRANCH   1  17
TORSDOF 4
ENDMDL
MODEL 9
REMARK VINA RESULT:      -7.3      4.492      7.165
REMARK  Name = 
REMARK  4 active torsions:
REMARK  status: ('A' for Active; 'I' for Inactive)
REMARK    1  A    between atoms: C_2  and  C_3
REMARK    2  A    between atoms: C_3  and  N_4
REMARK    3  A    between atoms: N_18  and  C_19
REMARK    4  A    between atoms: C_24  and  N_25
REMARK                            x       y       z     vdW  Elec       q    Type
REMARK                         _______ _______ _______ _____ _____    ______ ____
ROOT
ATOM      1  C   UNL     1       0.375  12.050  20.065  0.00  0.00    +0.000 C 
ENDROOT
BRANCH   1   2
ATOM      2  N   UNL     1       0.886  10.733  19.693  0.00  0.00    +0.000 N 
ATOM      3  C   UNL     1       1.523  10.534  18.470  0.00  0.00    +0.000 A 
ATOM      4  N   UNL     1       2.047   9.431  18.021  0.00  0.00    +0.000 NA
ATOM      5  C   UNL     1       1.966   8.379  18.939  0.00  0.00    +0.000 A 
ATOM      6  C   UNL     1       1.406   8.511  20.176  0.00  0.00    +0.000 A 
ATOM      7  O   UNL     1       1.507   7.352  20.880  0.00  0.00    +0.000 OA
ATOM      8  C   UNL     1       2.143   6.466  20.048  0.00  0.00    +0.000 A 
ATOM      9  C   UNL     1       2.472   5.150  20.366  0.00  0.00    +0.000 A 
ATOM     10  C   UNL     1       3.093   4.399  19.360  0.00  0.00    +0.000 A 
ATOM     11  C   UNL     1       3.370   4.952  18.106  0.00  0.00    +0.000 A 
ATOM     12  C   UNL     1       3.050   6.286  17.818  0.00  0.00    +0.000 A 
ATOM     13  C   UNL     1       2.426   7.058  18.813  0.00  0.00    +0.000 A 
ATOM     14  C   UNL     1       0.817   9.719  20.655  0.00  0.00    +0.000 A 
ATOM     15  O   UNL     1       0.317   9.886  21.765  0.00  0.00    +0.000 OA
ENDBRANCH   1   2
BRANCH   1  17
ATOM     16  O   UNL     1      -0.742  13.222  18.291  0.00  0.00    +0.000 OA
ATOM     17  C   UNL     1      -0.841  12.392  19.191  0.00  0.00    +0.000 C 
ATOM     18  N   UNL     1      -1.984  11.657  19.478  0.00  0.00    +0.000 N 
ATOM     19  H   UNL     1      -2.029  11.218  20.400  0.00  0.00    +0.000 HD
BRANCH  18  20
ATOM     20  C   UNL     1      -3.229  11.720  18.773  0.00  0.00    +0.000 A 
ATOM     21  C   UNL     1      -3.339  11.227  17.462  0.00  0.00    +0.000 A 
ATOM     22  C   UNL     1      -4.502  11.411  16.701  0.00  0.00    +0.000 A 
ATOM     23  C   UNL     1      -5.610  12.037  17.255  0.00  0.00    +0.000 A 
ATOM     24  C   UNL     1      -5.570  12.447  18.586  0.00  0.00    +0.000 A 
ATOM     25  C   UNL     1      -4.391  12.290  19.346  0.00  0.00    +0.000 A 
BRANCH  25  26
ATOM     26  N   UNL     1      -4.418  12.756  20.742  0.00  0.00    +0.000 N 
ATOM     27  O   UNL     1      -5.202  12.207  21.529  0.00  0.00    +0.000 OA
ATOM     28  O   UNL     1      -3.668  13.699  21.057  0.00  0.00    +0.000 OA
ENDBRANCH  25  26
ENDBRANCH  18  20
ENDBRANCH   1  17
TORSDOF 4
ENDMDL
