MODEL 1
REMARK VINA RESULT:      -9.6      0.000      0.000
REMARK  Name = 
REMARK  3 active torsions:
REMARK  status: ('A' for Active; 'I' for Inactive)
REMARK    1  A    between atoms: C_1  and  C_2
REMARK    2  A    between atoms: C_5  and  N_6
REMARK    3  A    between atoms: C_8  and  C_9
REMARK                            x       y       z     vdW  Elec       q    Type
REMARK                         _______ _______ _______ _____ _____    ______ ____
ROOT
ATOM      1  C   UNL     1       6.715   6.060  16.790  0.00  0.00    +0.000 C 
ATOM      2  O   UNL     1       7.278   5.516  15.833  0.00  0.00    +0.000 OA
ATOM      3  N   UNL     1       5.401   5.676  17.149  0.00  0.00    +0.000 N 
ATOM      4  C   UNL     1       4.683   4.600  16.385  0.00  0.00    +0.000 C 
ATOM      5  C   UNL     1       4.132   3.329  17.165  0.00  0.00    +0.000 C 
ATOM      6  C   UNL     1       2.602   3.143  17.035  0.00  0.00    +0.000 C 
ATOM      7  C   UNL     1       2.139   2.408  18.287  0.00  0.00    +0.000 C 
ATOM      8  C   UNL     1       3.373   2.225  19.144  0.00  0.00    +0.000 C 
ATOM      9  N   UNL     1       4.433   3.067  18.588  0.00  0.00    +0.000 NA
ATOM     10  C   UNL     1       4.725   4.232  19.411  0.00  0.00    +0.000 C 
ATOM     11  C   UNL     1       3.948   5.464  19.032  0.00  0.00    +0.000 A 
ATOM     12  C   UNL     1       2.633   5.677  19.460  0.00  0.00    +0.000 A 
ATOM     13  C   UNL     1       1.916   6.764  18.969  0.00  0.00    +0.000 A 
ATOM     14  C   UNL     1       2.546   7.698  18.143  0.00  0.00    +0.000 A 
ATOM     15  C   UNL     1       3.858   7.487  17.702  0.00  0.00    +0.000 A 
ATOM     16  C   UNL     1       4.524   6.316  18.074  0.00  0.00    +0.000 A 
ENDROOT
BRANCH   1  19
ATOM     17  N   UNL     1       8.409   8.922  18.346  0.00  0.00    +0.000 N 
ATOM     18  C   UNL     1       7.592   8.436  17.335  0.00  0.00    +0.000 A 
ATOM     19  C   UNL     1       7.479   7.057  17.579  0.00  0.00    +0.000 A 
ATOM     20  N   UNL     1       8.211   6.766  18.692  0.00  0.00    +0.000 NA
ATOM     21  N   UNL     1       8.754   7.882  19.149  0.00  0.00    +0.000 NA
BRANCH  17  26
ATOM     22  C   UNL     1      10.536  14.105  19.801  0.00  0.00    +0.000 C 
ATOM     23  C   UNL     1       9.952  12.778  19.378  0.00  0.00    +0.000 A 
ATOM     24  C   UNL     1       9.349  12.598  18.122  0.00  0.00    +0.000 A 
ATOM     25  C   UNL     1       8.817  11.339  17.747  0.00  0.00    +0.000 A 
ATOM     26  C   UNL     1       8.902  10.241  18.627  0.00  0.00    +0.000 A 
ATOM     27  C   UNL     1       9.514  10.453  19.883  0.00  0.00    +0.000 A 
ATOM     28  C   UNL     1      10.028  11.698  20.247  0.00  0.00    +0.000 A 
ENDBRANCH  17  26
ENDBRANCH   1  19
TORSDOF 2
ENDMDL
MODEL 2
REMARK VINA RESULT:      -9.1      0.644      1.128
REMARK  Name = 
REMARK  3 active torsions:
REMARK  status: ('A' for Active; 'I' for Inactive)
REMARK    1  A    between atoms: C_1  and  C_2
REMARK    2  A    between atoms: C_5  and  N_6
REMARK    3  A    between atoms: C_8  and  C_9
REMARK                            x       y       z     vdW  Elec       q    Type
REMARK                         _______ _______ _______ _____ _____    ______ ____
ROOT
ATOM      1  C   UNL     1       6.109   5.998  16.740  0.00  0.00    +0.000 C 
ATOM      2  O   UNL     1       6.435   5.638  15.603  0.00  0.00    +0.000 OA
ATOM      3  N   UNL     1       4.928   5.490  17.332  0.00  0.00    +0.000 N 
ATOM      4  C   UNL     1       4.068   4.503  16.595  0.00  0.00    +0.000 C 
ATOM      5  C   UNL     1       3.745   3.099  17.268  0.00  0.00    +0.000 C 
ATOM      6  C   UNL     1       2.232   2.848  17.474  0.00  0.00    +0.000 C 
ATOM      7  C   UNL     1       2.099   1.907  18.665  0.00  0.00    +0.000 C 
ATOM      8  C   UNL     1       3.507   1.667  19.166  0.00  0.00    +0.000 C 
ATOM      9  N   UNL     1       4.385   2.642  18.519  0.00  0.00    +0.000 NA
ATOM     10  C   UNL     1       4.845   3.684  19.428  0.00  0.00    +0.000 C 
ATOM     11  C   UNL     1       3.976   4.912  19.444  0.00  0.00    +0.000 A 
ATOM     12  C   UNL     1       2.800   4.983  20.198  0.00  0.00    +0.000 A 
ATOM     13  C   UNL     1       1.965   6.090  20.070  0.00  0.00    +0.000 A 
ATOM     14  C   UNL     1       2.360   7.172  19.281  0.00  0.00    +0.000 A 
ATOM     15  C   UNL     1       3.531   7.105  18.516  0.00  0.00    +0.000 A 
ATOM     16  C   UNL     1       4.288   5.931  18.527  0.00  0.00    +0.000 A 
ENDROOT
BRANCH   1  19
ATOM     17  N   UNL     1       8.154   8.669  18.211  0.00  0.00    +0.000 N 
ATOM     18  C   UNL     1       7.198   8.285  17.282  0.00  0.00    +0.000 A 
ATOM     19  C   UNL     1       7.022   6.905  17.478  0.00  0.00    +0.000 A 
ATOM     20  N   UNL     1       7.855   6.514  18.484  0.00  0.00    +0.000 NA
ATOM     21  N   UNL     1       8.519   7.571  18.923  0.00  0.00    +0.000 NA
BRANCH  17  26
ATOM     22  C   UNL     1      10.406  13.935  19.050  0.00  0.00    +0.000 C 
ATOM     23  C   UNL     1       9.858  12.539  18.867  0.00  0.00    +0.000 A 
ATOM     24  C   UNL     1      10.187  11.493  19.744  0.00  0.00    +0.000 A 
ATOM     25  C   UNL     1       9.650  10.194  19.554  0.00  0.00    +0.000 A 
ATOM     26  C   UNL     1       8.763   9.940  18.489  0.00  0.00    +0.000 A 
ATOM     27  C   UNL     1       8.452  11.014  17.624  0.00  0.00    +0.000 A 
ATOM     28  C   UNL     1       8.990  12.286  17.813  0.00  0.00    +0.000 A 
ENDBRANCH  17  26
ENDBRANCH   1  19
TORSDOF 2
ENDMDL
MODEL 3
REMARK VINA RESULT:      -8.0      4.196      7.140
REMARK  Name = 
REMARK  3 active torsions:
REMARK  status: ('A' for Active; 'I' for Inactive)
REMARK    1  A    between atoms: C_1  and  C_2
REMARK    2  A    between atoms: C_5  and  N_6
REMARK    3  A    between atoms: C_8  and  C_9
REMARK                            x       y       z     vdW  Elec       q    Type
REMARK                         _______ _______ _______ _____ _____    ______ ____
ROOT
ATOM      1  C   UNL     1       2.818   8.139  17.832  0.00  0.00    +0.000 C 
ATOM      2  O   UNL     1       2.987   9.057  17.020  0.00  0.00    +0.000 OA
ATOM      3  N   UNL     1       3.447   6.888  17.627  0.00  0.00    +0.000 N 
ATOM      4  C   UNL     1       4.331   6.664  16.433  0.00  0.00    +0.000 C 
ATOM      5  C   UNL     1       5.832   6.187  16.656  0.00  0.00    +0.000 C 
ATOM      6  C   UNL     1       6.155   4.835  15.979  0.00  0.00    +0.000 C 
ATOM      7  C   UNL     1       7.274   4.193  16.790  0.00  0.00    +0.000 C 
ATOM      8  C   UNL     1       7.549   5.135  17.942  0.00  0.00    +0.000 C 
ATOM      9  N   UNL     1       6.460   6.111  17.992  0.00  0.00    +0.000 NA
ATOM     10  C   UNL     1       5.560   5.901  19.118  0.00  0.00    +0.000 C 
ATOM     11  C   UNL     1       4.375   5.029  18.804  0.00  0.00    +0.000 A 
ATOM     12  C   UNL     1       4.456   3.633  18.803  0.00  0.00    +0.000 A 
ATOM     13  C   UNL     1       3.368   2.879  18.373  0.00  0.00    +0.000 A 
ATOM     14  C   UNL     1       2.165   3.512  18.055  0.00  0.00    +0.000 A 
ATOM     15  C   UNL     1       2.078   4.910  18.043  0.00  0.00    +0.000 A 
ATOM     16  C   UNL     1       3.216   5.668  18.327  0.00  0.00    +0.000 A 
ENDROOT
BRANCH   1  19
ATOM     17  N   UNL     1       0.660   9.324  20.555  0.00  0.00    +0.000 N 
ATOM     18  C   UNL     1       1.191   9.531  19.291  0.00  0.00    +0.000 A 
ATOM     19  C   UNL     1       2.012   8.417  19.046  0.00  0.00    +0.000 A 
ATOM     20  N   UNL     1       1.953   7.604  20.138  0.00  0.00    +0.000 NA
ATOM     21  N   UNL     1       1.139   8.145  21.030  0.00  0.00    +0.000 NA
BRANCH  17  26
ATOM     22  C   UNL     1      -2.999  12.711  23.496  0.00  0.00    +0.000 C 
ATOM     23  C   UNL     1      -2.026  11.805  22.779  0.00  0.00    +0.000 A 
ATOM     24  C   UNL     1      -1.437  10.699  23.413  0.00  0.00    +0.000 A 
ATOM     25  C   UNL     1      -0.534   9.859  22.713  0.00  0.00    +0.000 A 
ATOM     26  C   UNL     1      -0.229  10.114  21.361  0.00  0.00    +0.000 A 
ATOM     27  C   UNL     1      -0.839  11.234  20.751  0.00  0.00    +0.000 A 
ATOM     28  C   UNL     1      -1.719  12.060  21.449  0.00  0.00    +0.000 A 
ENDBRANCH  17  26
ENDBRANCH   1  19
TORSDOF 2
ENDMDL
MODEL 4
REMARK VINA RESULT:      -7.9      5.284      8.713
REMARK  Name = 
REMARK  3 active torsions:
REMARK  status: ('A' for Active; 'I' for Inactive)
REMARK    1  A    between atoms: C_1  and  C_2
REMARK    2  A    between atoms: C_5  and  N_6
REMARK    3  A    between atoms: C_8  and  C_9
REMARK                            x       y       z     vdW  Elec       q    Type
REMARK                         _______ _______ _______ _____ _____    ______ ____
ROOT
ATOM      1  C   UNL     1       1.008   8.749  20.762  0.00  0.00    +0.000 C 
ATOM      2  O   UNL     1       1.198   8.174  21.840  0.00  0.00    +0.000 OA
ATOM      3  N   UNL     1       0.104   9.835  20.688  0.00  0.00    +0.000 N 
ATOM      4  C   UNL     1      -0.624  10.308  21.914  0.00  0.00    +0.000 C 
ATOM      5  C   UNL     1      -0.486  11.828  22.362  0.00  0.00    +0.000 C 
ATOM      6  C   UNL     1      -1.837  12.581  22.409  0.00  0.00    +0.000 C 
ATOM      7  C   UNL     1      -1.531  14.052  22.158  0.00  0.00    +0.000 C 
ATOM      8  C   UNL     1      -0.040  14.133  21.916  0.00  0.00    +0.000 C 
ATOM      9  N   UNL     1       0.458  12.771  21.725  0.00  0.00    +0.000 NA
ATOM     10  C   UNL     1       0.820  12.486  20.343  0.00  0.00    +0.000 C 
ATOM     11  C   UNL     1      -0.291  11.884  19.527  0.00  0.00    +0.000 A 
ATOM     12  C   UNL     1      -1.295  12.664  18.945  0.00  0.00    +0.000 A 
ATOM     13  C   UNL     1      -2.372  12.045  18.316  0.00  0.00    +0.000 A 
ATOM     14  C   UNL     1      -2.388  10.656  18.170  0.00  0.00    +0.000 A 
ATOM     15  C   UNL     1      -1.391   9.867  18.758  0.00  0.00    +0.000 A 
ATOM     16  C   UNL     1      -0.394  10.482  19.519  0.00  0.00    +0.000 A 
ENDROOT
BRANCH   1  19
ATOM     17  N   UNL     1       3.021   7.157  18.136  0.00  0.00    +0.000 N 
ATOM     18  C   UNL     1       2.388   7.058  19.366  0.00  0.00    +0.000 A 
ATOM     19  C   UNL     1       1.805   8.317  19.588  0.00  0.00    +0.000 A 
ATOM     20  N   UNL     1       2.100   9.110  18.519  0.00  0.00    +0.000 NA
ATOM     21  N   UNL     1       2.816   8.411  17.653  0.00  0.00    +0.000 NA
BRANCH  17  26
ATOM     22  C   UNL     1       6.336   3.652  14.938  0.00  0.00    +0.000 C 
ATOM     23  C   UNL     1       5.438   4.521  15.786  0.00  0.00    +0.000 A 
ATOM     24  C   UNL     1       4.544   3.974  16.721  0.00  0.00    +0.000 A 
ATOM     25  C   UNL     1       3.719   4.814  17.512  0.00  0.00    +0.000 A 
ATOM     26  C   UNL     1       3.799   6.215  17.381  0.00  0.00    +0.000 A 
ATOM     27  C   UNL     1       4.708   6.734  16.432  0.00  0.00    +0.000 A 
ATOM     28  C   UNL     1       5.510   5.901  15.652  0.00  0.00    +0.000 A 
ENDBRANCH  17  26
ENDBRANCH   1  19
TORSDOF 2
ENDMDL
MODEL 5
REMARK VINA RESULT:      -7.8      1.420      1.981
REMARK  Name = 
REMARK  3 active torsions:
REMARK  status: ('A' for Active; 'I' for Inactive)
REMARK    1  A    between atoms: C_1  and  C_2
REMARK    2  A    between atoms: C_5  and  N_6
REMARK    3  A    between atoms: C_8  and  C_9
REMARK                            x       y       z     vdW  Elec       q    Type
REMARK                         _______ _______ _______ _____ _____    ______ ____
ROOT
ATOM      1  C   UNL     1       5.070   5.340  16.591  0.00  0.00    +0.000 C 
ATOM      2  O   UNL     1       5.155   4.502  15.686  0.00  0.00    +0.000 OA
ATOM      3  N   UNL     1       3.947   5.341  17.452  0.00  0.00    +0.000 N 
ATOM      4  C   UNL     1       2.855   4.322  17.285  0.00  0.00    +0.000 C 
ATOM      5  C   UNL     1       2.467   3.391  18.515  0.00  0.00    +0.000 C 
ATOM      6  C   UNL     1       0.989   3.531  18.951  0.00  0.00    +0.000 C 
ATOM      7  C   UNL     1       0.933   3.187  20.434  0.00  0.00    +0.000 C 
ATOM      8  C   UNL     1       2.360   2.909  20.853  0.00  0.00    +0.000 C 
ATOM      9  N   UNL     1       3.239   3.361  19.775  0.00  0.00    +0.000 NA
ATOM     10  C   UNL     1       3.974   4.573  20.111  0.00  0.00    +0.000 C 
ATOM     11  C   UNL     1       3.289   5.845  19.691  0.00  0.00    +0.000 A 
ATOM     12  C   UNL     1       2.272   6.430  20.454  0.00  0.00    +0.000 A 
ATOM     13  C   UNL     1       1.579   7.528  19.952  0.00  0.00    +0.000 A 
ATOM     14  C   UNL     1       1.977   8.110  18.746  0.00  0.00    +0.000 A 
ATOM     15  C   UNL     1       2.986   7.525  17.973  0.00  0.00    +0.000 A 
ATOM     16  C   UNL     1       3.576   6.335  18.405  0.00  0.00    +0.000 A 
ENDROOT
BRANCH   1  19
ATOM     17  N   UNL     1       7.505   7.954  17.439  0.00  0.00    +0.000 N 
ATOM     18  C   UNL     1       6.232   7.425  17.597  0.00  0.00    +0.000 A 
ATOM     19  C   UNL     1       6.202   6.277  16.787  0.00  0.00    +0.000 A 
ATOM     20  N   UNL     1       7.419   6.158  16.183  0.00  0.00    +0.000 NA
ATOM     21  N   UNL     1       8.193   7.154  16.583  0.00  0.00    +0.000 NA
BRANCH  17  26
ATOM     22  C   UNL     1       9.845  12.869  19.405  0.00  0.00    +0.000 C 
ATOM     23  C   UNL     1       9.272  11.557  18.924  0.00  0.00    +0.000 A 
ATOM     24  C   UNL     1       9.532  10.346  19.587  0.00  0.00    +0.000 A 
ATOM     25  C   UNL     1       8.973   9.130  19.120  0.00  0.00    +0.000 A 
ATOM     26  C   UNL     1       8.131   9.123  17.990  0.00  0.00    +0.000 A 
ATOM     27  C   UNL     1       7.889  10.356  17.345  0.00  0.00    +0.000 A 
ATOM     28  C   UNL     1       8.449  11.548  17.806  0.00  0.00    +0.000 A 
ENDBRANCH  17  26
ENDBRANCH   1  19
TORSDOF 2
ENDMDL
MODEL 6
REMARK VINA RESULT:      -7.8      1.650      2.818
REMARK  Name = 
REMARK  3 active torsions:
REMARK  status: ('A' for Active; 'I' for Inactive)
REMARK    1  A    between atoms: C_1  and  C_2
REMARK    2  A    between atoms: C_5  and  N_6
REMARK    3  A    between atoms: C_8  and  C_9
REMARK                            x       y       z     vdW  Elec       q    Type
REMARK                         _______ _______ _______ _____ _____    ______ ____
ROOT
ATOM      1  C   UNL     1       7.350   6.000  18.992  0.00  0.00    +0.000 C 
ATOM      2  O   UNL     1       7.606   5.617  20.139  0.00  0.00    +0.000 OA
ATOM      3  N   UNL     1       6.532   5.212  18.148  0.00  0.00    +0.000 N 
ATOM      4  C   UNL     1       5.960   3.911  18.637  0.00  0.00    +0.000 C 
ATOM      5  C   UNL     1       4.385   3.692  18.597  0.00  0.00    +0.000 C 
ATOM      6  C   UNL     1       3.953   2.483  17.734  0.00  0.00    +0.000 C 
ATOM      7  C   UNL     1       2.548   2.784  17.226  0.00  0.00    +0.000 C 
ATOM      8  C   UNL     1       2.204   4.163  17.744  0.00  0.00    +0.000 C 
ATOM      9  N   UNL     1       3.432   4.769  18.256  0.00  0.00    +0.000 NA
ATOM     10  C   UNL     1       3.940   5.834  17.402  0.00  0.00    +0.000 C 
ATOM     11  C   UNL     1       4.940   5.376  16.376  0.00  0.00    +0.000 A 
ATOM     12  C   UNL     1       4.551   4.794  15.164  0.00  0.00    +0.000 A 
ATOM     13  C   UNL     1       5.516   4.264  14.312  0.00  0.00    +0.000 A 
ATOM     14  C   UNL     1       6.871   4.417  14.616  0.00  0.00    +0.000 A 
ATOM     15  C   UNL     1       7.269   4.988  15.831  0.00  0.00    +0.000 A 
ATOM     16  C   UNL     1       6.295   5.381  16.752  0.00  0.00    +0.000 A 
ENDROOT
BRANCH   1  19
ATOM     17  N   UNL     1       8.868   9.302  18.472  0.00  0.00    +0.000 N 
ATOM     18  C   UNL     1       8.679   8.203  19.297  0.00  0.00    +0.000 A 
ATOM     19  C   UNL     1       7.856   7.328  18.567  0.00  0.00    +0.000 A 
ATOM     20  N   UNL     1       7.582   7.913  17.367  0.00  0.00    +0.000 NA
ATOM     21  N   UNL     1       8.195   9.084  17.313  0.00  0.00    +0.000 NA
BRANCH  17  26
ATOM     22  C   UNL     1      11.797  14.166  19.602  0.00  0.00    +0.000 C 
ATOM     23  C   UNL     1      11.025  12.915  19.253  0.00  0.00    +0.000 A 
ATOM     24  C   UNL     1      10.773  12.546  17.922  0.00  0.00    +0.000 A 
ATOM     25  C   UNL     1      10.053  11.362  17.622  0.00  0.00    +0.000 A 
ATOM     26  C   UNL     1       9.595  10.527  18.661  0.00  0.00    +0.000 A 
ATOM     27  C   UNL     1       9.864  10.925  19.990  0.00  0.00    +0.000 A 
ATOM     28  C   UNL     1      10.566  12.096  20.276  0.00  0.00    +0.000 A 
ENDBRANCH  17  26
ENDBRANCH   1  19
TORSDOF 2
ENDMDL
MODEL 7
REMARK VINA RESULT:      -7.6      3.903      6.495
REMARK  Name = 
REMARK  3 active torsions:
REMARK  status: ('A' for Active; 'I' for Inactive)
REMARK    1  A    between atoms: C_1  and  C_2
REMARK    2  A    between atoms: C_5  and  N_6
REMARK    3  A    between atoms: C_8  and  C_9
REMARK                            x       y       z     vdW  Elec       q    Type
REMARK                         _______ _______ _______ _____ _____    ______ ____
ROOT
ATOM      1  C   UNL     1       2.888   4.561  18.499  0.00  0.00    +0.000 C 
ATOM      2  O   UNL     1       2.172   3.606  18.177  0.00  0.00    +0.000 OA
ATOM      3  N   UNL     1       4.195   4.677  17.969  0.00  0.00    +0.000 N 
ATOM      4  C   UNL     1       4.721   3.653  17.004  0.00  0.00    +0.000 C 
ATOM      5  C   UNL     1       5.244   4.126  15.578  0.00  0.00    +0.000 C 
ATOM      6  C   UNL     1       6.726   3.770  15.316  0.00  0.00    +0.000 C 
ATOM      7  C   UNL     1       7.262   4.807  14.338  0.00  0.00    +0.000 C 
ATOM      8  C   UNL     1       6.124   5.772  14.086  0.00  0.00    +0.000 C 
ATOM      9  N   UNL     1       5.086   5.510  15.083  0.00  0.00    +0.000 NA
ATOM     10  C   UNL     1       4.996   6.552  16.097  0.00  0.00    +0.000 C 
ATOM     11  C   UNL     1       5.830   6.292  17.322  0.00  0.00    +0.000 A 
ATOM     12  C   UNL     1       7.199   6.577  17.366  0.00  0.00    +0.000 A 
ATOM     13  C   UNL     1       7.949   6.191  18.474  0.00  0.00    +0.000 A 
ATOM     14  C   UNL     1       7.313   5.626  19.582  0.00  0.00    +0.000 A 
ATOM     15  C   UNL     1       5.945   5.328  19.542  0.00  0.00    +0.000 A 
ATOM     16  C   UNL     1       5.225   5.577  18.371  0.00  0.00    +0.000 A 
ENDROOT
BRANCH   1  19
ATOM     17  N   UNL     1       1.517   7.499  20.223  0.00  0.00    +0.000 N 
ATOM     18  C   UNL     1       2.048   6.945  19.067  0.00  0.00    +0.000 A 
ATOM     19  C   UNL     1       2.311   5.602  19.385  0.00  0.00    +0.000 A 
ATOM     20  N   UNL     1       1.945   5.399  20.682  0.00  0.00    +0.000 NA
ATOM     21  N   UNL     1       1.464   6.529  21.173  0.00  0.00    +0.000 NA
BRANCH  17  26
ATOM     22  C   UNL     1      -0.351  12.744  21.808  0.00  0.00    +0.000 C 
ATOM     23  C   UNL     1       0.136  11.393  21.340  0.00  0.00    +0.000 A 
ATOM     24  C   UNL     1       0.666  11.201  20.053  0.00  0.00    +0.000 A 
ATOM     25  C   UNL     1       1.125   9.923  19.642  0.00  0.00    +0.000 A 
ATOM     26  C   UNL     1       1.071   8.829  20.530  0.00  0.00    +0.000 A 
ATOM     27  C   UNL     1       0.533   9.055  21.816  0.00  0.00    +0.000 A 
ATOM     28  C   UNL     1       0.076  10.313  22.210  0.00  0.00    +0.000 A 
ENDBRANCH  17  26
ENDBRANCH   1  19
TORSDOF 2
ENDMDL
MODEL 8
REMARK VINA RESULT:      -7.4      3.996      6.317
REMARK  Name = 
REMARK  3 active torsions:
REMARK  status: ('A' for Active; 'I' for Inactive)
REMARK    1  A    between atoms: C_1  and  C_2
REMARK    2  A    between atoms: C_5  and  N_6
REMARK    3  A    between atoms: C_8  and  C_9
REMARK                            x       y       z     vdW  Elec       q    Type
REMARK                         _______ _______ _______ _____ _____    ______ ____
ROOT
ATOM      1  C   UNL     1       2.675   5.066  18.295  0.00  0.00    +0.000 C 
ATOM      2  O   UNL     1       1.855   4.195  17.986  0.00  0.00    +0.000 OA
ATOM      3  N   UNL     1       4.011   4.976  17.835  0.00  0.00    +0.000 N 
ATOM      4  C   UNL     1       4.442   3.832  16.961  0.00  0.00    +0.000 C 
ATOM      5  C   UNL     1       5.093   4.140  15.542  0.00  0.00    +0.000 C 
ATOM      6  C   UNL     1       6.525   3.578  15.387  0.00  0.00    +0.000 C 
ATOM      7  C   UNL     1       7.243   4.471  14.383  0.00  0.00    +0.000 C 
ATOM      8  C   UNL     1       6.258   5.558  14.012  0.00  0.00    +0.000 C 
ATOM      9  N   UNL     1       5.147   5.499  14.962  0.00  0.00    +0.000 NA
ATOM     10  C   UNL     1       5.148   6.606  15.908  0.00  0.00    +0.000 C 
ATOM     11  C   UNL     1       5.878   6.318  17.192  0.00  0.00    +0.000 A 
ATOM     12  C   UNL     1       7.269   6.424  17.297  0.00  0.00    +0.000 A 
ATOM     13  C   UNL     1       7.905   6.014  18.466  0.00  0.00    +0.000 A 
ATOM     14  C   UNL     1       7.145   5.610  19.567  0.00  0.00    +0.000 A 
ATOM     15  C   UNL     1       5.753   5.491  19.465  0.00  0.00    +0.000 A 
ATOM     16  C   UNL     1       5.132   5.757  18.243  0.00  0.00    +0.000 A 
ENDROOT
BRANCH   1  19
ATOM     17  N   UNL     1       1.545   8.245  19.742  0.00  0.00    +0.000 N 
ATOM     18  C   UNL     1       1.979   7.539  18.630  0.00  0.00    +0.000 A 
ATOM     19  C   UNL     1       2.201   6.228  19.085  0.00  0.00    +0.000 A 
ATOM     20  N   UNL     1       1.906   6.190  20.415  0.00  0.00    +0.000 NA
ATOM     21  N   UNL     1       1.506   7.392  20.799  0.00  0.00    +0.000 NA
BRANCH  17  26
ATOM     22  C   UNL     1       0.110  13.843  20.082  0.00  0.00    +0.000 C 
ATOM     23  C   UNL     1       0.488  12.381  20.051  0.00  0.00    +0.000 A 
ATOM     24  C   UNL     1       0.422  11.573  21.198  0.00  0.00    +0.000 A 
ATOM     25  C   UNL     1       0.773  10.200  21.138  0.00  0.00    +0.000 A 
ATOM     26  C   UNL     1       1.178   9.623  19.918  0.00  0.00    +0.000 A 
ATOM     27  C   UNL     1       1.234  10.462  18.782  0.00  0.00    +0.000 A 
ATOM     28  C   UNL     1       0.895  11.813  18.851  0.00  0.00    +0.000 A 
ENDBRANCH  17  26
ENDBRANCH   1  19
TORSDOF 2
ENDMDL
MODEL 9
REMARK VINA RESULT:      -7.4      6.064      9.413
REMARK  Name = 
REMARK  3 active torsions:
REMARK  status: ('A' for Active; 'I' for Inactive)
REMARK    1  A    between atoms: C_1  and  C_2
REMARK    2  A    between atoms: C_5  and  N_6
REMARK    3  A    between atoms: C_8  and  C_9
REMARK                            x       y       z     vdW  Elec       q    Type
REMARK                         _______ _______ _______ _____ _____    ______ ____
ROOT
ATOM      1  C   UNL     1      -0.120  10.951  18.585  0.00  0.00    +0.000 C 
ATOM      2  O   UNL     1      -1.275  10.770  18.184  0.00  0.00    +0.000 OA
ATOM      3  N   UNL     1       0.316  12.253  18.928  0.00  0.00    +0.000 N 
ATOM      4  C   UNL     1      -0.620  13.423  18.822  0.00  0.00    +0.000 C 
ATOM      5  C   UNL     1      -0.889  14.322  20.106  0.00  0.00    +0.000 C 
ATOM      6  C   UNL     1      -0.502  15.807  19.911  0.00  0.00    +0.000 C 
ATOM      7  C   UNL     1      -0.149  16.355  21.288  0.00  0.00    +0.000 C 
ATOM      8  C   UNL     1      -0.278  15.191  22.246  0.00  0.00    +0.000 C 
ATOM      9  N   UNL     1      -0.392  13.968  21.453  0.00  0.00    +0.000 NA
ATOM     10  C   UNL     1       0.807  13.143  21.502  0.00  0.00    +0.000 C 
ATOM     11  C   UNL     1       1.791  13.421  20.398  0.00  0.00    +0.000 A 
ATOM     12  C   UNL     1       2.700  14.482  20.459  0.00  0.00    +0.000 A 
ATOM     13  C   UNL     1       3.492  14.776  19.353  0.00  0.00    +0.000 A 
ATOM     14  C   UNL     1       3.459  13.943  18.232  0.00  0.00    +0.000 A 
ATOM     15  C   UNL     1       2.545  12.885  18.159  0.00  0.00    +0.000 A 
ATOM     16  C   UNL     1       1.645  12.685  19.208  0.00  0.00    +0.000 A 
ENDROOT
BRANCH   1  19
ATOM     17  N   UNL     1       2.098   8.028  18.432  0.00  0.00    +0.000 N 
ATOM     18  C   UNL     1       1.417   9.034  17.762  0.00  0.00    +0.000 A 
ATOM     19  C   UNL     1       0.754   9.765  18.762  0.00  0.00    +0.000 A 
ATOM     20  N   UNL     1       1.045   9.191  19.964  0.00  0.00    +0.000 NA
ATOM     21  N   UNL     1       1.854   8.164  19.762  0.00  0.00    +0.000 NA
BRANCH  17  26
ATOM     22  C   UNL     1       5.715   3.979  16.427  0.00  0.00    +0.000 C 
ATOM     23  C   UNL     1       4.731   4.995  16.955  0.00  0.00    +0.000 A 
ATOM     24  C   UNL     1       3.549   4.612  17.612  0.00  0.00    +0.000 A 
ATOM     25  C   UNL     1       2.647   5.587  18.107  0.00  0.00    +0.000 A 
ATOM     26  C   UNL     1       2.933   6.959  17.961  0.00  0.00    +0.000 A 
ATOM     27  C   UNL     1       4.129   7.312  17.296  0.00  0.00    +0.000 A 
ATOM     28  C   UNL     1       5.008   6.347  16.805  0.00  0.00    +0.000 A 
ENDBRANCH  17  26
ENDBRANCH   1  19
TORSDOF 2
ENDMDL
