MODEL 1
REMARK VINA RESULT:      -8.6      0.000      0.000
REMARK  Name = 
REMARK  5 active torsions:
REMARK  status: ('A' for Active; 'I' for Inactive)
REMARK    1  A    between atoms: C_1  and  C_2
REMARK    2  A    between atoms: C_4  and  C_5
REMARK    3  A    between atoms: N_6  and  C_7
REMARK    4  A    between atoms: C_11  and  N_12
REMARK    5  A    between atoms: C_13  and  C_15
REMARK                            x       y       z     vdW  Elec       q    Type
REMARK                         _______ _______ _______ _____ _____    ______ ____
ROOT
ATOM      1  N   UNL     1       2.319   6.879  19.430  0.00  0.00    +0.000 N 
ATOM      2  C   UNL     1       1.890   8.099  18.936  0.00  0.00    +0.000 C 
ATOM      3  O   UNL     1       1.789   8.397  17.749  0.00  0.00    +0.000 OA
ATOM      4  H   UNL     1       2.371   6.844  20.441  0.00  0.00    +0.000 HD
ENDROOT
BRANCH   2   5
ATOM      5  C   UNL     1       1.469   9.028  19.993  0.00  0.00    +0.000 A 
ATOM      6  N   UNL     1       1.150   8.577  21.225  0.00  0.00    +0.000 NA
ATOM      7  N   UNL     1       0.616   9.655  21.843  0.00  0.00    +0.000 N 
ATOM      8  C   UNL     1       0.015   9.703  23.111  0.00  0.00    +0.000 A 
ATOM      9  C   UNL     1      -1.114  10.438  23.212  0.00  0.00    +0.000 A 
ATOM     10  C   UNL     1      -0.994  11.698  22.383  0.00  0.00    +0.000 A 
ATOM     11  N   UNL     1      -0.201  11.868  21.367  0.00  0.00    +0.000 NA
ATOM     12  C   UNL     1       0.521  10.760  21.001  0.00  0.00    +0.000 A 
ATOM     13  C   UNL     1       1.229  10.423  19.873  0.00  0.00    +0.000 A 
ATOM     14 CL   UNL     1       1.547  11.428  18.543  0.00  0.00    +0.000 Cl
ENDBRANCH   2   5
BRANCH   1  19
ATOM     15  C   UNL     1       4.089   4.601  17.082  0.00  0.00    +0.000 A 
ATOM     16  C   UNL     1       3.285   3.455  17.151  0.00  0.00    +0.000 A 
ATOM     17  C   UNL     1       2.201   3.414  18.024  0.00  0.00    +0.000 A 
ATOM     18  C   UNL     1       1.884   4.527  18.804  0.00  0.00    +0.000 A 
ATOM     19  C   UNL     1       2.622   5.707  18.699  0.00  0.00    +0.000 A 
ATOM     20  C   UNL     1       3.733   5.734  17.838  0.00  0.00    +0.000 A 
BRANCH  15  26
ATOM     21  C   UNL     1       6.552   4.020  12.965  0.00  0.00    +0.000 C 
ATOM     22  C   UNL     1       6.336   4.300  14.405  0.00  0.00    +0.000 A 
ATOM     23  C   UNL     1       7.289   4.631  15.378  0.00  0.00    +0.000 A 
ATOM     24  C   UNL     1       6.590   4.747  16.560  0.00  0.00    +0.000 A 
ATOM     25  C   UNL     1       7.140   4.899  17.935  0.00  0.00    +0.000 C 
ATOM     26  N   UNL     1       5.248   4.561  16.245  0.00  0.00    +0.000 N 
ATOM     27  N   UNL     1       5.113   4.229  14.928  0.00  0.00    +0.000 NA
ENDBRANCH  15  26
ENDBRANCH   1  19
TORSDOF 3
ENDMDL
MODEL 2
REMARK VINA RESULT:      -8.4      2.824      8.493
REMARK  Name = 
REMARK  5 active torsions:
REMARK  status: ('A' for Active; 'I' for Inactive)
REMARK    1  A    between atoms: C_1  and  C_2
REMARK    2  A    between atoms: C_4  and  C_5
REMARK    3  A    between atoms: N_6  and  C_7
REMARK    4  A    between atoms: C_11  and  N_12
REMARK    5  A    between atoms: C_13  and  C_15
REMARK                            x       y       z     vdW  Elec       q    Type
REMARK                         _______ _______ _______ _____ _____    ______ ____
ROOT
ATOM      1  N   UNL     1       2.541   7.210  20.024  0.00  0.00    +0.000 N 
ATOM      2  C   UNL     1       2.392   5.834  20.006  0.00  0.00    +0.000 C 
ATOM      3  O   UNL     1       1.463   5.206  20.509  0.00  0.00    +0.000 OA
ATOM      4  H   UNL     1       3.395   7.533  19.586  0.00  0.00    +0.000 HD
ENDROOT
BRANCH   2   5
ATOM      5  C   UNL     1       3.439   5.154  19.232  0.00  0.00    +0.000 A 
ATOM      6  N   UNL     1       4.745   5.372  19.495  0.00  0.00    +0.000 NA
ATOM      7  N   UNL     1       5.393   4.766  18.474  0.00  0.00    +0.000 N 
ATOM      8  C   UNL     1       6.769   4.790  18.200  0.00  0.00    +0.000 A 
ATOM      9  C   UNL     1       7.121   4.944  16.905  0.00  0.00    +0.000 A 
ATOM     10  C   UNL     1       6.185   4.158  16.012  0.00  0.00    +0.000 A 
ATOM     11  N   UNL     1       4.975   3.790  16.313  0.00  0.00    +0.000 NA
ATOM     12  C   UNL     1       4.519   4.233  17.529  0.00  0.00    +0.000 A 
ATOM     13  C   UNL     1       3.270   4.319  18.097  0.00  0.00    +0.000 A 
ATOM     14 CL   UNL     1       1.822   3.721  17.443  0.00  0.00    +0.000 Cl
ENDBRANCH   2   5
BRANCH   1  19
ATOM     15  C   UNL     1       0.061   9.982  20.003  0.00  0.00    +0.000 A 
ATOM     16  C   UNL     1      -0.159  10.165  21.375  0.00  0.00    +0.000 A 
ATOM     17  C   UNL     1       0.460   9.328  22.300  0.00  0.00    +0.000 A 
ATOM     18  C   UNL     1       1.333   8.329  21.869  0.00  0.00    +0.000 A 
ATOM     19  C   UNL     1       1.630   8.173  20.514  0.00  0.00    +0.000 A 
ATOM     20  C   UNL     1       0.980   9.003  19.582  0.00  0.00    +0.000 A 
BRANCH  15  26
ATOM     21  C   UNL     1      -3.437  11.046  16.844  0.00  0.00    +0.000 C 
ATOM     22  C   UNL     1      -2.234  11.266  17.682  0.00  0.00    +0.000 A 
ATOM     23  C   UNL     1      -1.459  12.428  17.802  0.00  0.00    +0.000 A 
ATOM     24  C   UNL     1      -0.434  12.106  18.665  0.00  0.00    +0.000 A 
ATOM     25  C   UNL     1       0.773  12.913  18.990  0.00  0.00    +0.000 C 
ATOM     26  N   UNL     1      -0.671  10.802  19.088  0.00  0.00    +0.000 N 
ATOM     27  N   UNL     1      -1.746  10.278  18.431  0.00  0.00    +0.000 NA
ENDBRANCH  15  26
ENDBRANCH   1  19
TORSDOF 3
ENDMDL
MODEL 3
REMARK VINA RESULT:      -8.4      2.671      8.607
REMARK  Name = 
REMARK  5 active torsions:
REMARK  status: ('A' for Active; 'I' for Inactive)
REMARK    1  A    between atoms: C_1  and  C_2
REMARK    2  A    between atoms: C_4  and  C_5
REMARK    3  A    between atoms: N_6  and  C_7
REMARK    4  A    between atoms: C_11  and  N_12
REMARK    5  A    between atoms: C_13  and  C_15
REMARK                            x       y       z     vdW  Elec       q    Type
REMARK                         _______ _______ _______ _____ _____    ______ ____
ROOT
ATOM      1  N   UNL     1       2.423   7.229  20.082  0.00  0.00    +0.000 N 
ATOM      2  C   UNL     1       2.298   5.851  20.067  0.00  0.00    +0.000 C 
ATOM      3  O   UNL     1       1.394   5.206  20.595  0.00  0.00    +0.000 OA
ATOM      4  H   UNL     1       3.260   7.567  19.622  0.00  0.00    +0.000 HD
ENDROOT
BRANCH   2   5
ATOM      5  C   UNL     1       3.335   5.189  19.264  0.00  0.00    +0.000 A 
ATOM      6  N   UNL     1       4.644   5.372  19.540  0.00  0.00    +0.000 NA
ATOM      7  N   UNL     1       5.284   4.803  18.492  0.00  0.00    +0.000 N 
ATOM      8  C   UNL     1       6.662   4.815  18.223  0.00  0.00    +0.000 A 
ATOM      9  C   UNL     1       7.020   5.024  16.937  0.00  0.00    +0.000 A 
ATOM     10  C   UNL     1       6.073   4.298  16.006  0.00  0.00    +0.000 A 
ATOM     11  N   UNL     1       4.856   3.938  16.287  0.00  0.00    +0.000 NA
ATOM     12  C   UNL     1       4.404   4.331  17.522  0.00  0.00    +0.000 A 
ATOM     13  C   UNL     1       3.155   4.412  18.090  0.00  0.00    +0.000 A 
ATOM     14 CL   UNL     1       1.699   3.871  17.406  0.00  0.00    +0.000 Cl
ENDBRANCH   2   5
BRANCH   1  19
ATOM     15  C   UNL     1       0.243  10.239  20.231  0.00  0.00    +0.000 A 
ATOM     16  C   UNL     1      -0.254  10.154  21.538  0.00  0.00    +0.000 A 
ATOM     17  C   UNL     1       0.078   9.067  22.343  0.00  0.00    +0.000 A 
ATOM     18  C   UNL     1       0.939   8.078  21.868  0.00  0.00    +0.000 A 
ATOM     19  C   UNL     1       1.510   8.176  20.598  0.00  0.00    +0.000 A 
ATOM     20  C   UNL     1       1.149   9.260  19.779  0.00  0.00    +0.000 A 
BRANCH  15  26
ATOM     21  C   UNL     1      -0.075  14.828  18.753  0.00  0.00    +0.000 C 
ATOM     22  C   UNL     1      -0.338  13.369  18.759  0.00  0.00    +0.000 A 
ATOM     23  C   UNL     1      -1.145  12.628  17.885  0.00  0.00    +0.000 A 
ATOM     24  C   UNL     1      -1.091  11.328  18.339  0.00  0.00    +0.000 A 
ATOM     25  C   UNL     1      -1.910  10.170  17.891  0.00  0.00    +0.000 C 
ATOM     26  N   UNL     1      -0.202  11.321  19.409  0.00  0.00    +0.000 N 
ATOM     27  N   UNL     1       0.207  12.592  19.694  0.00  0.00    +0.000 NA
ENDBRANCH  15  26
ENDBRANCH   1  19
TORSDOF 3
ENDMDL
MODEL 4
REMARK VINA RESULT:      -8.2      1.725      2.046
REMARK  Name = 
REMARK  5 active torsions:
REMARK  status: ('A' for Active; 'I' for Inactive)
REMARK    1  A    between atoms: C_1  and  C_2
REMARK    2  A    between atoms: C_4  and  C_5
REMARK    3  A    between atoms: N_6  and  C_7
REMARK    4  A    between atoms: C_11  and  N_12
REMARK    5  A    between atoms: C_13  and  C_15
REMARK                            x       y       z     vdW  Elec       q    Type
REMARK                         _______ _______ _______ _____ _____    ______ ____
ROOT
ATOM      1  N   UNL     1       1.816   8.106  19.657  0.00  0.00    +0.000 N 
ATOM      2  C   UNL     1       1.553   8.980  18.617  0.00  0.00    +0.000 C 
ATOM      3  O   UNL     1       1.854   8.805  17.438  0.00  0.00    +0.000 OA
ATOM      4  H   UNL     1       1.522   8.450  20.563  0.00  0.00    +0.000 HD
ENDROOT
BRANCH   2   5
ATOM      5  C   UNL     1       0.777  10.154  19.038  0.00  0.00    +0.000 A 
ATOM      6  N   UNL     1       1.214  10.950  20.037  0.00  0.00    +0.000 NA
ATOM      7  N   UNL     1       0.169  11.772  20.284  0.00  0.00    +0.000 N 
ATOM      8  C   UNL     1       0.053  12.722  21.312  0.00  0.00    +0.000 A 
ATOM      9  C   UNL     1      -1.143  12.786  21.938  0.00  0.00    +0.000 A 
ATOM     10  C   UNL     1      -2.266  12.611  20.938  0.00  0.00    +0.000 A 
ATOM     11  N   UNL     1      -2.172  12.022  19.783  0.00  0.00    +0.000 NA
ATOM     12  C   UNL     1      -0.949  11.462  19.514  0.00  0.00    +0.000 A 
ATOM     13  C   UNL     1      -0.511  10.546  18.587  0.00  0.00    +0.000 A 
ATOM     14 CL   UNL     1      -1.418   9.890  17.311  0.00  0.00    +0.000 Cl
ENDBRANCH   2   5
BRANCH   1  19
ATOM     15  C   UNL     1       4.013   5.325  18.526  0.00  0.00    +0.000 A 
ATOM     16  C   UNL     1       3.523   4.259  19.291  0.00  0.00    +0.000 A 
ATOM     17  C   UNL     1       2.516   4.475  20.228  0.00  0.00    +0.000 A 
ATOM     18  C   UNL     1       1.960   5.745  20.380  0.00  0.00    +0.000 A 
ATOM     19  C   UNL     1       2.375   6.809  19.578  0.00  0.00    +0.000 A 
ATOM     20  C   UNL     1       3.413   6.592  18.655  0.00  0.00    +0.000 A 
BRANCH  15  26
ATOM     21  C   UNL     1       6.184   3.916  14.445  0.00  0.00    +0.000 C 
ATOM     22  C   UNL     1       6.072   4.445  15.826  0.00  0.00    +0.000 A 
ATOM     23  C   UNL     1       7.099   4.873  16.678  0.00  0.00    +0.000 A 
ATOM     24  C   UNL     1       6.481   5.227  17.858  0.00  0.00    +0.000 A 
ATOM     25  C   UNL     1       7.122   5.572  19.157  0.00  0.00    +0.000 C 
ATOM     26  N   UNL     1       5.115   5.075  17.649  0.00  0.00    +0.000 N 
ATOM     27  N   UNL     1       4.881   4.537  16.416  0.00  0.00    +0.000 NA
ENDBRANCH  15  26
ENDBRANCH   1  19
TORSDOF 3
ENDMDL
MODEL 5
REMARK VINA RESULT:      -8.1      1.674      2.110
REMARK  Name = 
REMARK  5 active torsions:
REMARK  status: ('A' for Active; 'I' for Inactive)
REMARK    1  A    between atoms: C_1  and  C_2
REMARK    2  A    between atoms: C_4  and  C_5
REMARK    3  A    between atoms: N_6  and  C_7
REMARK    4  A    between atoms: C_11  and  N_12
REMARK    5  A    between atoms: C_13  and  C_15
REMARK                            x       y       z     vdW  Elec       q    Type
REMARK                         _______ _______ _______ _____ _____    ______ ____
ROOT
ATOM      1  N   UNL     1       2.195   7.757  19.545  0.00  0.00    +0.000 N 
ATOM      2  C   UNL     1       1.829   8.703  18.604  0.00  0.00    +0.000 C 
ATOM      3  O   UNL     1       1.982   8.603  17.389  0.00  0.00    +0.000 OA
ATOM      4  H   UNL     1       2.019   8.044  20.500  0.00  0.00    +0.000 HD
ENDROOT
BRANCH   2   5
ATOM      5  C   UNL     1       1.135   9.857  19.191  0.00  0.00    +0.000 A 
ATOM      6  N   UNL     1       1.233  11.081  18.631  0.00  0.00    +0.000 NA
ATOM      7  N   UNL     1       0.662  11.906  19.539  0.00  0.00    +0.000 N 
ATOM      8  C   UNL     1       0.604  13.308  19.503  0.00  0.00    +0.000 A 
ATOM      9  C   UNL     1       0.832  13.948  20.671  0.00  0.00    +0.000 A 
ATOM     10  C   UNL     1       0.190  13.193  21.815  0.00  0.00    +0.000 A 
ATOM     11  N   UNL     1      -0.109  11.928  21.819  0.00  0.00    +0.000 NA
ATOM     12  C   UNL     1       0.272  11.237  20.696  0.00  0.00    +0.000 A 
ATOM     13  C   UNL     1       0.405   9.899  20.408  0.00  0.00    +0.000 A 
ATOM     14 CL   UNL     1      -0.030   8.603  21.414  0.00  0.00    +0.000 Cl
ENDBRANCH   2   5
BRANCH   1  19
ATOM     15  C   UNL     1       4.233   5.042  18.025  0.00  0.00    +0.000 A 
ATOM     16  C   UNL     1       3.769   3.923  18.728  0.00  0.00    +0.000 A 
ATOM     17  C   UNL     1       2.835   4.077  19.749  0.00  0.00    +0.000 A 
ATOM     18  C   UNL     1       2.325   5.340  20.050  0.00  0.00    +0.000 A 
ATOM     19  C   UNL     1       2.712   6.462  19.315  0.00  0.00    +0.000 A 
ATOM     20  C   UNL     1       3.677   6.305  18.305  0.00  0.00    +0.000 A 
BRANCH  15  26
ATOM     21  C   UNL     1       6.089   3.844  13.727  0.00  0.00    +0.000 C 
ATOM     22  C   UNL     1       6.081   4.311  15.134  0.00  0.00    +0.000 A 
ATOM     23  C   UNL     1       7.167   4.719  15.920  0.00  0.00    +0.000 A 
ATOM     24  C   UNL     1       6.641   5.012  17.160  0.00  0.00    +0.000 A 
ATOM     25  C   UNL     1       7.379   5.311  18.418  0.00  0.00    +0.000 C 
ATOM     26  N   UNL     1       5.264   4.847  17.053  0.00  0.00    +0.000 N 
ATOM     27  N   UNL     1       4.940   4.359  15.820  0.00  0.00    +0.000 NA
ENDBRANCH  15  26
ENDBRANCH   1  19
TORSDOF 3
ENDMDL
MODEL 6
REMARK VINA RESULT:      -8.1      1.377      1.685
REMARK  Name = 
REMARK  5 active torsions:
REMARK  status: ('A' for Active; 'I' for Inactive)
REMARK    1  A    between atoms: C_1  and  C_2
REMARK    2  A    between atoms: C_4  and  C_5
REMARK    3  A    between atoms: N_6  and  C_7
REMARK    4  A    between atoms: C_11  and  N_12
REMARK    5  A    between atoms: C_13  and  C_15
REMARK                            x       y       z     vdW  Elec       q    Type
REMARK                         _______ _______ _______ _____ _____    ______ ____
ROOT
ATOM      1  N   UNL     1       2.119   7.917  19.431  0.00  0.00    +0.000 N 
ATOM      2  C   UNL     1       1.752   8.907  18.538  0.00  0.00    +0.000 C 
ATOM      3  O   UNL     1       1.822   8.831  17.313  0.00  0.00    +0.000 OA
ATOM      4  H   UNL     1       2.022   8.187  20.403  0.00  0.00    +0.000 HD
ENDROOT
BRANCH   2   5
ATOM      5  C   UNL     1       1.168  10.084  19.195  0.00  0.00    +0.000 A 
ATOM      6  N   UNL     1       0.173   9.950  20.097  0.00  0.00    +0.000 NA
ATOM      7  N   UNL     1      -0.246  11.217  20.317  0.00  0.00    +0.000 N 
ATOM      8  C   UNL     1      -1.342  11.634  21.088  0.00  0.00    +0.000 A 
ATOM      9  C   UNL     1      -2.101  12.623  20.568  0.00  0.00    +0.000 A 
ATOM     10  C   UNL     1      -1.224  13.649  19.882  0.00  0.00    +0.000 A 
ATOM     11  N   UNL     1      -0.028  13.440  19.418  0.00  0.00    +0.000 NA
ATOM     12  C   UNL     1       0.414  12.144  19.514  0.00  0.00    +0.000 A 
ATOM     13  C   UNL     1       1.444  11.450  18.925  0.00  0.00    +0.000 A 
ATOM     14 CL   UNL     1       2.651  12.096  17.921  0.00  0.00    +0.000 Cl
ENDBRANCH   2   5
BRANCH   1  19
ATOM     15  C   UNL     1       4.047   5.144  17.871  0.00  0.00    +0.000 A 
ATOM     16  C   UNL     1       3.423   4.024  18.435  0.00  0.00    +0.000 A 
ATOM     17  C   UNL     1       2.413   4.187  19.379  0.00  0.00    +0.000 A 
ATOM     18  C   UNL     1       1.989   5.466  19.740  0.00  0.00    +0.000 A 
ATOM     19  C   UNL     1       2.541   6.599  19.139  0.00  0.00    +0.000 A 
ATOM     20  C   UNL     1       3.580   6.429  18.207  0.00  0.00    +0.000 A 
BRANCH  15  26
ATOM     21  C   UNL     1       6.199   3.886  13.732  0.00  0.00    +0.000 C 
ATOM     22  C   UNL     1       6.094   4.364  15.131  0.00  0.00    +0.000 A 
ATOM     23  C   UNL     1       7.125   4.763  15.994  0.00  0.00    +0.000 A 
ATOM     24  C   UNL     1       6.512   5.074  17.189  0.00  0.00    +0.000 A 
ATOM     25  C   UNL     1       7.159   5.371  18.496  0.00  0.00    +0.000 C 
ATOM     26  N   UNL     1       5.145   4.927  16.980  0.00  0.00    +0.000 N 
ATOM     27  N   UNL     1       4.906   4.434  15.730  0.00  0.00    +0.000 NA
ENDBRANCH  15  26
ENDBRANCH   1  19
TORSDOF 3
ENDMDL
MODEL 7
REMARK VINA RESULT:      -8.0      4.214      9.835
REMARK  Name = 
REMARK  5 active torsions:
REMARK  status: ('A' for Active; 'I' for Inactive)
REMARK    1  A    between atoms: C_1  and  C_2
REMARK    2  A    between atoms: C_4  and  C_5
REMARK    3  A    between atoms: N_6  and  C_7
REMARK    4  A    between atoms: C_11  and  N_12
REMARK    5  A    between atoms: C_13  and  C_15
REMARK                            x       y       z     vdW  Elec       q    Type
REMARK                         _______ _______ _______ _____ _____    ______ ____
ROOT
ATOM      1  N   UNL     1      -0.769   9.691  17.452  0.00  0.00    +0.000 N 
ATOM      2  C   UNL     1       0.258  10.219  18.215  0.00  0.00    +0.000 C 
ATOM      3  O   UNL     1       0.283  11.346  18.703  0.00  0.00    +0.000 OA
ATOM      4  H   UNL     1      -0.583   8.756  17.109  0.00  0.00    +0.000 HD
ENDROOT
BRANCH   2   5
ATOM      5  C   UNL     1       1.333   9.252  18.477  0.00  0.00    +0.000 A 
ATOM      6  N   UNL     1       2.234   8.944  17.520  0.00  0.00    +0.000 NA
ATOM      7  N   UNL     1       2.914   7.893  18.034  0.00  0.00    +0.000 N 
ATOM      8  C   UNL     1       3.890   7.112  17.396  0.00  0.00    +0.000 A 
ATOM      9  C   UNL     1       3.819   5.779  17.599  0.00  0.00    +0.000 A 
ATOM     10  C   UNL     1       3.436   5.488  19.034  0.00  0.00    +0.000 A 
ATOM     11  N   UNL     1       2.807   6.297  19.833  0.00  0.00    +0.000 NA
ATOM     12  C   UNL     1       2.410   7.482  19.265  0.00  0.00    +0.000 A 
ATOM     13  C   UNL     1       1.516   8.458  19.639  0.00  0.00    +0.000 A 
ATOM     14 CL   UNL     1       0.673   8.543  21.110  0.00  0.00    +0.000 Cl
ENDBRANCH   2   5
BRANCH   1  19
ATOM     15  C   UNL     1      -4.067  11.311  18.031  0.00  0.00    +0.000 A 
ATOM     16  C   UNL     1      -4.563  11.400  16.724  0.00  0.00    +0.000 A 
ATOM     17  C   UNL     1      -3.779  10.989  15.649  0.00  0.00    +0.000 A 
ATOM     18  C   UNL     1      -2.513  10.447  15.870  0.00  0.00    +0.000 A 
ATOM     19  C   UNL     1      -2.024  10.275  17.166  0.00  0.00    +0.000 A 
ATOM     20  C   UNL     1      -2.808  10.719  18.246  0.00  0.00    +0.000 A 
BRANCH  15  26
ATOM     21  C   UNL     1      -5.097  14.145  21.807  0.00  0.00    +0.000 C 
ATOM     22  C   UNL     1      -5.317  13.103  20.775  0.00  0.00    +0.000 A 
ATOM     23  C   UNL     1      -6.459  12.319  20.561  0.00  0.00    +0.000 A 
ATOM     24  C   UNL     1      -6.144  11.478  19.516  0.00  0.00    +0.000 A 
ATOM     25  C   UNL     1      -6.927  10.319  19.009  0.00  0.00    +0.000 C 
ATOM     26  N   UNL     1      -4.868  11.836  19.093  0.00  0.00    +0.000 N 
ATOM     27  N   UNL     1      -4.348  12.795  19.914  0.00  0.00    +0.000 NA
ENDBRANCH  15  26
ENDBRANCH   1  19
TORSDOF 3
ENDMDL
MODEL 8
REMARK VINA RESULT:      -7.9      1.886      2.376
REMARK  Name = 
REMARK  5 active torsions:
REMARK  status: ('A' for Active; 'I' for Inactive)
REMARK    1  A    between atoms: C_1  and  C_2
REMARK    2  A    between atoms: C_4  and  C_5
REMARK    3  A    between atoms: N_6  and  C_7
REMARK    4  A    between atoms: C_11  and  N_12
REMARK    5  A    between atoms: C_13  and  C_15
REMARK                            x       y       z     vdW  Elec       q    Type
REMARK                         _______ _______ _______ _____ _____    ______ ____
ROOT
ATOM      1  N   UNL     1       2.221   7.597  19.226  0.00  0.00    +0.000 N 
ATOM      2  C   UNL     1       1.432   7.951  20.306  0.00  0.00    +0.000 C 
ATOM      3  O   UNL     1       1.126   7.217  21.242  0.00  0.00    +0.000 OA
ATOM      4  H   UNL     1       2.326   8.334  18.539  0.00  0.00    +0.000 HD
ENDROOT
BRANCH   2   5
ATOM      5  C   UNL     1       1.034   9.365  20.286  0.00  0.00    +0.000 A 
ATOM      6  N   UNL     1       1.156  10.103  19.162  0.00  0.00    +0.000 NA
ATOM      7  N   UNL     1       0.909  11.369  19.570  0.00  0.00    +0.000 N 
ATOM      8  C   UNL     1       1.018  12.547  18.814  0.00  0.00    +0.000 A 
ATOM      9  C   UNL     1       1.579  13.608  19.435  0.00  0.00    +0.000 A 
ATOM     10  C   UNL     1       1.121  13.673  20.876  0.00  0.00    +0.000 A 
ATOM     11  N   UNL     1       0.677  12.673  21.579  0.00  0.00    +0.000 NA
ATOM     12  C   UNL     1       0.707  11.457  20.945  0.00  0.00    +0.000 A 
ATOM     13  C   UNL     1       0.607  10.158  21.384  0.00  0.00    +0.000 A 
ATOM     14 CL   UNL     1       0.251   9.653  22.965  0.00  0.00    +0.000 Cl
ENDBRANCH   2   5
BRANCH   1  19
ATOM     15  C   UNL     1       4.495   5.112  17.650  0.00  0.00    +0.000 A 
ATOM     16  C   UNL     1       4.310   4.001  18.484  0.00  0.00    +0.000 A 
ATOM     17  C   UNL     1       3.487   4.097  19.603  0.00  0.00    +0.000 A 
ATOM     18  C   UNL     1       2.811   5.286  19.878  0.00  0.00    +0.000 A 
ATOM     19  C   UNL     1       2.917   6.384  19.023  0.00  0.00    +0.000 A 
ATOM     20  C   UNL     1       3.772   6.291  17.910  0.00  0.00    +0.000 A 
BRANCH  15  26
ATOM     21  C   UNL     1       6.096   3.645  13.333  0.00  0.00    +0.000 C 
ATOM     22  C   UNL     1       6.129   4.336  14.644  0.00  0.00    +0.000 A 
ATOM     23  C   UNL     1       7.158   5.116  15.189  0.00  0.00    +0.000 A 
ATOM     24  C   UNL     1       6.718   5.492  16.441  0.00  0.00    +0.000 A 
ATOM     25  C   UNL     1       7.493   6.168  17.516  0.00  0.00    +0.000 C 
ATOM     26  N   UNL     1       5.425   4.995  16.569  0.00  0.00    +0.000 N 
ATOM     27  N   UNL     1       5.098   4.236  15.482  0.00  0.00    +0.000 NA
ENDBRANCH  15  26
ENDBRANCH   1  19
TORSDOF 3
ENDMDL
MODEL 9
REMARK VINA RESULT:      -7.9      3.583      9.019
REMARK  Name = 
REMARK  5 active torsions:
REMARK  status: ('A' for Active; 'I' for Inactive)
REMARK    1  A    between atoms: C_1  and  C_2
REMARK    2  A    between atoms: C_4  and  C_5
REMARK    3  A    between atoms: N_6  and  C_7
REMARK    4  A    between atoms: C_11  and  N_12
REMARK    5  A    between atoms: C_13  and  C_15
REMARK                            x       y       z     vdW  Elec       q    Type
REMARK                         _______ _______ _______ _____ _____    ______ ____
ROOT
ATOM      1  N   UNL     1       1.148   9.025  18.798  0.00  0.00    +0.000 N 
ATOM      2  C   UNL     1       2.165   8.495  18.025  0.00  0.00    +0.000 C 
ATOM      3  O   UNL     1       2.633   9.002  17.008  0.00  0.00    +0.000 OA
ATOM      4  H   UNL     1       0.878   8.436  19.577  0.00  0.00    +0.000 HD
ENDROOT
BRANCH   2   5
ATOM      5  C   UNL     1       2.726   7.258  18.585  0.00  0.00    +0.000 A 
ATOM      6  N   UNL     1       3.593   6.507  17.873  0.00  0.00    +0.000 NA
ATOM      7  N   UNL     1       3.719   5.372  18.598  0.00  0.00    +0.000 N 
ATOM      8  C   UNL     1       4.418   4.207  18.248  0.00  0.00    +0.000 A 
ATOM      9  C   UNL     1       3.809   3.034  18.528  0.00  0.00    +0.000 A 
ATOM     10  C   UNL     1       3.101   3.119  19.863  0.00  0.00    +0.000 A 
ATOM     11  N   UNL     1       2.700   4.211  20.444  0.00  0.00    +0.000 NA
ATOM     12  C   UNL     1       2.891   5.359  19.718  0.00  0.00    +0.000 A 
ATOM     13  C   UNL     1       2.387   6.635  19.815  0.00  0.00    +0.000 A 
ATOM     14 CL   UNL     1       1.398   7.237  21.056  0.00  0.00    +0.000 Cl
ENDBRANCH   2   5
BRANCH   1  19
ATOM     15  C   UNL     1      -1.536  11.517  18.147  0.00  0.00    +0.000 A 
ATOM     16  C   UNL     1      -0.833  12.721  18.284  0.00  0.00    +0.000 A 
ATOM     17  C   UNL     1       0.508  12.709  18.659  0.00  0.00    +0.000 A 
ATOM     18  C   UNL     1       1.170  11.497  18.859  0.00  0.00    +0.000 A 
ATOM     19  C   UNL     1       0.516  10.282  18.655  0.00  0.00    +0.000 A 
ATOM     20  C   UNL     1      -0.846  10.300  18.305  0.00  0.00    +0.000 A 
BRANCH  15  26
ATOM     21  C   UNL     1      -6.226  12.170  19.111  0.00  0.00    +0.000 C 
ATOM     22  C   UNL     1      -5.022  11.876  18.297  0.00  0.00    +0.000 A 
ATOM     23  C   UNL     1      -4.951  11.574  16.930  0.00  0.00    +0.000 A 
ATOM     24  C   UNL     1      -3.618  11.340  16.669  0.00  0.00    +0.000 A 
ATOM     25  C   UNL     1      -3.013  10.799  15.422  0.00  0.00    +0.000 C 
ATOM     26  N   UNL     1      -2.935  11.582  17.857  0.00  0.00    +0.000 N 
ATOM     27  N   UNL     1      -3.817  11.853  18.863  0.00  0.00    +0.000 NA
ENDBRANCH  15  26
ENDBRANCH   1  19
TORSDOF 3
ENDMDL
