MODEL 1
REMARK VINA RESULT:      -9.1      0.000      0.000
REMARK  Name = 
REMARK  6 active torsions:
REMARK  status: ('A' for Active; 'I' for Inactive)
REMARK    1  A    between atoms: C_2  and  C_3
REMARK    2  A    between atoms: C_3  and  C_4
REMARK    3  A    between atoms: C_4  and  N_5
REMARK    4  A    between atoms: N_16  and  C_17
REMARK    5  A    between atoms: C_20  and  S_21
REMARK    6  A    between atoms: S_21  and  N_24
REMARK                            x       y       z     vdW  Elec       q    Type
REMARK                         _______ _______ _______ _____ _____    ______ ____
ROOT
ATOM      1  O   UNL     1      -0.706   8.122  21.388  0.00  0.00    +0.000 OA
ATOM      2  C   UNL     1       0.175   8.964  21.244  0.00  0.00    +0.000 C 
ATOM      3  N   UNL     1       1.410   8.757  20.643  0.00  0.00    +0.000 N 
ATOM      4  H   UNL     1       2.105   9.484  20.758  0.00  0.00    +0.000 HD
ENDROOT
BRANCH   3   5
ATOM      5  C   UNL     1       1.864   7.553  20.053  0.00  0.00    +0.000 A 
ATOM      6  C   UNL     1       2.374   7.483  18.755  0.00  0.00    +0.000 A 
ATOM      7  C   UNL     1       2.744   6.254  18.201  0.00  0.00    +0.000 A 
ATOM      8  C   UNL     1       2.647   5.085  18.957  0.00  0.00    +0.000 A 
ATOM      9  C   UNL     1       2.165   5.141  20.267  0.00  0.00    +0.000 A 
ATOM     10  C   UNL     1       1.788   6.375  20.813  0.00  0.00    +0.000 A 
BRANCH   8  11
ATOM     11  S   UNL     1       2.966   3.519  18.179  0.00  0.00    +0.000 S 
ATOM     12  O   UNL     1       3.178   2.545  19.234  0.00  0.00    +0.000 OA
ATOM     13  O   UNL     1       1.968   3.280  17.160  0.00  0.00    +0.000 OA
BRANCH  11  14
ATOM     14  N   UNL     1       4.459   3.673  17.436  0.00  0.00    +0.000 N 
ATOM     15  C   UNL     1       5.524   4.391  17.967  0.00  0.00    +0.000 C 
ATOM     16  N   UNL     1       5.705   4.539  19.235  0.00  0.00    +0.000 NA
ATOM     17  C   UNL     1       6.901   5.379  19.376  0.00  0.00    +0.000 C 
ATOM     18  C   UNL     1       7.622   5.311  18.041  0.00  0.00    +0.000 C 
ATOM     19  C   UNL     1       6.512   5.034  17.053  0.00  0.00    +0.000 C 
ATOM     20  H   UNL     1       4.389   3.493  16.437  0.00  0.00    +0.000 HD
ENDBRANCH  11  14
ENDBRANCH   8  11
ENDBRANCH   3   5
BRANCH   2  21
ATOM     21  C   UNL     1      -0.022  10.395  21.712  0.00  0.00    +0.000 C 
BRANCH  21  22
ATOM     22  C   UNL     1       0.200  11.378  20.563  0.00  0.00    +0.000 C 
BRANCH  22  23
ATOM     23  N   UNL     1      -0.837  11.272  19.549  0.00  0.00    +0.000 N 
ATOM     24  C   UNL     1      -0.705  10.574  18.380  0.00  0.00    +0.000 C 
ATOM     25  O   UNL     1       0.242   9.926  17.978  0.00  0.00    +0.000 OA
ATOM     26  C   UNL     1      -1.975  10.710  17.667  0.00  0.00    +0.000 A 
ATOM     27  C   UNL     1      -2.375  10.220  16.439  0.00  0.00    +0.000 A 
ATOM     28  C   UNL     1      -3.681  10.506  16.028  0.00  0.00    +0.000 A 
ATOM     29  C   UNL     1      -4.545  11.265  16.845  0.00  0.00    +0.000 A 
ATOM     30  C   UNL     1      -4.117  11.752  18.084  0.00  0.00    +0.000 A 
ATOM     31  C   UNL     1      -2.823  11.456  18.466  0.00  0.00    +0.000 A 
ATOM     32  C   UNL     1      -2.094  11.800  19.684  0.00  0.00    +0.000 C 
ATOM     33  O   UNL     1      -2.574  12.414  20.616  0.00  0.00    +0.000 OA
ENDBRANCH  22  23
ENDBRANCH  21  22
ENDBRANCH   2  21
TORSDOF 6
ENDMDL
MODEL 2
REMARK VINA RESULT:      -9.1      2.360      9.027
REMARK  Name = 
REMARK  6 active torsions:
REMARK  status: ('A' for Active; 'I' for Inactive)
REMARK    1  A    between atoms: C_2  and  C_3
REMARK    2  A    between atoms: C_3  and  C_4
REMARK    3  A    between atoms: C_4  and  N_5
REMARK    4  A    between atoms: N_16  and  C_17
REMARK    5  A    between atoms: C_20  and  S_21
REMARK    6  A    between atoms: S_21  and  N_24
REMARK                            x       y       z     vdW  Elec       q    Type
REMARK                         _______ _______ _______ _____ _____    ______ ____
ROOT
ATOM      1  O   UNL     1       0.752   4.933  20.530  0.00  0.00    +0.000 OA
ATOM      2  C   UNL     1       1.963   5.130  20.530  0.00  0.00    +0.000 C 
ATOM      3  N   UNL     1       2.592   6.352  20.328  0.00  0.00    +0.000 N 
ATOM      4  H   UNL     1       3.592   6.334  20.170  0.00  0.00    +0.000 HD
ENDROOT
BRANCH   3   5
ATOM      5  C   UNL     1       1.954   7.598  20.124  0.00  0.00    +0.000 A 
ATOM      6  C   UNL     1       1.238   8.263  21.122  0.00  0.00    +0.000 A 
ATOM      7  C   UNL     1       0.572   9.459  20.843  0.00  0.00    +0.000 A 
ATOM      8  C   UNL     1       0.649  10.027  19.570  0.00  0.00    +0.000 A 
ATOM      9  C   UNL     1       1.383   9.390  18.568  0.00  0.00    +0.000 A 
ATOM     10  C   UNL     1       2.041   8.186  18.852  0.00  0.00    +0.000 A 
BRANCH   8  11
ATOM     11  S   UNL     1      -0.338  11.457  19.196  0.00  0.00    +0.000 S 
ATOM     12  O   UNL     1      -1.546  11.371  19.995  0.00  0.00    +0.000 OA
ATOM     13  O   UNL     1       0.492  12.640  19.259  0.00  0.00    +0.000 OA
BRANCH  11  14
ATOM     14  N   UNL     1      -0.858  11.254  17.617  0.00  0.00    +0.000 N 
ATOM     15  C   UNL     1      -2.189  11.106  17.247  0.00  0.00    +0.000 C 
ATOM     16  N   UNL     1      -3.162  11.630  17.911  0.00  0.00    +0.000 NA
ATOM     17  C   UNL     1      -4.390  11.214  17.222  0.00  0.00    +0.000 C 
ATOM     18  C   UNL     1      -3.962  10.764  15.836  0.00  0.00    +0.000 C 
ATOM     19  C   UNL     1      -2.536  10.306  16.037  0.00  0.00    +0.000 C 
ATOM     20  H   UNL     1      -0.104  10.909  17.027  0.00  0.00    +0.000 HD
ENDBRANCH  11  14
ENDBRANCH   8  11
ENDBRANCH   3   5
BRANCH   2  21
ATOM     21  C   UNL     1       2.942   3.998  20.790  0.00  0.00    +0.000 C 
BRANCH  21  22
ATOM     22  C   UNL     1       2.965   3.019  19.617  0.00  0.00    +0.000 C 
BRANCH  22  23
ATOM     23  N   UNL     1       3.847   3.467  18.551  0.00  0.00    +0.000 N 
ATOM     24  C   UNL     1       3.481   3.567  17.237  0.00  0.00    +0.000 C 
ATOM     25  O   UNL     1       2.406   3.330  16.721  0.00  0.00    +0.000 OA
ATOM     26  C   UNL     1       4.651   4.069  16.515  0.00  0.00    +0.000 A 
ATOM     27  C   UNL     1       4.833   4.336  15.172  0.00  0.00    +0.000 A 
ATOM     28  C   UNL     1       6.080   4.837  14.781  0.00  0.00    +0.000 A 
ATOM     29  C   UNL     1       7.100   5.056  15.730  0.00  0.00    +0.000 A 
ATOM     30  C   UNL     1       6.892   4.776  17.084  0.00  0.00    +0.000 A 
ATOM     31  C   UNL     1       5.653   4.282  17.444  0.00  0.00    +0.000 A 
ATOM     32  C   UNL     1       5.126   3.912  18.755  0.00  0.00    +0.000 C 
ATOM     33  O   UNL     1       5.744   4.026  19.796  0.00  0.00    +0.000 OA
ENDBRANCH  22  23
ENDBRANCH  21  22
ENDBRANCH   2  21
TORSDOF 6
ENDMDL
MODEL 3
REMARK VINA RESULT:      -8.9      1.122      2.194
REMARK  Name = 
REMARK  6 active torsions:
REMARK  status: ('A' for Active; 'I' for Inactive)
REMARK    1  A    between atoms: C_2  and  C_3
REMARK    2  A    between atoms: C_3  and  C_4
REMARK    3  A    between atoms: C_4  and  N_5
REMARK    4  A    between atoms: N_16  and  C_17
REMARK    5  A    between atoms: C_20  and  S_21
REMARK    6  A    between atoms: S_21  and  N_24
REMARK                            x       y       z     vdW  Elec       q    Type
REMARK                         _______ _______ _______ _____ _____    ______ ____
ROOT
ATOM      1  O   UNL     1       1.877   9.110  22.422  0.00  0.00    +0.000 OA
ATOM      2  C   UNL     1       0.994   9.151  21.571  0.00  0.00    +0.000 C 
ATOM      3  N   UNL     1       0.899   8.332  20.454  0.00  0.00    +0.000 N 
ATOM      4  H   UNL     1       0.227   8.598  19.744  0.00  0.00    +0.000 HD
ENDROOT
BRANCH   3   5
ATOM      5  C   UNL     1       1.777   7.277  20.112  0.00  0.00    +0.000 A 
ATOM      6  C   UNL     1       2.700   7.358  19.067  0.00  0.00    +0.000 A 
ATOM      7  C   UNL     1       3.495   6.258  18.732  0.00  0.00    +0.000 A 
ATOM      8  C   UNL     1       3.403   5.075  19.468  0.00  0.00    +0.000 A 
ATOM      9  C   UNL     1       2.505   4.985  20.533  0.00  0.00    +0.000 A 
ATOM     10  C   UNL     1       1.705   6.089  20.858  0.00  0.00    +0.000 A 
BRANCH   8  11
ATOM     11  S   UNL     1       4.301   3.642  18.921  0.00  0.00    +0.000 S 
ATOM     12  O   UNL     1       4.749   2.932  20.105  0.00  0.00    +0.000 OA
ATOM     13  O   UNL     1       3.531   2.952  17.910  0.00  0.00    +0.000 OA
BRANCH  11  14
ATOM     14  N   UNL     1       5.705   4.222  18.217  0.00  0.00    +0.000 N 
ATOM     15  C   UNL     1       5.890   4.365  16.847  0.00  0.00    +0.000 C 
ATOM     16  N   UNL     1       4.920   4.605  16.032  0.00  0.00    +0.000 NA
ATOM     17  C   UNL     1       5.521   4.647  14.693  0.00  0.00    +0.000 C 
ATOM     18  C   UNL     1       7.011   4.845  14.907  0.00  0.00    +0.000 C 
ATOM     19  C   UNL     1       7.258   4.234  16.267  0.00  0.00    +0.000 C 
ATOM     20  H   UNL     1       6.497   4.124  18.849  0.00  0.00    +0.000 HD
ENDBRANCH  11  14
ENDBRANCH   8  11
ENDBRANCH   3   5
BRANCH   2  21
ATOM     21  C   UNL     1      -0.154  10.140  21.678  0.00  0.00    +0.000 C 
BRANCH  21  22
ATOM     22  C   UNL     1      -0.011  11.253  20.640  0.00  0.00    +0.000 C 
BRANCH  22  23
ATOM     23  N   UNL     1      -1.007  11.145  19.586  0.00  0.00    +0.000 N 
ATOM     24  C   UNL     1      -2.224  11.770  19.606  0.00  0.00    +0.000 C 
ATOM     25  O   UNL     1      -2.691  12.511  20.450  0.00  0.00    +0.000 OA
ATOM     26  C   UNL     1      -2.898  11.411  18.357  0.00  0.00    +0.000 A 
ATOM     27  C   UNL     1      -4.146  11.754  17.878  0.00  0.00    +0.000 A 
ATOM     28  C   UNL     1      -4.508  11.264  16.619  0.00  0.00    +0.000 A 
ATOM     29  C   UNL     1      -3.622  10.454  15.878  0.00  0.00    +0.000 A 
ATOM     30  C   UNL     1      -2.363  10.119  16.385  0.00  0.00    +0.000 A 
ATOM     31  C   UNL     1      -2.031  10.615  17.631  0.00  0.00    +0.000 A 
ATOM     32  C   UNL     1      -0.808  10.461  18.416  0.00  0.00    +0.000 C 
ATOM     33  O   UNL     1       0.174   9.854  18.037  0.00  0.00    +0.000 OA
ENDBRANCH  22  23
ENDBRANCH  21  22
ENDBRANCH   2  21
TORSDOF 6
ENDMDL
MODEL 4
REMARK VINA RESULT:      -8.9      2.302      8.947
REMARK  Name = 
REMARK  6 active torsions:
REMARK  status: ('A' for Active; 'I' for Inactive)
REMARK    1  A    between atoms: C_2  and  C_3
REMARK    2  A    between atoms: C_3  and  C_4
REMARK    3  A    between atoms: C_4  and  N_5
REMARK    4  A    between atoms: N_16  and  C_17
REMARK    5  A    between atoms: C_20  and  S_21
REMARK    6  A    between atoms: S_21  and  N_24
REMARK                            x       y       z     vdW  Elec       q    Type
REMARK                         _______ _______ _______ _____ _____    ______ ____
ROOT
ATOM      1  O   UNL     1       0.845   4.674  19.746  0.00  0.00    +0.000 OA
ATOM      2  C   UNL     1       1.872   4.885  20.384  0.00  0.00    +0.000 C 
ATOM      3  N   UNL     1       2.390   6.133  20.705  0.00  0.00    +0.000 N 
ATOM      4  H   UNL     1       3.334   6.158  21.072  0.00  0.00    +0.000 HD
ENDROOT
BRANCH   3   5
ATOM      5  C   UNL     1       1.813   7.386  20.391  0.00  0.00    +0.000 A 
ATOM      6  C   UNL     1       1.009   8.102  21.281  0.00  0.00    +0.000 A 
ATOM      7  C   UNL     1       0.410   9.303  20.892  0.00  0.00    +0.000 A 
ATOM      8  C   UNL     1       0.643   9.824  19.618  0.00  0.00    +0.000 A 
ATOM      9  C   UNL     1       1.466   9.135  18.724  0.00  0.00    +0.000 A 
ATOM     10  C   UNL     1       2.056   7.927  19.119  0.00  0.00    +0.000 A 
BRANCH   8  11
ATOM     11  S   UNL     1      -0.257  11.262  19.090  0.00  0.00    +0.000 S 
ATOM     12  O   UNL     1      -1.452  11.350  19.908  0.00  0.00    +0.000 OA
ATOM     13  O   UNL     1       0.648  12.387  19.003  0.00  0.00    +0.000 OA
BRANCH  11  14
ATOM     14  N   UNL     1      -0.820  10.912  17.552  0.00  0.00    +0.000 N 
ATOM     15  C   UNL     1      -2.161  10.936  17.188  0.00  0.00    +0.000 C 
ATOM     16  N   UNL     1      -3.024  11.712  17.749  0.00  0.00    +0.000 NA
ATOM     17  C   UNL     1      -4.312  11.409  17.111  0.00  0.00    +0.000 C 
ATOM     18  C   UNL     1      -3.981  10.687  15.817  0.00  0.00    +0.000 C 
ATOM     19  C   UNL     1      -2.651  10.031  16.108  0.00  0.00    +0.000 C 
ATOM     20  H   UNL     1      -0.142  10.358  17.034  0.00  0.00    +0.000 HD
ENDBRANCH  11  14
ENDBRANCH   8  11
ENDBRANCH   3   5
BRANCH   2  21
ATOM     21  C   UNL     1       2.704   3.740  20.934  0.00  0.00    +0.000 C 
BRANCH  21  22
ATOM     22  C   UNL     1       3.096   2.769  19.820  0.00  0.00    +0.000 C 
BRANCH  22  23
ATOM     23  N   UNL     1       3.885   3.418  18.785  0.00  0.00    +0.000 N 
ATOM     24  C   UNL     1       5.103   4.004  18.997  0.00  0.00    +0.000 C 
ATOM     25  O   UNL     1       5.745   4.086  20.027  0.00  0.00    +0.000 OA
ATOM     26  C   UNL     1       5.552   4.514  17.701  0.00  0.00    +0.000 A 
ATOM     27  C   UNL     1       6.698   5.200  17.352  0.00  0.00    +0.000 A 
ATOM     28  C   UNL     1       6.857   5.540  16.004  0.00  0.00    +0.000 A 
ATOM     29  C   UNL     1       5.879   5.190  15.051  0.00  0.00    +0.000 A 
ATOM     30  C   UNL     1       4.726   4.496  15.429  0.00  0.00    +0.000 A 
ATOM     31  C   UNL     1       4.592   4.173  16.765  0.00  0.00    +0.000 A 
ATOM     32  C   UNL     1       3.530   3.452  17.463  0.00  0.00    +0.000 C 
ATOM     33  O   UNL     1       2.557   2.972  16.915  0.00  0.00    +0.000 OA
ENDBRANCH  22  23
ENDBRANCH  21  22
ENDBRANCH   2  21
TORSDOF 6
ENDMDL
MODEL 5
REMARK VINA RESULT:      -8.9      1.373      1.884
REMARK  Name = 
REMARK  6 active torsions:
REMARK  status: ('A' for Active; 'I' for Inactive)
REMARK    1  A    between atoms: C_2  and  C_3
REMARK    2  A    between atoms: C_3  and  C_4
REMARK    3  A    between atoms: C_4  and  N_5
REMARK    4  A    between atoms: N_16  and  C_17
REMARK    5  A    between atoms: C_20  and  S_21
REMARK    6  A    between atoms: S_21  and  N_24
REMARK                            x       y       z     vdW  Elec       q    Type
REMARK                         _______ _______ _______ _____ _____    ______ ____
ROOT
ATOM      1  O   UNL     1       1.702   8.826  22.418  0.00  0.00    +0.000 OA
ATOM      2  C   UNL     1       1.039   9.082  21.418  0.00  0.00    +0.000 C 
ATOM      3  N   UNL     1       1.087   8.398  20.210  0.00  0.00    +0.000 N 
ATOM      4  H   UNL     1       0.626   8.829  19.418  0.00  0.00    +0.000 HD
ENDROOT
BRANCH   3   5
ATOM      5  C   UNL     1       1.878   7.260  19.922  0.00  0.00    +0.000 A 
ATOM      6  C   UNL     1       1.841   6.090  20.684  0.00  0.00    +0.000 A 
ATOM      7  C   UNL     1       2.695   5.023  20.392  0.00  0.00    +0.000 A 
ATOM      8  C   UNL     1       3.569   5.099  19.307  0.00  0.00    +0.000 A 
ATOM      9  C   UNL     1       3.601   6.251  18.518  0.00  0.00    +0.000 A 
ATOM     10  C   UNL     1       2.748   7.320  18.821  0.00  0.00    +0.000 A 
BRANCH   8  11
ATOM     11  S   UNL     1       4.757   3.801  19.057  0.00  0.00    +0.000 S 
ATOM     12  O   UNL     1       6.073   4.365  19.292  0.00  0.00    +0.000 OA
ATOM     13  O   UNL     1       4.334   2.621  19.778  0.00  0.00    +0.000 OA
BRANCH  11  14
ATOM     14  N   UNL     1       4.726   3.462  17.418  0.00  0.00    +0.000 N 
ATOM     15  C   UNL     1       5.593   4.025  16.488  0.00  0.00    +0.000 C 
ATOM     16  N   UNL     1       6.792   4.395  16.785  0.00  0.00    +0.000 NA
ATOM     17  C   UNL     1       7.354   4.963  15.553  0.00  0.00    +0.000 C 
ATOM     18  C   UNL     1       6.480   4.455  14.419  0.00  0.00    +0.000 C 
ATOM     19  C   UNL     1       5.141   4.225  15.081  0.00  0.00    +0.000 C 
ATOM     20  H   UNL     1       3.820   3.093  17.139  0.00  0.00    +0.000 HD
ENDBRANCH  11  14
ENDBRANCH   8  11
ENDBRANCH   3   5
BRANCH   2  21
ATOM     21  C   UNL     1       0.029  10.216  21.414  0.00  0.00    +0.000 C 
BRANCH  21  22
ATOM     22  C   UNL     1       0.277  11.160  20.238  0.00  0.00    +0.000 C 
BRANCH  22  23
ATOM     23  N   UNL     1      -0.801  11.109  19.263  0.00  0.00    +0.000 N 
ATOM     24  C   UNL     1      -0.764  10.377  18.108  0.00  0.00    +0.000 C 
ATOM     25  O   UNL     1       0.118   9.652  17.689  0.00  0.00    +0.000 OA
ATOM     26  C   UNL     1      -2.046  10.592  17.436  0.00  0.00    +0.000 A 
ATOM     27  C   UNL     1      -2.525  10.106  16.235  0.00  0.00    +0.000 A 
ATOM     28  C   UNL     1      -3.820  10.479  15.863  0.00  0.00    +0.000 A 
ATOM     29  C   UNL     1      -4.596  11.318  16.689  0.00  0.00    +0.000 A 
ATOM     30  C   UNL     1      -4.088  11.800  17.900  0.00  0.00    +0.000 A 
ATOM     31  C   UNL     1      -2.806  11.417  18.244  0.00  0.00    +0.000 A 
ATOM     32  C   UNL     1      -2.010  11.732  19.428  0.00  0.00    +0.000 C 
ATOM     33  O   UNL     1      -2.409  12.402  20.360  0.00  0.00    +0.000 OA
ENDBRANCH  22  23
ENDBRANCH  21  22
ENDBRANCH   2  21
TORSDOF 6
ENDMDL
MODEL 6
REMARK VINA RESULT:      -8.8      1.380      2.465
REMARK  Name = 
REMARK  6 active torsions:
REMARK  status: ('A' for Active; 'I' for Inactive)
REMARK    1  A    between atoms: C_2  and  C_3
REMARK    2  A    between atoms: C_3  and  C_4
REMARK    3  A    between atoms: C_4  and  N_5
REMARK    4  A    between atoms: N_16  and  C_17
REMARK    5  A    between atoms: C_20  and  S_21
REMARK    6  A    between atoms: S_21  and  N_24
REMARK                            x       y       z     vdW  Elec       q    Type
REMARK                         _______ _______ _______ _____ _____    ______ ____
ROOT
ATOM      1  O   UNL     1       1.572   8.632  22.471  0.00  0.00    +0.000 OA
ATOM      2  C   UNL     1       1.026   8.998  21.435  0.00  0.00    +0.000 C 
ATOM      3  N   UNL     1       1.175   8.414  20.184  0.00  0.00    +0.000 N 
ATOM      4  H   UNL     1       0.815   8.929  19.390  0.00  0.00    +0.000 HD
ENDROOT
BRANCH   3   5
ATOM      5  C   UNL     1       1.950   7.269  19.881  0.00  0.00    +0.000 A 
ATOM      6  C   UNL     1       1.883   6.084  20.617  0.00  0.00    +0.000 A 
ATOM      7  C   UNL     1       2.722   5.009  20.312  0.00  0.00    +0.000 A 
ATOM      8  C   UNL     1       3.610   5.093  19.238  0.00  0.00    +0.000 A 
ATOM      9  C   UNL     1       3.670   6.260  18.474  0.00  0.00    +0.000 A 
ATOM     10  C   UNL     1       2.832   7.337  18.791  0.00  0.00    +0.000 A 
BRANCH   8  11
ATOM     11  S   UNL     1       4.778   3.779  18.973  0.00  0.00    +0.000 S 
ATOM     12  O   UNL     1       6.103   4.325  19.203  0.00  0.00    +0.000 OA
ATOM     13  O   UNL     1       4.343   2.602  19.691  0.00  0.00    +0.000 OA
BRANCH  11  14
ATOM     14  N   UNL     1       4.733   3.450  17.332  0.00  0.00    +0.000 N 
ATOM     15  C   UNL     1       5.587   4.023  16.397  0.00  0.00    +0.000 C 
ATOM     16  N   UNL     1       6.786   4.399  16.684  0.00  0.00    +0.000 NA
ATOM     17  C   UNL     1       7.332   4.977  15.449  0.00  0.00    +0.000 C 
ATOM     18  C   UNL     1       6.449   4.471  14.322  0.00  0.00    +0.000 C 
ATOM     19  C   UNL     1       5.118   4.229  14.996  0.00  0.00    +0.000 C 
ATOM     20  H   UNL     1       3.825   3.078  17.061  0.00  0.00    +0.000 HD
ENDBRANCH  11  14
ENDBRANCH   8  11
ENDBRANCH   3   5
BRANCH   2  21
ATOM     21  C   UNL     1       0.065  10.174  21.427  0.00  0.00    +0.000 C 
BRANCH  21  22
ATOM     22  C   UNL     1       0.312  11.070  20.214  0.00  0.00    +0.000 C 
BRANCH  22  23
ATOM     23  N   UNL     1      -0.778  10.999  19.254  0.00  0.00    +0.000 N 
ATOM     24  C   UNL     1      -1.949  11.697  19.362  0.00  0.00    +0.000 C 
ATOM     25  O   UNL     1      -2.295  12.485  20.222  0.00  0.00    +0.000 OA
ATOM     26  C   UNL     1      -2.751  11.352  18.187  0.00  0.00    +0.000 A 
ATOM     27  C   UNL     1      -4.015  11.759  17.810  0.00  0.00    +0.000 A 
ATOM     28  C   UNL     1      -4.515  11.263  16.601  0.00  0.00    +0.000 A 
ATOM     29  C   UNL     1      -3.748  10.384  15.809  0.00  0.00    +0.000 A 
ATOM     30  C   UNL     1      -2.470   9.984  16.214  0.00  0.00    +0.000 A 
ATOM     31  C   UNL     1      -2.001  10.487  17.411  0.00  0.00    +0.000 A 
ATOM     32  C   UNL     1      -0.724  10.277  18.091  0.00  0.00    +0.000 C 
ATOM     33  O   UNL     1       0.183   9.603  17.645  0.00  0.00    +0.000 OA
ENDBRANCH  22  23
ENDBRANCH  21  22
ENDBRANCH   2  21
TORSDOF 6
ENDMDL
MODEL 7
REMARK VINA RESULT:      -8.7      3.310      8.729
REMARK  Name = 
REMARK  6 active torsions:
REMARK  status: ('A' for Active; 'I' for Inactive)
REMARK    1  A    between atoms: C_2  and  C_3
REMARK    2  A    between atoms: C_3  and  C_4
REMARK    3  A    between atoms: C_4  and  N_5
REMARK    4  A    between atoms: N_16  and  C_17
REMARK    5  A    between atoms: C_20  and  S_21
REMARK    6  A    between atoms: S_21  and  N_24
REMARK                            x       y       z     vdW  Elec       q    Type
REMARK                         _______ _______ _______ _____ _____    ______ ____
ROOT
ATOM      1  O   UNL     1       5.453   6.936  17.723  0.00  0.00    +0.000 OA
ATOM      2  C   UNL     1       4.602   6.290  17.119  0.00  0.00    +0.000 C 
ATOM      3  N   UNL     1       3.228   6.397  17.285  0.00  0.00    +0.000 N 
ATOM      4  H   UNL     1       2.655   5.678  16.860  0.00  0.00    +0.000 HD
ENDROOT
BRANCH   3   5
ATOM      5  C   UNL     1       2.555   7.294  18.148  0.00  0.00    +0.000 A 
ATOM      6  C   UNL     1       2.081   8.541  17.736  0.00  0.00    +0.000 A 
ATOM      7  C   UNL     1       1.484   9.414  18.650  0.00  0.00    +0.000 A 
ATOM      8  C   UNL     1       1.317   9.030  19.982  0.00  0.00    +0.000 A 
ATOM      9  C   UNL     1       1.760   7.776  20.406  0.00  0.00    +0.000 A 
ATOM     10  C   UNL     1       2.366   6.909  19.485  0.00  0.00    +0.000 A 
BRANCH   8  11
ATOM     11  S   UNL     1       0.708  10.216  21.157  0.00  0.00    +0.000 S 
ATOM     12  O   UNL     1      -0.737  10.249  21.031  0.00  0.00    +0.000 OA
ATOM     13  O   UNL     1       1.319   9.970  22.445  0.00  0.00    +0.000 OA
BRANCH  11  14
ATOM     14  N   UNL     1       1.217  11.712  20.604  0.00  0.00    +0.000 N 
ATOM     15  C   UNL     1       0.659  12.922  21.000  0.00  0.00    +0.000 C 
ATOM     16  N   UNL     1       0.126  13.099  22.161  0.00  0.00    +0.000 NA
ATOM     17  C   UNL     1      -0.370  14.481  22.169  0.00  0.00    +0.000 C 
ATOM     18  C   UNL     1       0.348  15.193  21.036  0.00  0.00    +0.000 C 
ATOM     19  C   UNL     1       0.659  14.081  20.061  0.00  0.00    +0.000 C 
ATOM     20  H   UNL     1       1.713  11.624  19.719  0.00  0.00    +0.000 HD
ENDBRANCH  11  14
ENDBRANCH   8  11
ENDBRANCH   3   5
BRANCH   2  21
ATOM     21  C   UNL     1       4.992   5.275  16.059  0.00  0.00    +0.000 C 
BRANCH  21  22
ATOM     22  C   UNL     1       5.215   3.897  16.682  0.00  0.00    +0.000 C 
BRANCH  22  23
ATOM     23  N   UNL     1       4.266   3.622  17.749  0.00  0.00    +0.000 N 
ATOM     24  C   UNL     1       4.579   3.632  19.081  0.00  0.00    +0.000 C 
ATOM     25  O   UNL     1       5.644   3.871  19.616  0.00  0.00    +0.000 OA
ATOM     26  C   UNL     1       3.342   3.327  19.802  0.00  0.00    +0.000 A 
ATOM     27  C   UNL     1       3.099   3.196  21.155  0.00  0.00    +0.000 A 
ATOM     28  C   UNL     1       1.785   2.915  21.546  0.00  0.00    +0.000 A 
ATOM     29  C   UNL     1       0.761   2.774  20.588  0.00  0.00    +0.000 A 
ATOM     30  C   UNL     1       1.033   2.909  19.223  0.00  0.00    +0.000 A 
ATOM     31  C   UNL     1       2.337   3.185  18.862  0.00  0.00    +0.000 A 
ATOM     32  C   UNL     1       2.931   3.395  17.544  0.00  0.00    +0.000 C 
ATOM     33  O   UNL     1       2.303   3.385  16.504  0.00  0.00    +0.000 OA
ENDBRANCH  22  23
ENDBRANCH  21  22
ENDBRANCH   2  21
TORSDOF 6
ENDMDL
MODEL 8
REMARK VINA RESULT:      -8.7      2.326      9.077
REMARK  Name = 
REMARK  6 active torsions:
REMARK  status: ('A' for Active; 'I' for Inactive)
REMARK    1  A    between atoms: C_2  and  C_3
REMARK    2  A    between atoms: C_3  and  C_4
REMARK    3  A    between atoms: C_4  and  N_5
REMARK    4  A    between atoms: N_16  and  C_17
REMARK    5  A    between atoms: C_20  and  S_21
REMARK    6  A    between atoms: S_21  and  N_24
REMARK                            x       y       z     vdW  Elec       q    Type
REMARK                         _______ _______ _______ _____ _____    ______ ____
ROOT
ATOM      1  O   UNL     1       1.168   4.843  19.354  0.00  0.00    +0.000 OA
ATOM      2  C   UNL     1       2.121   5.136  20.071  0.00  0.00    +0.000 C 
ATOM      3  N   UNL     1       2.536   6.422  20.390  0.00  0.00    +0.000 N 
ATOM      4  H   UNL     1       3.441   6.516  20.837  0.00  0.00    +0.000 HD
ENDROOT
BRANCH   3   5
ATOM      5  C   UNL     1       1.918   7.628  19.984  0.00  0.00    +0.000 A 
ATOM      6  C   UNL     1       2.082   8.180  18.711  0.00  0.00    +0.000 A 
ATOM      7  C   UNL     1       1.500   9.409  18.388  0.00  0.00    +0.000 A 
ATOM      8  C   UNL     1       0.712  10.081  19.324  0.00  0.00    +0.000 A 
ATOM      9  C   UNL     1       0.514   9.530  20.592  0.00  0.00    +0.000 A 
ATOM     10  C   UNL     1       1.108   8.302  20.912  0.00  0.00    +0.000 A 
BRANCH   8  11
ATOM     11  S   UNL     1       0.121  11.715  18.948  0.00  0.00    +0.000 S 
ATOM     12  O   UNL     1      -0.751  12.121  20.034  0.00  0.00    +0.000 OA
ATOM     13  O   UNL     1       1.238  12.549  18.562  0.00  0.00    +0.000 OA
BRANCH  11  14
ATOM     14  N   UNL     1      -0.895  11.542  17.628  0.00  0.00    +0.000 N 
ATOM     15  C   UNL     1      -2.276  11.412  17.719  0.00  0.00    +0.000 C 
ATOM     16  N   UNL     1      -2.966  11.936  18.673  0.00  0.00    +0.000 NA
ATOM     17  C   UNL     1      -4.359  11.542  18.425  0.00  0.00    +0.000 C 
ATOM     18  C   UNL     1      -4.421  11.110  16.970  0.00  0.00    +0.000 C 
ATOM     19  C   UNL     1      -3.016  10.635  16.682  0.00  0.00    +0.000 C 
ATOM     20  H   UNL     1      -0.384  11.199  16.818  0.00  0.00    +0.000 HD
ENDBRANCH  11  14
ENDBRANCH   8  11
ENDBRANCH   3   5
BRANCH   2  21
ATOM     21  C   UNL     1       2.966   4.061  20.731  0.00  0.00    +0.000 C 
BRANCH  21  22
ATOM     22  C   UNL     1       3.328   2.964  19.730  0.00  0.00    +0.000 C 
BRANCH  22  23
ATOM     23  N   UNL     1       4.128   3.475  18.628  0.00  0.00    +0.000 N 
ATOM     24  C   UNL     1       3.724   3.485  17.322  0.00  0.00    +0.000 C 
ATOM     25  O   UNL     1       2.673   3.106  16.842  0.00  0.00    +0.000 OA
ATOM     26  C   UNL     1       4.810   4.096  16.554  0.00  0.00    +0.000 A 
ATOM     27  C   UNL     1       4.929   4.336  15.199  0.00  0.00    +0.000 A 
ATOM     28  C   UNL     1       6.099   4.965  14.760  0.00  0.00    +0.000 A 
ATOM     29  C   UNL     1       7.107   5.335  15.674  0.00  0.00    +0.000 A 
ATOM     30  C   UNL     1       6.963   5.080  17.042  0.00  0.00    +0.000 A 
ATOM     31  C   UNL     1       5.800   4.457  17.449  0.00  0.00    +0.000 A 
ATOM     32  C   UNL     1       5.350   4.074  18.785  0.00  0.00    +0.000 C 
ATOM     33  O   UNL     1       5.972   4.296  19.805  0.00  0.00    +0.000 OA
ENDBRANCH  22  23
ENDBRANCH  21  22
ENDBRANCH   2  21
TORSDOF 6
ENDMDL
MODEL 9
REMARK VINA RESULT:      -8.7      2.393      9.159
REMARK  Name = 
REMARK  6 active torsions:
REMARK  status: ('A' for Active; 'I' for Inactive)
REMARK    1  A    between atoms: C_2  and  C_3
REMARK    2  A    between atoms: C_3  and  C_4
REMARK    3  A    between atoms: C_4  and  N_5
REMARK    4  A    between atoms: N_16  and  C_17
REMARK    5  A    between atoms: C_20  and  S_21
REMARK    6  A    between atoms: S_21  and  N_24
REMARK                            x       y       z     vdW  Elec       q    Type
REMARK                         _______ _______ _______ _____ _____    ______ ____
ROOT
ATOM      1  O   UNL     1       1.250   5.251  19.234  0.00  0.00    +0.000 OA
ATOM      2  C   UNL     1       2.135   5.577  20.020  0.00  0.00    +0.000 C 
ATOM      3  N   UNL     1       2.367   6.859  20.500  0.00  0.00    +0.000 N 
ATOM      4  H   UNL     1       3.238   7.015  20.994  0.00  0.00    +0.000 HD
ENDROOT
BRANCH   3   5
ATOM      5  C   UNL     1       1.607   8.015  20.205  0.00  0.00    +0.000 A 
ATOM      6  C   UNL     1       1.715   8.715  19.001  0.00  0.00    +0.000 A 
ATOM      7  C   UNL     1       0.987   9.889  18.793  0.00  0.00    +0.000 A 
ATOM      8  C   UNL     1       0.109  10.356  19.773  0.00  0.00    +0.000 A 
ATOM      9  C   UNL     1      -0.032   9.654  20.972  0.00  0.00    +0.000 A 
ATOM     10  C   UNL     1       0.707   8.482  21.177  0.00  0.00    +0.000 A 
BRANCH   8  11
ATOM     11  S   UNL     1      -0.678  11.935  19.553  0.00  0.00    +0.000 S 
ATOM     12  O   UNL     1      -0.749  12.569  20.856  0.00  0.00    +0.000 OA
ATOM     13  O   UNL     1      -0.060  12.625  18.442  0.00  0.00    +0.000 OA
BRANCH  11  14
ATOM     14  N   UNL     1      -2.269  11.601  19.155  0.00  0.00    +0.000 N 
ATOM     15  C   UNL     1      -2.714  11.352  17.862  0.00  0.00    +0.000 C 
ATOM     16  N   UNL     1      -1.968  10.816  16.957  0.00  0.00    +0.000 NA
ATOM     17  C   UNL     1      -2.789  10.758  15.741  0.00  0.00    +0.000 C 
ATOM     18  C   UNL     1      -4.229  10.916  16.198  0.00  0.00    +0.000 C 
ATOM     19  C   UNL     1      -4.109  11.714  17.476  0.00  0.00    +0.000 C 
ATOM     20  H   UNL     1      -2.903  11.939  19.875  0.00  0.00    +0.000 HD
ENDBRANCH  11  14
ENDBRANCH   8  11
ENDBRANCH   3   5
BRANCH   2  21
ATOM     21  C   UNL     1       3.095   4.549  20.591  0.00  0.00    +0.000 C 
BRANCH  21  22
ATOM     22  C   UNL     1       3.286   3.384  19.620  0.00  0.00    +0.000 C 
BRANCH  22  23
ATOM     23  N   UNL     1       4.112   3.755  18.482  0.00  0.00    +0.000 N 
ATOM     24  C   UNL     1       5.409   4.181  18.576  0.00  0.00    +0.000 C 
ATOM     25  O   UNL     1       6.101   4.316  19.566  0.00  0.00    +0.000 OA
ATOM     26  C   UNL     1       5.867   4.428  17.208  0.00  0.00    +0.000 A 
ATOM     27  C   UNL     1       7.082   4.882  16.734  0.00  0.00    +0.000 A 
ATOM     28  C   UNL     1       7.227   4.998  15.347  0.00  0.00    +0.000 A 
ATOM     29  C   UNL     1       6.168   4.661  14.480  0.00  0.00    +0.000 A 
ATOM     30  C   UNL     1       4.946   4.204  14.984  0.00  0.00    +0.000 A 
ATOM     31  C   UNL     1       4.828   4.100  16.356  0.00  0.00    +0.000 A 
ATOM     32  C   UNL     1       3.707   3.649  17.178  0.00  0.00    +0.000 C 
ATOM     33  O   UNL     1       2.653   3.243  16.730  0.00  0.00    +0.000 OA
ENDBRANCH  22  23
ENDBRANCH  21  22
ENDBRANCH   2  21
TORSDOF 6
ENDMDL
