MODEL 1
REMARK VINA RESULT:      -9.6      0.000      0.000
REMARK  Name = 
REMARK  6 active torsions:
REMARK  status: ('A' for Active; 'I' for Inactive)
REMARK    1  A    between atoms: C_1  and  C_2
REMARK    2  A    between atoms: C_5  and  S_6
REMARK    3  A    between atoms: S_6  and  N_9
REMARK    4  A    between atoms: N_9  and  C_10
REMARK    5  A    between atoms: C_18  and  C_19
REMARK    6  A    between atoms: N_21  and  C_22
REMARK                            x       y       z     vdW  Elec       q    Type
REMARK                         _______ _______ _______ _____ _____    ______ ____
ROOT
ATOM      1  C   UNL     1       2.505   3.448  20.070  0.00  0.00    +0.000 C 
ATOM      2  C   UNL     1       3.351   4.220  19.091  0.00  0.00    +0.000 A 
ATOM      3  C   UNL     1       4.260   3.503  18.287  0.00  0.00    +0.000 A 
ATOM      4  C   UNL     1       5.083   4.159  17.371  0.00  0.00    +0.000 A 
ATOM      5  C   UNL     1       5.034   5.548  17.282  0.00  0.00    +0.000 A 
ATOM      6  C   UNL     1       4.132   6.282  18.058  0.00  0.00    +0.000 A 
ATOM      7  C   UNL     1       3.275   5.625  18.956  0.00  0.00    +0.000 A 
ENDROOT
BRANCH   7   8
ATOM      8  C   UNL     1       2.336   6.454  19.780  0.00  0.00    +0.000 C 
ATOM      9  O   UNL     1       1.816   5.967  20.772  0.00  0.00    +0.000 OA
ATOM     10  N   UNL     1       2.119   7.738  19.298  0.00  0.00    +0.000 N 
ATOM     11  H   UNL     1       2.474   7.958  18.376  0.00  0.00    +0.000 HD
BRANCH  10  12
ATOM     12  C   UNL     1       1.317   8.736  19.901  0.00  0.00    +0.000 A 
ATOM     13  C   UNL     1       1.005   9.968  19.320  0.00  0.00    +0.000 A 
ATOM     14  N   UNL     1       0.265  10.960  19.887  0.00  0.00    +0.000 NA
ATOM     15  C   UNL     1      -0.151  10.655  21.128  0.00  0.00    +0.000 A 
ATOM     16  N   UNL     1      -0.868  11.497  21.933  0.00  0.00    +0.000 N 
ATOM     17  C   UNL     1      -1.104  10.893  23.142  0.00  0.00    +0.000 A 
ATOM     18  C   UNL     1      -0.549   9.631  23.099  0.00  0.00    +0.000 A 
ATOM     19  C   UNL     1       0.065   9.473  21.826  0.00  0.00    +0.000 A 
ATOM     20  C   UNL     1       0.803   8.466  21.177  0.00  0.00    +0.000 A 
ATOM     21  H   UNL     1      -1.148  12.427  21.658  0.00  0.00    +0.000 HD
ENDBRANCH  10  12
ENDBRANCH   7   8
BRANCH   5  22
ATOM     22  S   UNL     1       6.098   6.410  16.144  0.00  0.00    +0.000 S 
ATOM     23  O   UNL     1       5.278   6.930  15.072  0.00  0.00    +0.000 OA
ATOM     24  O   UNL     1       6.931   7.284  16.945  0.00  0.00    +0.000 OA
BRANCH  22  25
ATOM     25  N   UNL     1       7.114   5.187  15.546  0.00  0.00    +0.000 N 
ATOM     26  H   UNL     1       7.231   4.452  16.244  0.00  0.00    +0.000 HD
BRANCH  25  27
ATOM     27  C   UNL     1       6.843   4.709  14.226  0.00  0.00    +0.000 A 
ATOM     28  C   UNL     1       5.803   3.804  14.023  0.00  0.00    +0.000 A 
ATOM     29  C   UNL     1       5.574   3.282  12.746  0.00  0.00    +0.000 A 
ATOM     30  C   UNL     1       6.407   3.638  11.681  0.00  0.00    +0.000 A 
ATOM     31  C   UNL     1       7.457   4.531  11.885  0.00  0.00    +0.000 A 
ATOM     32  C   UNL     1       7.661   5.069  13.151  0.00  0.00    +0.000 A 
ATOM     33  F   UNL     1       8.668   5.934  13.343  0.00  0.00    +0.000 F 
ENDBRANCH  25  27
ENDBRANCH  22  25
ENDBRANCH   5  22
TORSDOF 5
ENDMDL
MODEL 2
REMARK VINA RESULT:      -9.6      0.752      1.215
REMARK  Name = 
REMARK  6 active torsions:
REMARK  status: ('A' for Active; 'I' for Inactive)
REMARK    1  A    between atoms: C_1  and  C_2
REMARK    2  A    between atoms: C_5  and  S_6
REMARK    3  A    between atoms: S_6  and  N_9
REMARK    4  A    between atoms: N_9  and  C_10
REMARK    5  A    between atoms: C_18  and  C_19
REMARK    6  A    between atoms: N_21  and  C_22
REMARK                            x       y       z     vdW  Elec       q    Type
REMARK                         _______ _______ _______ _____ _____    ______ ____
ROOT
ATOM      1  C   UNL     1       2.633   3.309  20.251  0.00  0.00    +0.000 C 
ATOM      2  C   UNL     1       3.406   4.125  19.248  0.00  0.00    +0.000 A 
ATOM      3  C   UNL     1       4.351   3.463  18.439  0.00  0.00    +0.000 A 
ATOM      4  C   UNL     1       5.111   4.162  17.500  0.00  0.00    +0.000 A 
ATOM      5  C   UNL     1       4.961   5.544  17.393  0.00  0.00    +0.000 A 
ATOM      6  C   UNL     1       4.021   6.222  18.174  0.00  0.00    +0.000 A 
ATOM      7  C   UNL     1       3.228   5.519  19.095  0.00  0.00    +0.000 A 
ENDROOT
BRANCH   7   8
ATOM      8  C   UNL     1       2.244   6.291  19.923  0.00  0.00    +0.000 C 
ATOM      9  O   UNL     1       1.478   5.692  20.661  0.00  0.00    +0.000 OA
ATOM     10  N   UNL     1       2.285   7.667  19.742  0.00  0.00    +0.000 N 
ATOM     11  H   UNL     1       2.846   8.021  18.977  0.00  0.00    +0.000 HD
BRANCH  10  12
ATOM     12  C   UNL     1       1.501   8.627  20.424  0.00  0.00    +0.000 A 
ATOM     13  C   UNL     1       1.433   8.760  21.814  0.00  0.00    +0.000 A 
ATOM     14  N   UNL     1       0.664   9.650  22.499  0.00  0.00    +0.000 NA
ATOM     15  C   UNL     1      -0.083  10.423  21.692  0.00  0.00    +0.000 A 
ATOM     16  N   UNL     1      -0.975  11.362  22.130  0.00  0.00    +0.000 N 
ATOM     17  C   UNL     1      -1.593  11.951  21.054  0.00  0.00    +0.000 A 
ATOM     18  C   UNL     1      -1.065  11.394  19.908  0.00  0.00    +0.000 A 
ATOM     19  C   UNL     1      -0.110  10.417  20.304  0.00  0.00    +0.000 A 
ATOM     20  C   UNL     1       0.734   9.504  19.645  0.00  0.00    +0.000 A 
ATOM     21  H   UNL     1      -1.149  11.555  23.105  0.00  0.00    +0.000 HD
ENDBRANCH  10  12
ENDBRANCH   7   8
BRANCH   5  22
ATOM     22  S   UNL     1       5.943   6.462  16.226  0.00  0.00    +0.000 S 
ATOM     23  O   UNL     1       5.072   6.904  15.160  0.00  0.00    +0.000 OA
ATOM     24  O   UNL     1       6.721   7.407  17.001  0.00  0.00    +0.000 OA
BRANCH  22  25
ATOM     25  N   UNL     1       7.037   5.307  15.631  0.00  0.00    +0.000 N 
ATOM     26  H   UNL     1       7.226   4.600  16.342  0.00  0.00    +0.000 HD
BRANCH  25  27
ATOM     27  C   UNL     1       6.774   4.778  14.328  0.00  0.00    +0.000 A 
ATOM     28  C   UNL     1       5.705   3.902  14.145  0.00  0.00    +0.000 A 
ATOM     29  C   UNL     1       5.483   3.331  12.889  0.00  0.00    +0.000 A 
ATOM     30  C   UNL     1       6.348   3.607  11.826  0.00  0.00    +0.000 A 
ATOM     31  C   UNL     1       7.426   4.471  12.011  0.00  0.00    +0.000 A 
ATOM     32  C   UNL     1       7.624   5.059  13.255  0.00  0.00    +0.000 A 
ATOM     33  F   UNL     1       8.659   5.896  13.428  0.00  0.00    +0.000 F 
ENDBRANCH  25  27
ENDBRANCH  22  25
ENDBRANCH   5  22
TORSDOF 5
ENDMDL
MODEL 3
REMARK VINA RESULT:      -9.4      3.692      9.227
REMARK  Name = 
REMARK  6 active torsions:
REMARK  status: ('A' for Active; 'I' for Inactive)
REMARK    1  A    between atoms: C_1  and  C_2
REMARK    2  A    between atoms: C_5  and  S_6
REMARK    3  A    between atoms: S_6  and  N_9
REMARK    4  A    between atoms: N_9  and  C_10
REMARK    5  A    between atoms: C_18  and  C_19
REMARK    6  A    between atoms: N_21  and  C_22
REMARK                            x       y       z     vdW  Elec       q    Type
REMARK                         _______ _______ _______ _____ _____    ______ ____
ROOT
ATOM      1  C   UNL     1       2.239   5.525  20.119  0.00  0.00    +0.000 C 
ATOM      2  C   UNL     1       1.769   6.951  20.233  0.00  0.00    +0.000 A 
ATOM      3  C   UNL     1       0.946   7.295  21.324  0.00  0.00    +0.000 A 
ATOM      4  C   UNL     1       0.464   8.595  21.481  0.00  0.00    +0.000 A 
ATOM      5  C   UNL     1       0.769   9.556  20.520  0.00  0.00    +0.000 A 
ATOM      6  C   UNL     1       1.595   9.245  19.435  0.00  0.00    +0.000 A 
ATOM      7  C   UNL     1       2.112   7.947  19.291  0.00  0.00    +0.000 A 
ENDROOT
BRANCH   7   8
ATOM      8  C   UNL     1       2.979   7.656  18.103  0.00  0.00    +0.000 C 
ATOM      9  O   UNL     1       2.724   8.179  17.029  0.00  0.00    +0.000 OA
ATOM     10  N   UNL     1       4.014   6.762  18.344  0.00  0.00    +0.000 N 
ATOM     11  H   UNL     1       4.011   6.270  19.229  0.00  0.00    +0.000 HD
BRANCH  10  12
ATOM     12  C   UNL     1       4.999   6.348  17.415  0.00  0.00    +0.000 A 
ATOM     13  C   UNL     1       6.313   6.823  17.381  0.00  0.00    +0.000 A 
ATOM     14  N   UNL     1       7.271   6.469  16.482  0.00  0.00    +0.000 NA
ATOM     15  C   UNL     1       6.828   5.594  15.564  0.00  0.00    +0.000 A 
ATOM     16  N   UNL     1       7.577   5.118  14.523  0.00  0.00    +0.000 N 
ATOM     17  C   UNL     1       6.818   4.268  13.757  0.00  0.00    +0.000 A 
ATOM     18  C   UNL     1       5.569   4.181  14.335  0.00  0.00    +0.000 A 
ATOM     19  C   UNL     1       5.563   5.025  15.480  0.00  0.00    +0.000 A 
ATOM     20  C   UNL     1       4.622   5.395  16.458  0.00  0.00    +0.000 A 
ATOM     21  H   UNL     1       8.535   5.387  14.357  0.00  0.00    +0.000 HD
ENDBRANCH  10  12
ENDBRANCH   7   8
BRANCH   5  22
ATOM     22  S   UNL     1       0.138  11.214  20.682  0.00  0.00    +0.000 S 
ATOM     23  O   UNL     1      -1.091  11.152  21.441  0.00  0.00    +0.000 OA
ATOM     24  O   UNL     1       1.251  12.034  21.117  0.00  0.00    +0.000 OA
BRANCH  22  25
ATOM     25  N   UNL     1      -0.200  11.668  19.081  0.00  0.00    +0.000 N 
ATOM     26  H   UNL     1       0.578  11.418  18.470  0.00  0.00    +0.000 HD
BRANCH  25  27
ATOM     27  C   UNL     1      -1.488  11.318  18.567  0.00  0.00    +0.000 A 
ATOM     28  C   UNL     1      -2.611  12.031  18.983  0.00  0.00    +0.000 A 
ATOM     29  C   UNL     1      -3.880  11.652  18.536  0.00  0.00    +0.000 A 
ATOM     30  C   UNL     1      -4.030  10.541  17.702  0.00  0.00    +0.000 A 
ATOM     31  C   UNL     1      -2.909   9.818  17.296  0.00  0.00    +0.000 A 
ATOM     32  C   UNL     1      -1.647  10.217  17.721  0.00  0.00    +0.000 A 
ATOM     33  F   UNL     1      -0.570   9.523  17.323  0.00  0.00    +0.000 F 
ENDBRANCH  25  27
ENDBRANCH  22  25
ENDBRANCH   5  22
TORSDOF 5
ENDMDL
MODEL 4
REMARK VINA RESULT:      -9.4      3.223      4.754
REMARK  Name = 
REMARK  6 active torsions:
REMARK  status: ('A' for Active; 'I' for Inactive)
REMARK    1  A    between atoms: C_1  and  C_2
REMARK    2  A    between atoms: C_5  and  S_6
REMARK    3  A    between atoms: S_6  and  N_9
REMARK    4  A    between atoms: N_9  and  C_10
REMARK    5  A    between atoms: C_18  and  C_19
REMARK    6  A    between atoms: N_21  and  C_22
REMARK                            x       y       z     vdW  Elec       q    Type
REMARK                         _______ _______ _______ _____ _____    ______ ____
ROOT
ATOM      1  C   UNL     1       1.786   8.925  17.445  0.00  0.00    +0.000 C 
ATOM      2  C   UNL     1       2.748   7.824  17.809  0.00  0.00    +0.000 A 
ATOM      3  C   UNL     1       3.655   7.381  16.826  0.00  0.00    +0.000 A 
ATOM      4  C   UNL     1       4.562   6.355  17.093  0.00  0.00    +0.000 A 
ATOM      5  C   UNL     1       4.540   5.732  18.340  0.00  0.00    +0.000 A 
ATOM      6  C   UNL     1       3.660   6.162  19.337  0.00  0.00    +0.000 A 
ATOM      7  C   UNL     1       2.768   7.218  19.086  0.00  0.00    +0.000 A 
ENDROOT
BRANCH   7   8
ATOM      8  C   UNL     1       1.831   7.633  20.180  0.00  0.00    +0.000 C 
ATOM      9  O   UNL     1       1.396   6.791  20.951  0.00  0.00    +0.000 OA
ATOM     10  N   UNL     1       1.516   8.985  20.194  0.00  0.00    +0.000 N 
ATOM     11  H   UNL     1       1.806   9.541  19.399  0.00  0.00    +0.000 HD
BRANCH  10  12
ATOM     12  C   UNL     1       0.694   9.645  21.139  0.00  0.00    +0.000 A 
ATOM     13  C   UNL     1       0.677   9.375  22.509  0.00  0.00    +0.000 A 
ATOM     14  N   UNL     1      -0.124   9.968  23.436  0.00  0.00    +0.000 NA
ATOM     15  C   UNL     1      -0.960  10.872  22.899  0.00  0.00    +0.000 A 
ATOM     16  N   UNL     1      -1.899  11.573  23.605  0.00  0.00    +0.000 N 
ATOM     17  C   UNL     1      -2.604  12.388  22.755  0.00  0.00    +0.000 A 
ATOM     18  C   UNL     1      -2.088  12.223  21.487  0.00  0.00    +0.000 A 
ATOM     19  C   UNL     1      -1.047  11.257  21.567  0.00  0.00    +0.000 A 
ATOM     20  C   UNL     1      -0.169  10.640  20.658  0.00  0.00    +0.000 A 
ATOM     21  H   UNL     1      -2.043  11.468  24.598  0.00  0.00    +0.000 HD
ENDBRANCH  10  12
ENDBRANCH   7   8
BRANCH   5  22
ATOM     22  S   UNL     1       5.666   4.399  18.693  0.00  0.00    +0.000 S 
ATOM     23  O   UNL     1       6.728   4.439  17.712  0.00  0.00    +0.000 OA
ATOM     24  O   UNL     1       5.951   4.469  20.112  0.00  0.00    +0.000 OA
BRANCH  22  25
ATOM     25  N   UNL     1       4.721   3.008  18.457  0.00  0.00    +0.000 N 
ATOM     26  H   UNL     1       5.249   2.173  18.715  0.00  0.00    +0.000 HD
BRANCH  25  27
ATOM     27  C   UNL     1       3.384   3.040  18.965  0.00  0.00    +0.000 A 
ATOM     28  C   UNL     1       3.158   2.807  20.320  0.00  0.00    +0.000 A 
ATOM     29  C   UNL     1       1.850   2.772  20.810  0.00  0.00    +0.000 A 
ATOM     30  C   UNL     1       0.768   2.935  19.941  0.00  0.00    +0.000 A 
ATOM     31  C   UNL     1       0.991   3.153  18.583  0.00  0.00    +0.000 A 
ATOM     32  C   UNL     1       2.295   3.215  18.106  0.00  0.00    +0.000 A 
ATOM     33  F   UNL     1       2.507   3.433  16.799  0.00  0.00    +0.000 F 
ENDBRANCH  25  27
ENDBRANCH  22  25
ENDBRANCH   5  22
TORSDOF 5
ENDMDL
MODEL 5
REMARK VINA RESULT:      -9.4      1.635      2.227
REMARK  Name = 
REMARK  6 active torsions:
REMARK  status: ('A' for Active; 'I' for Inactive)
REMARK    1  A    between atoms: C_1  and  C_2
REMARK    2  A    between atoms: C_5  and  S_6
REMARK    3  A    between atoms: S_6  and  N_9
REMARK    4  A    between atoms: N_9  and  C_10
REMARK    5  A    between atoms: C_18  and  C_19
REMARK    6  A    between atoms: N_21  and  C_22
REMARK                            x       y       z     vdW  Elec       q    Type
REMARK                         _______ _______ _______ _____ _____    ______ ____
ROOT
ATOM      1  C   UNL     1       1.831   4.143  19.931  0.00  0.00    +0.000 C 
ATOM      2  C   UNL     1       3.111   4.503  19.224  0.00  0.00    +0.000 A 
ATOM      3  C   UNL     1       4.093   3.503  19.076  0.00  0.00    +0.000 A 
ATOM      4  C   UNL     1       5.307   3.774  18.445  0.00  0.00    +0.000 A 
ATOM      5  C   UNL     1       5.567   5.066  17.991  0.00  0.00    +0.000 A 
ATOM      6  C   UNL     1       4.605   6.073  18.113  0.00  0.00    +0.000 A 
ATOM      7  C   UNL     1       3.367   5.797  18.716  0.00  0.00    +0.000 A 
ENDROOT
BRANCH   7   8
ATOM      8  C   UNL     1       2.372   6.912  18.840  0.00  0.00    +0.000 C 
ATOM      9  O   UNL     1       1.737   7.263  17.857  0.00  0.00    +0.000 OA
ATOM     10  N   UNL     1       2.285   7.477  20.105  0.00  0.00    +0.000 N 
ATOM     11  H   UNL     1       2.986   7.211  20.785  0.00  0.00    +0.000 HD
BRANCH  10  12
ATOM     12  C   UNL     1       1.403   8.510  20.504  0.00  0.00    +0.000 A 
ATOM     13  C   UNL     1       0.772   8.583  21.749  0.00  0.00    +0.000 A 
ATOM     14  N   UNL     1      -0.105   9.543  22.149  0.00  0.00    +0.000 NA
ATOM     15  C   UNL     1      -0.347  10.458  21.196  0.00  0.00    +0.000 A 
ATOM     16  N   UNL     1      -1.226  11.498  21.327  0.00  0.00    +0.000 N 
ATOM     17  C   UNL     1      -1.259  12.226  20.163  0.00  0.00    +0.000 A 
ATOM     18  C   UNL     1      -0.366  11.653  19.282  0.00  0.00    +0.000 A 
ATOM     19  C   UNL     1       0.213  10.525  19.927  0.00  0.00    +0.000 A 
ATOM     20  C   UNL     1       1.144   9.529  19.578  0.00  0.00    +0.000 A 
ATOM     21  H   UNL     1      -1.770  11.667  22.159  0.00  0.00    +0.000 HD
ENDBRANCH  10  12
ENDBRANCH   7   8
BRANCH   5  22
ATOM     22  S   UNL     1       7.123   5.444  17.211  0.00  0.00    +0.000 S 
ATOM     23  O   UNL     1       7.790   6.448  18.009  0.00  0.00    +0.000 OA
ATOM     24  O   UNL     1       7.754   4.173  16.921  0.00  0.00    +0.000 OA
BRANCH  22  25
ATOM     25  N   UNL     1       6.667   6.110  15.717  0.00  0.00    +0.000 N 
ATOM     26  H   UNL     1       7.157   6.991  15.558  0.00  0.00    +0.000 HD
BRANCH  25  27
ATOM     27  C   UNL     1       6.659   5.228  14.591  0.00  0.00    +0.000 A 
ATOM     28  C   UNL     1       7.662   5.332  13.629  0.00  0.00    +0.000 A 
ATOM     29  C   UNL     1       7.624   4.518  12.494  0.00  0.00    +0.000 A 
ATOM     30  C   UNL     1       6.565   3.626  12.303  0.00  0.00    +0.000 A 
ATOM     31  C   UNL     1       5.552   3.531  13.256  0.00  0.00    +0.000 A 
ATOM     32  C   UNL     1       5.612   4.323  14.397  0.00  0.00    +0.000 A 
ATOM     33  F   UNL     1       4.640   4.224  15.316  0.00  0.00    +0.000 F 
ENDBRANCH  25  27
ENDBRANCH  22  25
ENDBRANCH   5  22
TORSDOF 5
ENDMDL
MODEL 6
REMARK VINA RESULT:      -9.4      1.284      1.826
REMARK  Name = 
REMARK  6 active torsions:
REMARK  status: ('A' for Active; 'I' for Inactive)
REMARK    1  A    between atoms: C_1  and  C_2
REMARK    2  A    between atoms: C_5  and  S_6
REMARK    3  A    between atoms: S_6  and  N_9
REMARK    4  A    between atoms: N_9  and  C_10
REMARK    5  A    between atoms: C_18  and  C_19
REMARK    6  A    between atoms: N_21  and  C_22
REMARK                            x       y       z     vdW  Elec       q    Type
REMARK                         _______ _______ _______ _____ _____    ______ ____
ROOT
ATOM      1  C   UNL     1       2.584   3.554  20.904  0.00  0.00    +0.000 C 
ATOM      2  C   UNL     1       3.349   4.297  19.841  0.00  0.00    +0.000 A 
ATOM      3  C   UNL     1       4.379   3.615  19.162  0.00  0.00    +0.000 A 
ATOM      4  C   UNL     1       5.136   4.250  18.178  0.00  0.00    +0.000 A 
ATOM      5  C   UNL     1       4.896   5.592  17.892  0.00  0.00    +0.000 A 
ATOM      6  C   UNL     1       3.872   6.289  18.541  0.00  0.00    +0.000 A 
ATOM      7  C   UNL     1       3.083   5.645  19.508  0.00  0.00    +0.000 A 
ENDROOT
BRANCH   7   8
ATOM      8  C   UNL     1       2.007   6.436  20.190  0.00  0.00    +0.000 C 
ATOM      9  O   UNL     1       0.989   5.872  20.560  0.00  0.00    +0.000 OA
ATOM     10  N   UNL     1       2.274   7.793  20.314  0.00  0.00    +0.000 N 
ATOM     11  H   UNL     1       3.074   8.161  19.815  0.00  0.00    +0.000 HD
BRANCH  10  12
ATOM     12  C   UNL     1       1.452   8.755  20.950  0.00  0.00    +0.000 A 
ATOM     13  C   UNL     1       1.360   8.936  22.333  0.00  0.00    +0.000 A 
ATOM     14  N   UNL     1       0.556   9.828  22.974  0.00  0.00    +0.000 NA
ATOM     15  C   UNL     1      -0.200  10.549  22.130  0.00  0.00    +0.000 A 
ATOM     16  N   UNL     1      -1.125  11.477  22.520  0.00  0.00    +0.000 N 
ATOM     17  C   UNL     1      -1.743  12.009  21.415  0.00  0.00    +0.000 A 
ATOM     18  C   UNL     1      -1.183  11.426  20.298  0.00  0.00    +0.000 A 
ATOM     19  C   UNL     1      -0.206  10.492  20.742  0.00  0.00    +0.000 A 
ATOM     20  C   UNL     1       0.672   9.580  20.129  0.00  0.00    +0.000 A 
ATOM     21  H   UNL     1      -1.318  11.701  23.485  0.00  0.00    +0.000 HD
ENDBRANCH  10  12
ENDBRANCH   7   8
BRANCH   5  22
ATOM     22  S   UNL     1       5.872   6.433  16.662  0.00  0.00    +0.000 S 
ATOM     23  O   UNL     1       5.016   6.720  15.533  0.00  0.00    +0.000 OA
ATOM     24  O   UNL     1       6.582   7.489  17.355  0.00  0.00    +0.000 OA
BRANCH  22  25
ATOM     25  N   UNL     1       7.035   5.278  16.220  0.00  0.00    +0.000 N 
ATOM     26  H   UNL     1       7.036   4.504  16.885  0.00  0.00    +0.000 HD
BRANCH  25  27
ATOM     27  C   UNL     1       7.058   4.875  14.847  0.00  0.00    +0.000 A 
ATOM     28  C   UNL     1       7.884   5.547  13.947  0.00  0.00    +0.000 A 
ATOM     29  C   UNL     1       7.862   5.202  12.593  0.00  0.00    +0.000 A 
ATOM     30  C   UNL     1       6.991   4.211  12.133  0.00  0.00    +0.000 A 
ATOM     31  C   UNL     1       6.154   3.548  13.029  0.00  0.00    +0.000 A 
ATOM     32  C   UNL     1       6.201   3.875  14.379  0.00  0.00    +0.000 A 
ATOM     33  F   UNL     1       5.399   3.230  15.240  0.00  0.00    +0.000 F 
ENDBRANCH  25  27
ENDBRANCH  22  25
ENDBRANCH   5  22
TORSDOF 5
ENDMDL
MODEL 7
REMARK VINA RESULT:      -9.4      1.926      2.550
REMARK  Name = 
REMARK  6 active torsions:
REMARK  status: ('A' for Active; 'I' for Inactive)
REMARK    1  A    between atoms: C_1  and  C_2
REMARK    2  A    between atoms: C_5  and  S_6
REMARK    3  A    between atoms: S_6  and  N_9
REMARK    4  A    between atoms: N_9  and  C_10
REMARK    5  A    between atoms: C_18  and  C_19
REMARK    6  A    between atoms: N_21  and  C_22
REMARK                            x       y       z     vdW  Elec       q    Type
REMARK                         _______ _______ _______ _____ _____    ______ ____
ROOT
ATOM      1  C   UNL     1       1.187   3.222  20.839  0.00  0.00    +0.000 C 
ATOM      2  C   UNL     1       2.462   3.810  20.293  0.00  0.00    +0.000 A 
ATOM      3  C   UNL     1       3.493   2.928  19.914  0.00  0.00    +0.000 A 
ATOM      4  C   UNL     1       4.705   3.407  19.416  0.00  0.00    +0.000 A 
ATOM      5  C   UNL     1       4.911   4.783  19.332  0.00  0.00    +0.000 A 
ATOM      6  C   UNL     1       3.900   5.680  19.689  0.00  0.00    +0.000 A 
ATOM      7  C   UNL     1       2.665   5.202  20.158  0.00  0.00    +0.000 A 
ENDROOT
BRANCH   7   8
ATOM      8  C   UNL     1       1.616   6.202  20.544  0.00  0.00    +0.000 C 
ATOM      9  O   UNL     1       0.449   5.850  20.618  0.00  0.00    +0.000 OA
ATOM     10  N   UNL     1       2.091   7.488  20.762  0.00  0.00    +0.000 N 
ATOM     11  H   UNL     1       3.049   7.683  20.501  0.00  0.00    +0.000 HD
BRANCH  10  12
ATOM     12  C   UNL     1       1.327   8.605  21.176  0.00  0.00    +0.000 A 
ATOM     13  C   UNL     1       1.181   9.027  22.500  0.00  0.00    +0.000 A 
ATOM     14  N   UNL     1       0.428  10.075  22.931  0.00  0.00    +0.000 NA
ATOM     15  C   UNL     1      -0.217  10.699  21.932  0.00  0.00    +0.000 A 
ATOM     16  N   UNL     1      -1.075  11.750  22.103  0.00  0.00    +0.000 N 
ATOM     17  C   UNL     1      -1.587  12.133  20.887  0.00  0.00    +0.000 A 
ATOM     18  C   UNL     1      -1.025  11.326  19.921  0.00  0.00    +0.000 A 
ATOM     19  C   UNL     1      -0.158  10.407  20.575  0.00  0.00    +0.000 A 
ATOM     20  C   UNL     1       0.665   9.338  20.180  0.00  0.00    +0.000 A 
ATOM     21  H   UNL     1      -1.296  12.149  23.003  0.00  0.00    +0.000 HD
ENDBRANCH  10  12
ENDBRANCH   7   8
BRANCH   5  22
ATOM     22  S   UNL     1       6.461   5.419  18.730  0.00  0.00    +0.000 S 
ATOM     23  O   UNL     1       6.182   6.588  17.925  0.00  0.00    +0.000 OA
ATOM     24  O   UNL     1       7.347   5.489  19.874  0.00  0.00    +0.000 OA
BRANCH  22  25
ATOM     25  N   UNL     1       7.047   4.169  17.740  0.00  0.00    +0.000 N 
ATOM     26  H   UNL     1       6.829   3.261  18.151  0.00  0.00    +0.000 HD
BRANCH  25  27
ATOM     27  C   UNL     1       6.766   4.266  16.341  0.00  0.00    +0.000 A 
ATOM     28  C   UNL     1       7.636   4.974  15.513  0.00  0.00    +0.000 A 
ATOM     29  C   UNL     1       7.333   5.127  14.157  0.00  0.00    +0.000 A 
ATOM     30  C   UNL     1       6.146   4.605  13.637  0.00  0.00    +0.000 A 
ATOM     31  C   UNL     1       5.267   3.909  14.467  0.00  0.00    +0.000 A 
ATOM     32  C   UNL     1       5.589   3.735  15.808  0.00  0.00    +0.000 A 
ATOM     33  F   UNL     1       4.745   3.059  16.603  0.00  0.00    +0.000 F 
ENDBRANCH  25  27
ENDBRANCH  22  25
ENDBRANCH   5  22
TORSDOF 5
ENDMDL
MODEL 8
REMARK VINA RESULT:      -9.3      1.187      1.307
REMARK  Name = 
REMARK  6 active torsions:
REMARK  status: ('A' for Active; 'I' for Inactive)
REMARK    1  A    between atoms: C_1  and  C_2
REMARK    2  A    between atoms: C_5  and  S_6
REMARK    3  A    between atoms: S_6  and  N_9
REMARK    4  A    between atoms: N_9  and  C_10
REMARK    5  A    between atoms: C_18  and  C_19
REMARK    6  A    between atoms: N_21  and  C_22
REMARK                            x       y       z     vdW  Elec       q    Type
REMARK                         _______ _______ _______ _____ _____    ______ ____
ROOT
ATOM      1  C   UNL     1       2.009   4.938  20.126  0.00  0.00    +0.000 C 
ATOM      2  C   UNL     1       3.165   5.110  19.176  0.00  0.00    +0.000 A 
ATOM      3  C   UNL     1       4.063   4.035  19.019  0.00  0.00    +0.000 A 
ATOM      4  C   UNL     1       5.163   4.134  18.167  0.00  0.00    +0.000 A 
ATOM      5  C   UNL     1       5.399   5.330  17.493  0.00  0.00    +0.000 A 
ATOM      6  C   UNL     1       4.516   6.407  17.620  0.00  0.00    +0.000 A 
ATOM      7  C   UNL     1       3.388   6.302  18.449  0.00  0.00    +0.000 A 
ENDROOT
BRANCH   7   8
ATOM      8  C   UNL     1       2.478   7.488  18.567  0.00  0.00    +0.000 C 
ATOM      9  O   UNL     1       2.198   8.132  17.568  0.00  0.00    +0.000 OA
ATOM     10  N   UNL     1       2.049   7.766  19.858  0.00  0.00    +0.000 N 
ATOM     11  H   UNL     1       2.491   7.262  20.617  0.00  0.00    +0.000 HD
BRANCH  10  12
ATOM     12  C   UNL     1       1.158   8.797  20.243  0.00  0.00    +0.000 A 
ATOM     13  C   UNL     1       0.718   9.825  19.405  0.00  0.00    +0.000 A 
ATOM     14  N   UNL     1      -0.111  10.846  19.754  0.00  0.00    +0.000 NA
ATOM     15  C   UNL     1      -0.480  10.799  21.045  0.00  0.00    +0.000 A 
ATOM     16  N   UNL     1      -1.270  11.733  21.658  0.00  0.00    +0.000 N 
ATOM     17  C   UNL     1      -1.431  11.406  22.982  0.00  0.00    +0.000 A 
ATOM     18  C   UNL     1      -0.753  10.227  23.210  0.00  0.00    +0.000 A 
ATOM     19  C   UNL     1      -0.140   9.837  21.987  0.00  0.00    +0.000 A 
ATOM     20  C   UNL     1       0.688   8.782  21.563  0.00  0.00    +0.000 A 
ATOM     21  H   UNL     1      -1.644  12.543  21.187  0.00  0.00    +0.000 HD
ENDBRANCH  10  12
ENDBRANCH   7   8
BRANCH   5  22
ATOM     22  S   UNL     1       6.814   5.491  16.425  0.00  0.00    +0.000 S 
ATOM     23  O   UNL     1       7.643   6.558  16.940  0.00  0.00    +0.000 OA
ATOM     24  O   UNL     1       7.340   4.154  16.238  0.00  0.00    +0.000 OA
BRANCH  22  25
ATOM     25  N   UNL     1       6.139   5.958  14.938  0.00  0.00    +0.000 N 
ATOM     26  H   UNL     1       6.419   6.912  14.707  0.00  0.00    +0.000 HD
BRANCH  25  27
ATOM     27  C   UNL     1       6.256   5.030  13.855  0.00  0.00    +0.000 A 
ATOM     28  C   UNL     1       5.236   4.108  13.627  0.00  0.00    +0.000 A 
ATOM     29  C   UNL     1       5.374   3.157  12.612  0.00  0.00    +0.000 A 
ATOM     30  C   UNL     1       6.543   3.106  11.849  0.00  0.00    +0.000 A 
ATOM     31  C   UNL     1       7.571   4.018  12.085  0.00  0.00    +0.000 A 
ATOM     32  C   UNL     1       7.416   4.980  13.076  0.00  0.00    +0.000 A 
ATOM     33  F   UNL     1       8.403   5.861  13.296  0.00  0.00    +0.000 F 
ENDBRANCH  25  27
ENDBRANCH  22  25
ENDBRANCH   5  22
TORSDOF 5
ENDMDL
MODEL 9
REMARK VINA RESULT:      -9.1      2.327      2.626
REMARK  Name = 
REMARK  6 active torsions:
REMARK  status: ('A' for Active; 'I' for Inactive)
REMARK    1  A    between atoms: C_1  and  C_2
REMARK    2  A    between atoms: C_5  and  S_6
REMARK    3  A    between atoms: S_6  and  N_9
REMARK    4  A    between atoms: N_9  and  C_10
REMARK    5  A    between atoms: C_18  and  C_19
REMARK    6  A    between atoms: N_21  and  C_22
REMARK                            x       y       z     vdW  Elec       q    Type
REMARK                         _______ _______ _______ _____ _____    ______ ____
ROOT
ATOM      1  C   UNL     1       2.237   4.295  20.491  0.00  0.00    +0.000 C 
ATOM      2  C   UNL     1       3.412   4.657  19.620  0.00  0.00    +0.000 A 
ATOM      3  C   UNL     1       4.386   3.670  19.372  0.00  0.00    +0.000 A 
ATOM      4  C   UNL     1       5.505   3.944  18.586  0.00  0.00    +0.000 A 
ATOM      5  C   UNL     1       5.682   5.228  18.075  0.00  0.00    +0.000 A 
ATOM      6  C   UNL     1       4.725   6.222  18.295  0.00  0.00    +0.000 A 
ATOM      7  C   UNL     1       3.578   5.942  19.055  0.00  0.00    +0.000 A 
ENDROOT
BRANCH   7   8
ATOM      8  C   UNL     1       2.586   7.045  19.278  0.00  0.00    +0.000 C 
ATOM      9  O   UNL     1       1.915   7.053  20.299  0.00  0.00    +0.000 OA
ATOM     10  N   UNL     1       2.504   7.971  18.247  0.00  0.00    +0.000 N 
ATOM     11  H   UNL     1       2.988   7.755  17.385  0.00  0.00    +0.000 HD
BRANCH  10  12
ATOM     12  C   UNL     1       1.686   9.126  18.220  0.00  0.00    +0.000 A 
ATOM     13  C   UNL     1       2.108  10.411  18.571  0.00  0.00    +0.000 A 
ATOM     14  N   UNL     1       1.338  11.533  18.586  0.00  0.00    +0.000 NA
ATOM     15  C   UNL     1       0.063  11.295  18.237  0.00  0.00    +0.000 A 
ATOM     16  N   UNL     1      -0.924  12.242  18.219  0.00  0.00    +0.000 N 
ATOM     17  C   UNL     1      -2.113  11.664  17.846  0.00  0.00    +0.000 A 
ATOM     18  C   UNL     1      -1.873  10.329  17.598  0.00  0.00    +0.000 A 
ATOM     19  C   UNL     1      -0.495  10.083  17.850  0.00  0.00    +0.000 A 
ATOM     20  C   UNL     1       0.355   8.963  17.814  0.00  0.00    +0.000 A 
ATOM     21  H   UNL     1      -0.775  13.208  18.468  0.00  0.00    +0.000 HD
ENDBRANCH  10  12
ENDBRANCH   7   8
BRANCH   5  22
ATOM     22  S   UNL     1       7.120   5.610  17.097  0.00  0.00    +0.000 S 
ATOM     23  O   UNL     1       7.820   6.700  17.739  0.00  0.00    +0.000 OA
ATOM     24  O   UNL     1       7.779   4.348  16.827  0.00  0.00    +0.000 OA
BRANCH  22  25
ATOM     25  N   UNL     1       6.468   6.140  15.621  0.00  0.00    +0.000 N 
ATOM     26  H   UNL     1       6.781   7.089  15.416  0.00  0.00    +0.000 HD
BRANCH  25  27
ATOM     27  C   UNL     1       6.556   5.238  14.514  0.00  0.00    +0.000 A 
ATOM     28  C   UNL     1       7.545   5.428  13.550  0.00  0.00    +0.000 A 
ATOM     29  C   UNL     1       7.595   4.590  12.432  0.00  0.00    +0.000 A 
ATOM     30  C   UNL     1       6.638   3.587  12.260  0.00  0.00    +0.000 A 
ATOM     31  C   UNL     1       5.638   3.405  13.216  0.00  0.00    +0.000 A 
ATOM     32  C   UNL     1       5.611   4.223  14.340  0.00  0.00    +0.000 A 
ATOM     33  F   UNL     1       4.653   4.041  15.261  0.00  0.00    +0.000 F 
ENDBRANCH  25  27
ENDBRANCH  22  25
ENDBRANCH   5  22
TORSDOF 5
ENDMDL
