MODEL 1
REMARK VINA RESULT:      -8.6      0.000      0.000
REMARK  Name = 
REMARK  5 active torsions:
REMARK  status: ('A' for Active; 'I' for Inactive)
REMARK    1  A    between atoms: C_2  and  C_7
REMARK    2  A    between atoms: N_3  and  C_4
REMARK    3  A    between atoms: C_11  and  N_12
REMARK    4  A    between atoms: C_13  and  C_15
REMARK    5  A    between atoms: C_19  and  C_20
REMARK                            x       y       z     vdW  Elec       q    Type
REMARK                         _______ _______ _______ _____ _____    ______ ____
ROOT
ATOM      1  N   UNL     1       2.510   6.479  20.078  0.00  0.00    +0.000 N 
ATOM      2  C   UNL     1       2.472   5.501  19.083  0.00  0.00    +0.000 C 
ATOM      3  O   UNL     1       1.968   5.666  17.977  0.00  0.00    +0.000 OA
ATOM      4  H   UNL     1       3.086   6.263  20.879  0.00  0.00    +0.000 HD
ENDROOT
BRANCH   1   9
ATOM      5  C   UNL     1       0.741   9.584  21.103  0.00  0.00    +0.000 A 
ATOM      6  C   UNL     1       0.768  10.322  19.911  0.00  0.00    +0.000 A 
ATOM      7  C   UNL     1       1.328   9.778  18.765  0.00  0.00    +0.000 A 
ATOM      8  C   UNL     1       1.883   8.502  18.810  0.00  0.00    +0.000 A 
ATOM      9  C   UNL     1       1.910   7.759  19.999  0.00  0.00    +0.000 A 
ATOM     10  C   UNL     1       1.305   8.298  21.149  0.00  0.00    +0.000 A 
BRANCH   5  12
ATOM     11  O   UNL     1       0.324   9.863  23.386  0.00  0.00    +0.000 OA
ATOM     12  C   UNL     1       0.043  10.225  22.249  0.00  0.00    +0.000 C 
ATOM     13  N   UNL     1      -0.941  11.157  21.972  0.00  0.00    +0.000 N 
ATOM     14  H   UNL     1      -1.249  11.292  21.019  0.00  0.00    +0.000 HD
BRANCH  13  15
ATOM     15  C   UNL     1      -1.758  11.657  23.041  0.00  0.00    +0.000 C 
ATOM     16  C   UNL     1      -3.040  12.401  22.801  0.00  0.00    +0.000 C 
ATOM     17  C   UNL     1      -1.831  13.135  23.306  0.00  0.00    +0.000 C 
ENDBRANCH  13  15
ENDBRANCH   5  12
ENDBRANCH   1   9
BRANCH   2  18
ATOM     18  C   UNL     1       3.118   4.251  19.459  0.00  0.00    +0.000 A 
ATOM     19  O   UNL     1       2.557   3.528  20.484  0.00  0.00    +0.000 OA
ATOM     20  C   UNL     1       3.380   2.484  20.741  0.00  0.00    +0.000 A 
ATOM     21  C   UNL     1       4.442   2.485  19.873  0.00  0.00    +0.000 A 
ATOM     22  C   UNL     1       4.280   3.618  19.018  0.00  0.00    +0.000 A 
BRANCH  22  23
ATOM     23  C   UNL     1       5.152   4.056  17.930  0.00  0.00    +0.000 A 
ATOM     24  C   UNL     1       6.394   4.664  18.170  0.00  0.00    +0.000 A 
ATOM     25  C   UNL     1       7.228   5.043  17.113  0.00  0.00    +0.000 A 
ATOM     26  C   UNL     1       6.814   4.860  15.797  0.00  0.00    +0.000 A 
ATOM     27  C   UNL     1       5.566   4.301  15.539  0.00  0.00    +0.000 A 
ATOM     28  C   UNL     1       4.742   3.900  16.597  0.00  0.00    +0.000 A 
ENDBRANCH  22  23
ENDBRANCH   2  18
TORSDOF 5
ENDMDL
MODEL 2
REMARK VINA RESULT:      -8.5      3.267      8.755
REMARK  Name = 
REMARK  5 active torsions:
REMARK  status: ('A' for Active; 'I' for Inactive)
REMARK    1  A    between atoms: C_2  and  C_7
REMARK    2  A    between atoms: N_3  and  C_4
REMARK    3  A    between atoms: C_11  and  N_12
REMARK    4  A    between atoms: C_13  and  C_15
REMARK    5  A    between atoms: C_19  and  C_20
REMARK                            x       y       z     vdW  Elec       q    Type
REMARK                         _______ _______ _______ _____ _____    ______ ____
ROOT
ATOM      1  N   UNL     1       4.360   5.823  18.702  0.00  0.00    +0.000 N 
ATOM      2  C   UNL     1       3.510   6.844  18.276  0.00  0.00    +0.000 C 
ATOM      3  O   UNL     1       3.608   7.413  17.194  0.00  0.00    +0.000 OA
ATOM      4  H   UNL     1       4.074   5.341  19.542  0.00  0.00    +0.000 HD
ENDROOT
BRANCH   1   9
ATOM      5  C   UNL     1       6.584   4.861  15.883  0.00  0.00    +0.000 A 
ATOM      6  C   UNL     1       7.751   4.491  16.568  0.00  0.00    +0.000 A 
ATOM      7  C   UNL     1       7.786   4.517  17.953  0.00  0.00    +0.000 A 
ATOM      8  C   UNL     1       6.663   4.934  18.662  0.00  0.00    +0.000 A 
ATOM      9  C   UNL     1       5.497   5.352  18.003  0.00  0.00    +0.000 A 
ATOM     10  C   UNL     1       5.452   5.285  16.598  0.00  0.00    +0.000 A 
BRANCH   5  12
ATOM     11  O   UNL     1       7.157   5.599  13.740  0.00  0.00    +0.000 OA
ATOM     12  C   UNL     1       6.625   4.716  14.403  0.00  0.00    +0.000 C 
ATOM     13  N   UNL     1       6.000   3.618  13.840  0.00  0.00    +0.000 N 
ATOM     14  H   UNL     1       5.432   3.013  14.418  0.00  0.00    +0.000 HD
BRANCH  13  15
ATOM     15  C   UNL     1       5.859   3.543  12.414  0.00  0.00    +0.000 C 
ATOM     16  C   UNL     1       4.542   3.280  11.742  0.00  0.00    +0.000 C 
ATOM     17  C   UNL     1       5.602   2.217  11.751  0.00  0.00    +0.000 C 
ENDBRANCH  13  15
ENDBRANCH   5  12
ENDBRANCH   1   9
BRANCH   2  18
ATOM     18  C   UNL     1       2.454   7.169  19.226  0.00  0.00    +0.000 A 
ATOM     19  O   UNL     1       2.133   8.495  19.391  0.00  0.00    +0.000 OA
ATOM     20  C   UNL     1       1.228   8.570  20.395  0.00  0.00    +0.000 A 
ATOM     21  C   UNL     1       0.918   7.316  20.858  0.00  0.00    +0.000 A 
ATOM     22  C   UNL     1       1.693   6.389  20.096  0.00  0.00    +0.000 A 
BRANCH  22  23
ATOM     23  C   UNL     1       1.721   4.932  20.212  0.00  0.00    +0.000 A 
ATOM     24  C   UNL     1       1.243   4.095  19.191  0.00  0.00    +0.000 A 
ATOM     25  C   UNL     1       1.312   2.703  19.309  0.00  0.00    +0.000 A 
ATOM     26  C   UNL     1       1.820   2.125  20.467  0.00  0.00    +0.000 A 
ATOM     27  C   UNL     1       2.256   2.938  21.510  0.00  0.00    +0.000 A 
ATOM     28  C   UNL     1       2.209   4.330  21.382  0.00  0.00    +0.000 A 
ENDBRANCH  22  23
ENDBRANCH   2  18
TORSDOF 5
ENDMDL
MODEL 3
REMARK VINA RESULT:      -8.4      3.654      8.866
REMARK  Name = 
REMARK  5 active torsions:
REMARK  status: ('A' for Active; 'I' for Inactive)
REMARK    1  A    between atoms: C_2  and  C_7
REMARK    2  A    between atoms: N_3  and  C_4
REMARK    3  A    between atoms: C_11  and  N_12
REMARK    4  A    between atoms: C_13  and  C_15
REMARK    5  A    between atoms: C_19  and  C_20
REMARK                            x       y       z     vdW  Elec       q    Type
REMARK                         _______ _______ _______ _____ _____    ______ ____
ROOT
ATOM      1  N   UNL     1       4.304   4.230  17.575  0.00  0.00    +0.000 N 
ATOM      2  C   UNL     1       4.570   4.037  18.931  0.00  0.00    +0.000 C 
ATOM      3  O   UNL     1       5.694   4.066  19.422  0.00  0.00    +0.000 OA
ATOM      4  H   UNL     1       3.329   4.332  17.333  0.00  0.00    +0.000 HD
ENDROOT
BRANCH   1   9
ATOM      5  C   UNL     1       5.929   4.130  14.233  0.00  0.00    +0.000 A 
ATOM      6  C   UNL     1       7.145   4.776  14.499  0.00  0.00    +0.000 A 
ATOM      7  C   UNL     1       7.443   5.201  15.784  0.00  0.00    +0.000 A 
ATOM      8  C   UNL     1       6.519   5.003  16.806  0.00  0.00    +0.000 A 
ATOM      9  C   UNL     1       5.277   4.400  16.560  0.00  0.00    +0.000 A 
ATOM     10  C   UNL     1       4.995   3.934  15.263  0.00  0.00    +0.000 A 
BRANCH   5  12
ATOM     11  O   UNL     1       6.737   3.375  12.173  0.00  0.00    +0.000 OA
ATOM     12  C   UNL     1       5.743   3.639  12.841  0.00  0.00    +0.000 C 
ATOM     13  N   UNL     1       4.454   3.566  12.344  0.00  0.00    +0.000 N 
ATOM     14  H   UNL     1       3.689   3.956  12.877  0.00  0.00    +0.000 HD
BRANCH  13  15
ATOM     15  C   UNL     1       4.252   3.275  10.953  0.00  0.00    +0.000 C 
ATOM     16  C   UNL     1       3.326   4.077  10.085  0.00  0.00    +0.000 C 
ATOM     17  C   UNL     1       2.951   2.680  10.490  0.00  0.00    +0.000 C 
ENDBRANCH  13  15
ENDBRANCH   5  12
ENDBRANCH   1   9
BRANCH   2  18
ATOM     18  C   UNL     1       3.379   3.823  19.742  0.00  0.00    +0.000 A 
ATOM     19  O   UNL     1       3.189   2.571  20.275  0.00  0.00    +0.000 OA
ATOM     20  C   UNL     1       1.976   2.567  20.878  0.00  0.00    +0.000 A 
ATOM     21  C   UNL     1       1.392   3.806  20.790  0.00  0.00    +0.000 A 
ATOM     22  C   UNL     1       2.298   4.642  20.069  0.00  0.00    +0.000 A 
BRANCH  22  23
ATOM     23  C   UNL     1       2.133   6.050  19.712  0.00  0.00    +0.000 A 
ATOM     24  C   UNL     1       1.693   7.006  20.641  0.00  0.00    +0.000 A 
ATOM     25  C   UNL     1       1.576   8.354  20.286  0.00  0.00    +0.000 A 
ATOM     26  C   UNL     1       1.854   8.761  18.985  0.00  0.00    +0.000 A 
ATOM     27  C   UNL     1       2.245   7.820  18.038  0.00  0.00    +0.000 A 
ATOM     28  C   UNL     1       2.386   6.475  18.399  0.00  0.00    +0.000 A 
ENDBRANCH  22  23
ENDBRANCH   2  18
TORSDOF 5
ENDMDL
MODEL 4
REMARK VINA RESULT:      -8.4      3.135      4.629
REMARK  Name = 
REMARK  5 active torsions:
REMARK  status: ('A' for Active; 'I' for Inactive)
REMARK    1  A    between atoms: C_2  and  C_7
REMARK    2  A    between atoms: N_3  and  C_4
REMARK    3  A    between atoms: C_11  and  N_12
REMARK    4  A    between atoms: C_13  and  C_15
REMARK    5  A    between atoms: C_19  and  C_20
REMARK                            x       y       z     vdW  Elec       q    Type
REMARK                         _______ _______ _______ _____ _____    ______ ____
ROOT
ATOM      1  N   UNL     1       1.858   8.727  17.742  0.00  0.00    +0.000 N 
ATOM      2  C   UNL     1       2.347   7.792  18.656  0.00  0.00    +0.000 C 
ATOM      3  O   UNL     1       1.998   7.732  19.830  0.00  0.00    +0.000 OA
ATOM      4  H   UNL     1       2.113   8.568  16.778  0.00  0.00    +0.000 HD
ENDROOT
BRANCH   1   9
ATOM      5  C   UNL     1      -1.318  10.607  18.185  0.00  0.00    +0.000 A 
ATOM      6  C   UNL     1      -0.847  11.827  18.690  0.00  0.00    +0.000 A 
ATOM      7  C   UNL     1       0.514  12.042  18.840  0.00  0.00    +0.000 A 
ATOM      8  C   UNL     1       1.410  11.031  18.508  0.00  0.00    +0.000 A 
ATOM      9  C   UNL     1       0.966   9.785  18.043  0.00  0.00    +0.000 A 
ATOM     10  C   UNL     1      -0.414   9.585  17.854  0.00  0.00    +0.000 A 
BRANCH   5  12
ATOM     11  O   UNL     1      -3.226   9.627  17.254  0.00  0.00    +0.000 OA
ATOM     12  C   UNL     1      -2.789  10.509  17.984  0.00  0.00    +0.000 C 
ATOM     13  N   UNL     1      -3.591  11.464  18.584  0.00  0.00    +0.000 N 
ATOM     14  H   UNL     1      -3.168  12.264  19.033  0.00  0.00    +0.000 HD
BRANCH  13  15
ATOM     15  C   UNL     1      -4.989  11.511  18.263  0.00  0.00    +0.000 C 
ATOM     16  C   UNL     1      -5.527  12.288  17.096  0.00  0.00    +0.000 C 
ATOM     17  C   UNL     1      -5.774  12.772  18.495  0.00  0.00    +0.000 C 
ENDBRANCH  13  15
ENDBRANCH   5  12
ENDBRANCH   1   9
BRANCH   2  18
ATOM     18  C   UNL     1       3.303   6.853  18.086  0.00  0.00    +0.000 A 
ATOM     19  O   UNL     1       4.268   7.358  17.248  0.00  0.00    +0.000 OA
ATOM     20  C   UNL     1       4.958   6.306  16.745  0.00  0.00    +0.000 A 
ATOM     21  C   UNL     1       4.492   5.129  17.274  0.00  0.00    +0.000 A 
ATOM     22  C   UNL     1       3.426   5.465  18.162  0.00  0.00    +0.000 A 
BRANCH  22  23
ATOM     23  C   UNL     1       2.605   4.561  18.965  0.00  0.00    +0.000 A 
ATOM     24  C   UNL     1       2.764   4.448  20.355  0.00  0.00    +0.000 A 
ATOM     25  C   UNL     1       1.943   3.602  21.108  0.00  0.00    +0.000 A 
ATOM     26  C   UNL     1       0.979   2.821  20.477  0.00  0.00    +0.000 A 
ATOM     27  C   UNL     1       0.838   2.884  19.094  0.00  0.00    +0.000 A 
ATOM     28  C   UNL     1       1.643   3.749  18.344  0.00  0.00    +0.000 A 
ENDBRANCH  22  23
ENDBRANCH   2  18
TORSDOF 5
ENDMDL
MODEL 5
REMARK VINA RESULT:      -8.3      0.978      1.131
REMARK  Name = 
REMARK  5 active torsions:
REMARK  status: ('A' for Active; 'I' for Inactive)
REMARK    1  A    between atoms: C_2  and  C_7
REMARK    2  A    between atoms: N_3  and  C_4
REMARK    3  A    between atoms: C_11  and  N_12
REMARK    4  A    between atoms: C_13  and  C_15
REMARK    5  A    between atoms: C_19  and  C_20
REMARK                            x       y       z     vdW  Elec       q    Type
REMARK                         _______ _______ _______ _____ _____    ______ ____
ROOT
ATOM      1  N   UNL     1       2.644   6.708  19.791  0.00  0.00    +0.000 N 
ATOM      2  C   UNL     1       2.435   5.633  18.925  0.00  0.00    +0.000 C 
ATOM      3  O   UNL     1       1.661   5.657  17.975  0.00  0.00    +0.000 OA
ATOM      4  H   UNL     1       3.416   6.606  20.434  0.00  0.00    +0.000 HD
ENDROOT
BRANCH   1   9
ATOM      5  C   UNL     1       0.727   9.673  20.954  0.00  0.00    +0.000 A 
ATOM      6  C   UNL     1       0.607  10.407  19.765  0.00  0.00    +0.000 A 
ATOM      7  C   UNL     1       1.118   9.902  18.579  0.00  0.00    +0.000 A 
ATOM      8  C   UNL     1       1.770   8.673  18.579  0.00  0.00    +0.000 A 
ATOM      9  C   UNL     1       1.944   7.938  19.760  0.00  0.00    +0.000 A 
ATOM     10  C   UNL     1       1.389   8.434  20.954  0.00  0.00    +0.000 A 
BRANCH   5  12
ATOM     11  O   UNL     1       0.434   9.895  23.263  0.00  0.00    +0.000 OA
ATOM     12  C   UNL     1       0.071  10.264  22.152  0.00  0.00    +0.000 C 
ATOM     13  N   UNL     1      -0.965  11.158  21.950  0.00  0.00    +0.000 N 
ATOM     14  H   UNL     1      -1.334  11.296  21.020  0.00  0.00    +0.000 HD
BRANCH  13  15
ATOM     15  C   UNL     1      -1.738  11.603  23.075  0.00  0.00    +0.000 C 
ATOM     16  C   UNL     1      -3.058  12.303  22.924  0.00  0.00    +0.000 C 
ATOM     17  C   UNL     1      -1.851  13.072  23.377  0.00  0.00    +0.000 C 
ENDBRANCH  13  15
ENDBRANCH   5  12
ENDBRANCH   1   9
BRANCH   2  18
ATOM     18  C   UNL     1       3.251   4.465  19.227  0.00  0.00    +0.000 A 
ATOM     19  O   UNL     1       2.614   3.359  19.737  0.00  0.00    +0.000 OA
ATOM     20  C   UNL     1       3.569   2.452  20.054  0.00  0.00    +0.000 A 
ATOM     21  C   UNL     1       4.812   2.926  19.719  0.00  0.00    +0.000 A 
ATOM     22  C   UNL     1       4.625   4.228  19.163  0.00  0.00    +0.000 A 
BRANCH  22  23
ATOM     23  C   UNL     1       5.644   5.145  18.657  0.00  0.00    +0.000 A 
ATOM     24  C   UNL     1       6.828   5.405  19.365  0.00  0.00    +0.000 A 
ATOM     25  C   UNL     1       7.806   6.260  18.845  0.00  0.00    +0.000 A 
ATOM     26  C   UNL     1       7.596   6.903  17.630  0.00  0.00    +0.000 A 
ATOM     27  C   UNL     1       6.408   6.695  16.936  0.00  0.00    +0.000 A 
ATOM     28  C   UNL     1       5.440   5.822  17.444  0.00  0.00    +0.000 A 
ENDBRANCH  22  23
ENDBRANCH   2  18
TORSDOF 5
ENDMDL
MODEL 6
REMARK VINA RESULT:      -8.3      2.726      4.433
REMARK  Name = 
REMARK  5 active torsions:
REMARK  status: ('A' for Active; 'I' for Inactive)
REMARK    1  A    between atoms: C_2  and  C_7
REMARK    2  A    between atoms: N_3  and  C_4
REMARK    3  A    between atoms: C_11  and  N_12
REMARK    4  A    between atoms: C_13  and  C_15
REMARK    5  A    between atoms: C_19  and  C_20
REMARK                            x       y       z     vdW  Elec       q    Type
REMARK                         _______ _______ _______ _____ _____    ______ ____
ROOT
ATOM      1  N   UNL     1       2.375   7.579  19.375  0.00  0.00    +0.000 N 
ATOM      2  C   UNL     1       2.840   7.649  18.061  0.00  0.00    +0.000 C 
ATOM      3  O   UNL     1       2.562   8.554  17.281  0.00  0.00    +0.000 OA
ATOM      4  H   UNL     1       2.801   6.867  19.950  0.00  0.00    +0.000 HD
ENDROOT
BRANCH   1   9
ATOM      5  C   UNL     1      -0.340  10.095  19.722  0.00  0.00    +0.000 A 
ATOM      6  C   UNL     1      -0.420  10.223  21.117  0.00  0.00    +0.000 A 
ATOM      7  C   UNL     1       0.449   9.516  21.933  0.00  0.00    +0.000 A 
ATOM      8  C   UNL     1       1.387   8.660  21.363  0.00  0.00    +0.000 A 
ATOM      9  C   UNL     1       1.460   8.478  19.974  0.00  0.00    +0.000 A 
ATOM     10  C   UNL     1       0.603   9.228  19.147  0.00  0.00    +0.000 A 
BRANCH   5  12
ATOM     11  O   UNL     1      -1.869  11.851  19.516  0.00  0.00    +0.000 OA
ATOM     12  C   UNL     1      -1.260  10.960  18.936  0.00  0.00    +0.000 C 
ATOM     13  N   UNL     1      -1.432  10.673  17.593  0.00  0.00    +0.000 N 
ATOM     14  H   UNL     1      -1.038   9.827  17.207  0.00  0.00    +0.000 HD
BRANCH  13  15
ATOM     15  C   UNL     1      -2.446  11.366  16.850  0.00  0.00    +0.000 C 
ATOM     16  C   UNL     1      -3.857  10.864  16.743  0.00  0.00    +0.000 C 
ATOM     17  C   UNL     1      -2.947  10.800  15.551  0.00  0.00    +0.000 C 
ENDBRANCH  13  15
ENDBRANCH   5  12
ENDBRANCH   1   9
BRANCH   2  18
ATOM     18  C   UNL     1       3.725   6.554  17.689  0.00  0.00    +0.000 A 
ATOM     19  O   UNL     1       4.770   6.840  16.844  0.00  0.00    +0.000 OA
ATOM     20  C   UNL     1       5.378   5.668  16.540  0.00  0.00    +0.000 A 
ATOM     21  C   UNL     1       4.778   4.630  17.206  0.00  0.00    +0.000 A 
ATOM     22  C   UNL     1       3.711   5.188  17.973  0.00  0.00    +0.000 A 
BRANCH  22  23
ATOM     23  C   UNL     1       2.773   4.491  18.850  0.00  0.00    +0.000 A 
ATOM     24  C   UNL     1       2.926   4.479  20.245  0.00  0.00    +0.000 A 
ATOM     25  C   UNL     1       1.996   3.834  21.068  0.00  0.00    +0.000 A 
ATOM     26  C   UNL     1       0.921   3.153  20.505  0.00  0.00    +0.000 A 
ATOM     27  C   UNL     1       0.778   3.113  19.122  0.00  0.00    +0.000 A 
ATOM     28  C   UNL     1       1.695   3.779  18.300  0.00  0.00    +0.000 A 
ENDBRANCH  22  23
ENDBRANCH   2  18
TORSDOF 5
ENDMDL
MODEL 7
REMARK VINA RESULT:      -8.2      2.957      4.693
REMARK  Name = 
REMARK  5 active torsions:
REMARK  status: ('A' for Active; 'I' for Inactive)
REMARK    1  A    between atoms: C_2  and  C_7
REMARK    2  A    between atoms: N_3  and  C_4
REMARK    3  A    between atoms: C_11  and  N_12
REMARK    4  A    between atoms: C_13  and  C_15
REMARK    5  A    between atoms: C_19  and  C_20
REMARK                            x       y       z     vdW  Elec       q    Type
REMARK                         _______ _______ _______ _____ _____    ______ ____
ROOT
ATOM      1  N   UNL     1       2.398   7.856  19.360  0.00  0.00    +0.000 N 
ATOM      2  C   UNL     1       2.847   7.692  18.049  0.00  0.00    +0.000 C 
ATOM      3  O   UNL     1       2.462   8.369  17.102  0.00  0.00    +0.000 OA
ATOM      4  H   UNL     1       2.907   7.338  20.062  0.00  0.00    +0.000 HD
ENDROOT
BRANCH   1   9
ATOM      5  C   UNL     1      -0.383  10.318  19.195  0.00  0.00    +0.000 A 
ATOM      6  C   UNL     1      -0.678  10.490  20.555  0.00  0.00    +0.000 A 
ATOM      7  C   UNL     1       0.066   9.831  21.520  0.00  0.00    +0.000 A 
ATOM      8  C   UNL     1       1.096   8.979  21.132  0.00  0.00    +0.000 A 
ATOM      9  C   UNL     1       1.385   8.753  19.778  0.00  0.00    +0.000 A 
ATOM     10  C   UNL     1       0.654   9.455  18.803  0.00  0.00    +0.000 A 
BRANCH   5  12
ATOM     11  O   UNL     1      -1.381  12.317  18.506  0.00  0.00    +0.000 OA
ATOM     12  C   UNL     1      -1.185  11.135  18.246  0.00  0.00    +0.000 C 
ATOM     13  N   UNL     1      -1.728  10.502  17.142  0.00  0.00    +0.000 N 
ATOM     14  H   UNL     1      -1.677   9.495  17.066  0.00  0.00    +0.000 HD
BRANCH  13  15
ATOM     15  C   UNL     1      -2.656  11.213  16.308  0.00  0.00    +0.000 C 
ATOM     16  C   UNL     1      -4.087  10.790  16.145  0.00  0.00    +0.000 C 
ATOM     17  C   UNL     1      -3.120  10.608  15.012  0.00  0.00    +0.000 C 
ENDBRANCH  13  15
ENDBRANCH   5  12
ENDBRANCH   1   9
BRANCH   2  18
ATOM     18  C   UNL     1       3.853   6.651  17.895  0.00  0.00    +0.000 A 
ATOM     19  O   UNL     1       5.049   7.002  17.317  0.00  0.00    +0.000 OA
ATOM     20  C   UNL     1       5.774   5.868  17.164  0.00  0.00    +0.000 A 
ATOM     21  C   UNL     1       5.094   4.791  17.673  0.00  0.00    +0.000 A 
ATOM     22  C   UNL     1       3.848   5.283  18.170  0.00  0.00    +0.000 A 
BRANCH  22  23
ATOM     23  C   UNL     1       2.771   4.525  18.804  0.00  0.00    +0.000 A 
ATOM     24  C   UNL     1       1.829   3.802  18.057  0.00  0.00    +0.000 A 
ATOM     25  C   UNL     1       0.828   3.055  18.687  0.00  0.00    +0.000 A 
ATOM     26  C   UNL     1       0.725   3.055  20.074  0.00  0.00    +0.000 A 
ATOM     27  C   UNL     1       1.621   3.805  20.831  0.00  0.00    +0.000 A 
ATOM     28  C   UNL     1       2.637   4.532  20.202  0.00  0.00    +0.000 A 
ENDBRANCH  22  23
ENDBRANCH   2  18
TORSDOF 5
ENDMDL
MODEL 8
REMARK VINA RESULT:      -8.2      3.299      5.050
REMARK  Name = 
REMARK  5 active torsions:
REMARK  status: ('A' for Active; 'I' for Inactive)
REMARK    1  A    between atoms: C_2  and  C_7
REMARK    2  A    between atoms: N_3  and  C_4
REMARK    3  A    between atoms: C_11  and  N_12
REMARK    4  A    between atoms: C_13  and  C_15
REMARK    5  A    between atoms: C_19  and  C_20
REMARK                            x       y       z     vdW  Elec       q    Type
REMARK                         _______ _______ _______ _____ _____    ______ ____
ROOT
ATOM      1  N   UNL     1       1.983   8.670  17.728  0.00  0.00    +0.000 N 
ATOM      2  C   UNL     1       2.456   7.712  18.626  0.00  0.00    +0.000 C 
ATOM      3  O   UNL     1       2.173   7.691  19.819  0.00  0.00    +0.000 OA
ATOM      4  H   UNL     1       2.169   8.482  16.753  0.00  0.00    +0.000 HD
ENDROOT
BRANCH   1   9
ATOM      5  C   UNL     1       1.053  12.161  18.607  0.00  0.00    +0.000 A 
ATOM      6  C   UNL     1      -0.345  12.066  18.665  0.00  0.00    +0.000 A 
ATOM      7  C   UNL     1      -0.972  10.847  18.459  0.00  0.00    +0.000 A 
ATOM      8  C   UNL     1      -0.207   9.720  18.172  0.00  0.00    +0.000 A 
ATOM      9  C   UNL     1       1.190   9.794  18.064  0.00  0.00    +0.000 A 
ATOM     10  C   UNL     1       1.825  11.024  18.313  0.00  0.00    +0.000 A 
BRANCH   5  12
ATOM     11  O   UNL     1       0.902  14.346  19.425  0.00  0.00    +0.000 OA
ATOM     12  C   UNL     1       1.630  13.494  18.926  0.00  0.00    +0.000 C 
ATOM     13  N   UNL     1       2.949  13.731  18.583  0.00  0.00    +0.000 N 
ATOM     14  H   UNL     1       3.450  13.055  18.023  0.00  0.00    +0.000 HD
BRANCH  13  15
ATOM     15  C   UNL     1       3.481  15.058  18.707  0.00  0.00    +0.000 C 
ATOM     16  C   UNL     1       3.447  16.052  17.582  0.00  0.00    +0.000 C 
ATOM     17  C   UNL     1       4.750  15.430  17.992  0.00  0.00    +0.000 C 
ENDBRANCH  13  15
ENDBRANCH   5  12
ENDBRANCH   1   9
BRANCH   2  18
ATOM     18  C   UNL     1       3.306   6.699  18.015  0.00  0.00    +0.000 A 
ATOM     19  O   UNL     1       4.208   7.114  17.065  0.00  0.00    +0.000 OA
ATOM     20  C   UNL     1       4.795   6.006  16.553  0.00  0.00    +0.000 A 
ATOM     21  C   UNL     1       4.327   4.880  17.182  0.00  0.00    +0.000 A 
ATOM     22  C   UNL     1       3.370   5.312  18.150  0.00  0.00    +0.000 A 
BRANCH  22  23
ATOM     23  C   UNL     1       2.589   4.490  19.072  0.00  0.00    +0.000 A 
ATOM     24  C   UNL     1       2.878   4.433  20.445  0.00  0.00    +0.000 A 
ATOM     25  C   UNL     1       2.095   3.666  21.315  0.00  0.00    +0.000 A 
ATOM     26  C   UNL     1       1.038   2.909  20.819  0.00  0.00    +0.000 A 
ATOM     27  C   UNL     1       0.767   2.915  19.454  0.00  0.00    +0.000 A 
ATOM     28  C   UNL     1       1.534   3.701  18.588  0.00  0.00    +0.000 A 
ENDBRANCH  22  23
ENDBRANCH   2  18
TORSDOF 5
ENDMDL
MODEL 9
REMARK VINA RESULT:      -8.1      2.867      4.403
REMARK  Name = 
REMARK  5 active torsions:
REMARK  status: ('A' for Active; 'I' for Inactive)
REMARK    1  A    between atoms: C_2  and  C_7
REMARK    2  A    between atoms: N_3  and  C_4
REMARK    3  A    between atoms: C_11  and  N_12
REMARK    4  A    between atoms: C_13  and  C_15
REMARK    5  A    between atoms: C_19  and  C_20
REMARK                            x       y       z     vdW  Elec       q    Type
REMARK                         _______ _______ _______ _____ _____    ______ ____
ROOT
ATOM      1  N   UNL     1       3.014   6.679  17.852  0.00  0.00    +0.000 N 
ATOM      2  C   UNL     1       4.332   6.895  17.449  0.00  0.00    +0.000 C 
ATOM      3  O   UNL     1       5.016   7.845  17.817  0.00  0.00    +0.000 OA
ATOM      4  H   UNL     1       2.622   5.783  17.597  0.00  0.00    +0.000 HD
ENDROOT
BRANCH   1   9
ATOM      5  C   UNL     1       0.690   9.411  18.829  0.00  0.00    +0.000 A 
ATOM      6  C   UNL     1       0.655   9.257  20.223  0.00  0.00    +0.000 A 
ATOM      7  C   UNL     1       1.430   8.286  20.838  0.00  0.00    +0.000 A 
ATOM      8  C   UNL     1       2.226   7.448  20.062  0.00  0.00    +0.000 A 
ATOM      9  C   UNL     1       2.246   7.550  18.663  0.00  0.00    +0.000 A 
ATOM     10  C   UNL     1       1.490   8.563  18.046  0.00  0.00    +0.000 A 
BRANCH   5  12
ATOM     11  O   UNL     1       0.090  11.667  18.705  0.00  0.00    +0.000 OA
ATOM     12  C   UNL     1      -0.113  10.536  18.278  0.00  0.00    +0.000 C 
ATOM     13  N   UNL     1      -1.097  10.240  17.353  0.00  0.00    +0.000 N 
ATOM     14  H   UNL     1      -1.334   9.276  17.164  0.00  0.00    +0.000 HD
BRANCH  13  15
ATOM     15  C   UNL     1      -2.008  11.270  16.941  0.00  0.00    +0.000 C 
ATOM     16  C   UNL     1      -3.452  11.286  17.352  0.00  0.00    +0.000 C 
ATOM     17  C   UNL     1      -3.082  10.966  15.933  0.00  0.00    +0.000 C 
ENDBRANCH  13  15
ENDBRANCH   5  12
ENDBRANCH   1   9
BRANCH   2  18
ATOM     18  C   UNL     1       4.855   5.866  16.562  0.00  0.00    +0.000 A 
ATOM     19  O   UNL     1       5.620   6.274  15.496  0.00  0.00    +0.000 OA
ATOM     20  C   UNL     1       5.891   5.177  14.748  0.00  0.00    +0.000 A 
ATOM     21  C   UNL     1       5.356   4.056  15.330  0.00  0.00    +0.000 A 
ATOM     22  C   UNL     1       4.693   4.481  16.521  0.00  0.00    +0.000 A 
BRANCH  22  23
ATOM     23  C   UNL     1       3.966   3.660  17.487  0.00  0.00    +0.000 A 
ATOM     24  C   UNL     1       2.697   3.128  17.207  0.00  0.00    +0.000 A 
ATOM     25  C   UNL     1       2.035   2.316  18.134  0.00  0.00    +0.000 A 
ATOM     26  C   UNL     1       2.612   2.057  19.373  0.00  0.00    +0.000 A 
ATOM     27  C   UNL     1       3.848   2.614  19.688  0.00  0.00    +0.000 A 
ATOM     28  C   UNL     1       4.521   3.407  18.751  0.00  0.00    +0.000 A 
ENDBRANCH  22  23
ENDBRANCH   2  18
TORSDOF 5
ENDMDL
