MODEL 1
REMARK VINA RESULT:      -9.6      0.000      0.000
REMARK  Name = 
REMARK  5 active torsions:
REMARK  status: ('A' for Active; 'I' for Inactive)
REMARK    1  A    between atoms: C_9  and  C_10
REMARK    2  A    between atoms: C_10  and  N_11
REMARK    3  A    between atoms: N_11  and  C_12
REMARK    4  A    between atoms: C_12  and  C_13
REMARK    5  A    between atoms: C_16  and  C_17
REMARK                            x       y       z     vdW  Elec       q    Type
REMARK                         _______ _______ _______ _____ _____    ______ ____
ROOT
ATOM      1  C   UNL     1       3.128   5.092  19.370  0.00  0.00    +0.000 C 
ATOM      2  C   UNL     1       1.899   4.818  18.452  0.00  0.00    +0.000 C 
ATOM      3  C   UNL     1       1.595   3.338  18.191  0.00  0.00    +0.000 C 
ATOM      4  C   UNL     1       0.627   2.739  19.207  0.00  0.00    +0.000 C 
ATOM      5  C   UNL     1       1.173   2.589  20.623  0.00  0.00    +0.000 C 
ATOM      6  C   UNL     1       1.739   3.866  21.245  0.00  0.00    +0.000 C 
ATOM      7  C   UNL     1       3.112   4.243  20.677  0.00  0.00    +0.000 C 
ENDROOT
BRANCH   1   8
ATOM      8  C   UNL     1       4.424   4.752  18.600  0.00  0.00    +0.000 A 
ATOM      9  N   UNL     1       5.604   4.550  19.210  0.00  0.00    +0.000 NA
ATOM     10  O   UNL     1       6.469   4.253  18.155  0.00  0.00    +0.000 OA
ATOM     11  C   UNL     1       5.722   4.302  17.016  0.00  0.00    +0.000 A 
ATOM     12  N   UNL     1       4.463   4.600  17.232  0.00  0.00    +0.000 NA
BRANCH  11  13
ATOM     13  C   UNL     1       6.418   4.028  15.735  0.00  0.00    +0.000 C 
ATOM     14  C   UNL     1       7.258   5.212  15.261  0.00  0.00    +0.000 C 
ATOM     15  C   UNL     1       7.439   4.993  13.761  0.00  0.00    +0.000 C 
ATOM     16  C   UNL     1       6.351   4.005  13.339  0.00  0.00    +0.000 C 
ATOM     17  C   UNL     1       5.462   3.819  14.562  0.00  0.00    +0.000 C 
ENDBRANCH  11  13
ENDBRANCH   1   8
BRANCH   1  18
ATOM     18  N   UNL     1       3.203   6.560  19.637  0.00  0.00    +0.000 NA
ATOM     19  H   UNL     1       2.922   6.721  20.607  0.00  0.00    +0.000 HD
BRANCH  18  20
ATOM     20  C   UNL     1       2.424   7.435  18.770  0.00  0.00    +0.000 C 
BRANCH  20  29
ATOM     21  C   UNL     1       1.093   9.580  18.951  0.00  0.00    +0.000 A 
ATOM     22  C   UNL     1       0.387  10.549  19.679  0.00  0.00    +0.000 A 
ATOM     23  C   UNL     1       0.201  10.359  21.057  0.00  0.00    +0.000 A 
ATOM     24  C   UNL     1      -0.418  11.065  22.111  0.00  0.00    +0.000 A 
ATOM     25  N   UNL     1      -0.310  10.438  23.287  0.00  0.00    +0.000 NA
ATOM     26  N   UNL     1       0.378   9.323  22.980  0.00  0.00    +0.000 N 
ATOM     27  C   UNL     1       0.720   9.219  21.659  0.00  0.00    +0.000 A 
ATOM     28  C   UNL     1       1.429   8.239  20.952  0.00  0.00    +0.000 A 
ATOM     29  C   UNL     1       1.611   8.433  19.572  0.00  0.00    +0.000 A 
ATOM     30  H   UNL     1       0.588   8.666  23.725  0.00  0.00    +0.000 HD
ENDBRANCH  20  29
ENDBRANCH  18  20
ENDBRANCH   1  18
TORSDOF 5
ENDMDL
MODEL 2
REMARK VINA RESULT:      -9.5      1.653      1.946
REMARK  Name = 
REMARK  5 active torsions:
REMARK  status: ('A' for Active; 'I' for Inactive)
REMARK    1  A    between atoms: C_9  and  C_10
REMARK    2  A    between atoms: C_10  and  N_11
REMARK    3  A    between atoms: N_11  and  C_12
REMARK    4  A    between atoms: C_12  and  C_13
REMARK    5  A    between atoms: C_16  and  C_17
REMARK                            x       y       z     vdW  Elec       q    Type
REMARK                         _______ _______ _______ _____ _____    ______ ____
ROOT
ATOM      1  C   UNL     1       2.693   5.049  18.387  0.00  0.00    +0.000 C 
ATOM      2  C   UNL     1       1.652   3.966  17.971  0.00  0.00    +0.000 C 
ATOM      3  C   UNL     1       1.863   2.582  18.594  0.00  0.00    +0.000 C 
ATOM      4  C   UNL     1       1.119   2.401  19.914  0.00  0.00    +0.000 C 
ATOM      5  C   UNL     1       1.643   3.232  21.080  0.00  0.00    +0.000 C 
ATOM      6  C   UNL     1       1.735   4.737  20.823  0.00  0.00    +0.000 C 
ATOM      7  C   UNL     1       2.921   5.113  19.927  0.00  0.00    +0.000 C 
ENDROOT
BRANCH   1   8
ATOM      8  C   UNL     1       4.050   4.732  17.719  0.00  0.00    +0.000 A 
ATOM      9  N   UNL     1       5.203   4.662  18.406  0.00  0.00    +0.000 NA
ATOM     10  O   UNL     1       6.145   4.335  17.429  0.00  0.00    +0.000 OA
ATOM     11  C   UNL     1       5.463   4.237  16.252  0.00  0.00    +0.000 A 
ATOM     12  N   UNL     1       4.178   4.468  16.374  0.00  0.00    +0.000 NA
BRANCH  11  13
ATOM     13  C   UNL     1       6.248   3.903  15.038  0.00  0.00    +0.000 C 
ATOM     14  C   UNL     1       7.209   5.020  14.637  0.00  0.00    +0.000 C 
ATOM     15  C   UNL     1       7.505   4.773  13.160  0.00  0.00    +0.000 C 
ATOM     16  C   UNL     1       6.392   3.861  12.646  0.00  0.00    +0.000 C 
ATOM     17  C   UNL     1       5.387   3.751  13.786  0.00  0.00    +0.000 C 
ENDBRANCH  11  13
ENDBRANCH   1   8
BRANCH   1  18
ATOM     18  N   UNL     1       2.269   6.361  17.813  0.00  0.00    +0.000 NA
ATOM     19  H   UNL     1       2.444   6.340  16.805  0.00  0.00    +0.000 HD
BRANCH  18  20
ATOM     20  C   UNL     1       2.882   7.560  18.371  0.00  0.00    +0.000 C 
BRANCH  20  29
ATOM     21  C   UNL     1       1.420   8.469  20.227  0.00  0.00    +0.000 A 
ATOM     22  C   UNL     1       0.414   9.314  20.719  0.00  0.00    +0.000 A 
ATOM     23  C   UNL     1      -0.183  10.236  19.845  0.00  0.00    +0.000 A 
ATOM     24  C   UNL     1      -1.191  11.221  19.932  0.00  0.00    +0.000 A 
ATOM     25  N   UNL     1      -1.400  11.851  18.771  0.00  0.00    +0.000 NA
ATOM     26  N   UNL     1      -0.518  11.267  17.940  0.00  0.00    +0.000 N 
ATOM     27  C   UNL     1       0.239  10.286  18.522  0.00  0.00    +0.000 A 
ATOM     28  C   UNL     1       1.241   9.451  18.009  0.00  0.00    +0.000 A 
ATOM     29  C   UNL     1       1.837   8.530  18.889  0.00  0.00    +0.000 A 
ATOM     30  H   UNL     1      -0.481  11.584  16.977  0.00  0.00    +0.000 HD
ENDBRANCH  20  29
ENDBRANCH  18  20
ENDBRANCH   1  18
TORSDOF 5
ENDMDL
MODEL 3
REMARK VINA RESULT:      -9.3      0.924      1.002
REMARK  Name = 
REMARK  5 active torsions:
REMARK  status: ('A' for Active; 'I' for Inactive)
REMARK    1  A    between atoms: C_9  and  C_10
REMARK    2  A    between atoms: C_10  and  N_11
REMARK    3  A    between atoms: N_11  and  C_12
REMARK    4  A    between atoms: C_12  and  C_13
REMARK    5  A    between atoms: C_16  and  C_17
REMARK                            x       y       z     vdW  Elec       q    Type
REMARK                         _______ _______ _______ _____ _____    ______ ____
ROOT
ATOM      1  C   UNL     1       2.744   4.882  18.448  0.00  0.00    +0.000 C 
ATOM      2  C   UNL     1       1.746   3.742  18.087  0.00  0.00    +0.000 C 
ATOM      3  C   UNL     1       2.034   2.388  18.744  0.00  0.00    +0.000 C 
ATOM      4  C   UNL     1       1.327   2.212  20.085  0.00  0.00    +0.000 C 
ATOM      5  C   UNL     1       1.835   3.101  21.215  0.00  0.00    +0.000 C 
ATOM      6  C   UNL     1       1.851   4.600  20.913  0.00  0.00    +0.000 C 
ATOM      7  C   UNL     1       3.000   5.003  19.981  0.00  0.00    +0.000 C 
ENDROOT
BRANCH   1   8
ATOM      8  C   UNL     1       4.100   4.609  17.761  0.00  0.00    +0.000 A 
ATOM      9  N   UNL     1       5.261   4.547  18.434  0.00  0.00    +0.000 NA
ATOM     10  O   UNL     1       6.199   4.261  17.441  0.00  0.00    +0.000 OA
ATOM     11  C   UNL     1       5.508   4.176  16.269  0.00  0.00    +0.000 A 
ATOM     12  N   UNL     1       4.220   4.378  16.409  0.00  0.00    +0.000 NA
BRANCH  11  13
ATOM     13  C   UNL     1       6.287   3.886  15.040  0.00  0.00    +0.000 C 
ATOM     14  C   UNL     1       7.225   5.029  14.658  0.00  0.00    +0.000 C 
ATOM     15  C   UNL     1       7.512   4.824  13.173  0.00  0.00    +0.000 C 
ATOM     16  C   UNL     1       6.409   3.906  12.646  0.00  0.00    +0.000 C 
ATOM     17  C   UNL     1       5.417   3.750  13.792  0.00  0.00    +0.000 C 
ENDBRANCH  11  13
ENDBRANCH   1   8
BRANCH   1  18
ATOM     18  N   UNL     1       2.247   6.157  17.846  0.00  0.00    +0.000 NA
ATOM     19  H   UNL     1       2.329   6.081  16.829  0.00  0.00    +0.000 HD
BRANCH  18  20
ATOM     20  C   UNL     1       2.890   7.391  18.279  0.00  0.00    +0.000 C 
BRANCH  20  29
ATOM     21  C   UNL     1       1.295   9.345  18.061  0.00  0.00    +0.000 A 
ATOM     22  C   UNL     1       0.408  10.293  18.593  0.00  0.00    +0.000 A 
ATOM     23  C   UNL     1       0.115  10.252  19.965  0.00  0.00    +0.000 A 
ATOM     24  C   UNL     1      -0.686  10.993  20.861  0.00  0.00    +0.000 A 
ATOM     25  N   UNL     1      -0.617  10.536  22.116  0.00  0.00    +0.000 NA
ATOM     26  N   UNL     1       0.229   9.494  22.018  0.00  0.00    +0.000 N 
ATOM     27  C   UNL     1       0.708   9.274  20.755  0.00  0.00    +0.000 A 
ATOM     28  C   UNL     1       1.597   8.318  20.246  0.00  0.00    +0.000 A 
ATOM     29  C   UNL     1       1.886   8.363  18.871  0.00  0.00    +0.000 A 
ATOM     30  H   UNL     1       0.444   8.968  22.859  0.00  0.00    +0.000 HD
ENDBRANCH  20  29
ENDBRANCH  18  20
ENDBRANCH   1  18
TORSDOF 5
ENDMDL
MODEL 4
REMARK VINA RESULT:      -9.1      1.189      1.339
REMARK  Name = 
REMARK  5 active torsions:
REMARK  status: ('A' for Active; 'I' for Inactive)
REMARK    1  A    between atoms: C_9  and  C_10
REMARK    2  A    between atoms: C_10  and  N_11
REMARK    3  A    between atoms: N_11  and  C_12
REMARK    4  A    between atoms: C_12  and  C_13
REMARK    5  A    between atoms: C_16  and  C_17
REMARK                            x       y       z     vdW  Elec       q    Type
REMARK                         _______ _______ _______ _____ _____    ______ ____
ROOT
ATOM      1  C   UNL     1       3.287   5.488  18.344  0.00  0.00    +0.000 C 
ATOM      2  C   UNL     1       1.861   5.071  17.876  0.00  0.00    +0.000 C 
ATOM      3  C   UNL     1       1.704   3.594  17.495  0.00  0.00    +0.000 C 
ATOM      4  C   UNL     1       1.280   2.717  18.668  0.00  0.00    +0.000 C 
ATOM      5  C   UNL     1       2.327   2.535  19.763  0.00  0.00    +0.000 C 
ATOM      6  C   UNL     1       2.887   3.829  20.354  0.00  0.00    +0.000 C 
ATOM      7  C   UNL     1       3.881   4.526  19.417  0.00  0.00    +0.000 C 
ENDROOT
BRANCH   1   8
ATOM      8  C   UNL     1       4.242   5.491  17.129  0.00  0.00    +0.000 A 
ATOM      9  N   UNL     1       4.854   6.601  16.684  0.00  0.00    +0.000 NA
ATOM     10  O   UNL     1       5.620   6.142  15.611  0.00  0.00    +0.000 OA
ATOM     11  C   UNL     1       5.396   4.800  15.521  0.00  0.00    +0.000 A 
ATOM     12  N   UNL     1       4.563   4.350  16.428  0.00  0.00    +0.000 NA
BRANCH  11  13
ATOM     13  C   UNL     1       6.097   4.066  14.439  0.00  0.00    +0.000 C 
ATOM     14  C   UNL     1       7.171   4.911  13.758  0.00  0.00    +0.000 C 
ATOM     15  C   UNL     1       7.389   4.251  12.398  0.00  0.00    +0.000 C 
ATOM     16  C   UNL     1       6.158   3.380  12.143  0.00  0.00    +0.000 C 
ATOM     17  C   UNL     1       5.184   3.698  13.271  0.00  0.00    +0.000 C 
ENDBRANCH  11  13
ENDBRANCH   1   8
BRANCH   1  18
ATOM     18  N   UNL     1       3.238   6.907  18.809  0.00  0.00    +0.000 NA
ATOM     19  H   UNL     1       3.039   6.908  19.812  0.00  0.00    +0.000 HD
BRANCH  18  20
ATOM     20  C   UNL     1       2.293   7.793  18.141  0.00  0.00    +0.000 C 
BRANCH  20  29
ATOM     21  C   UNL     1       0.779   9.742  18.705  0.00  0.00    +0.000 A 
ATOM     22  C   UNL     1       0.093  10.564  19.611  0.00  0.00    +0.000 A 
ATOM     23  C   UNL     1       0.148  10.256  20.980  0.00  0.00    +0.000 A 
ATOM     24  C   UNL     1      -0.372  10.805  22.172  0.00  0.00    +0.000 A 
ATOM     25  N   UNL     1      -0.014  10.114  23.259  0.00  0.00    +0.000 NA
ATOM     26  N   UNL     1       0.736   9.117  22.757  0.00  0.00    +0.000 N 
ATOM     27  C   UNL     1       0.876   9.148  21.396  0.00  0.00    +0.000 A 
ATOM     28  C   UNL     1       1.569   8.314  20.508  0.00  0.00    +0.000 A 
ATOM     29  C   UNL     1       1.510   8.626  19.139  0.00  0.00    +0.000 A 
ATOM     30  H   UNL     1       1.130   8.439  23.401  0.00  0.00    +0.000 HD
ENDBRANCH  20  29
ENDBRANCH  18  20
ENDBRANCH   1  18
TORSDOF 5
ENDMDL
MODEL 5
REMARK VINA RESULT:      -9.0      1.971      8.098
REMARK  Name = 
REMARK  5 active torsions:
REMARK  status: ('A' for Active; 'I' for Inactive)
REMARK    1  A    between atoms: C_9  and  C_10
REMARK    2  A    between atoms: C_10  and  N_11
REMARK    3  A    between atoms: N_11  and  C_12
REMARK    4  A    between atoms: C_12  and  C_13
REMARK    5  A    between atoms: C_16  and  C_17
REMARK                            x       y       z     vdW  Elec       q    Type
REMARK                         _______ _______ _______ _____ _____    ______ ____
ROOT
ATOM      1  C   UNL     1       2.867   5.577  19.345  0.00  0.00    +0.000 C 
ATOM      2  C   UNL     1       2.523   4.701  20.586  0.00  0.00    +0.000 C 
ATOM      3  C   UNL     1       1.051   4.293  20.710  0.00  0.00    +0.000 C 
ATOM      4  C   UNL     1       0.739   2.965  20.026  0.00  0.00    +0.000 C 
ATOM      5  C   UNL     1       0.819   2.979  18.503  0.00  0.00    +0.000 C 
ATOM      6  C   UNL     1       2.142   3.480  17.922  0.00  0.00    +0.000 C 
ATOM      7  C   UNL     1       2.290   5.003  18.016  0.00  0.00    +0.000 C 
ENDROOT
BRANCH   1   8
ATOM      8  C   UNL     1       2.282   6.993  19.544  0.00  0.00    +0.000 A 
ATOM      9  N   UNL     1       2.107   7.860  18.532  0.00  0.00    +0.000 NA
ATOM     10  O   UNL     1       1.543   8.976  19.153  0.00  0.00    +0.000 OA
ATOM     11  C   UNL     1       1.430   8.667  20.476  0.00  0.00    +0.000 A 
ATOM     12  N   UNL     1       1.866   7.465  20.768  0.00  0.00    +0.000 NA
BRANCH  11  13
ATOM     13  C   UNL     1       0.860   9.705  21.370  0.00  0.00    +0.000 C 
ATOM     14  C   UNL     1       0.172   9.107  22.596  0.00  0.00    +0.000 C 
ATOM     15  C   UNL     1      -0.783  10.195  23.082  0.00  0.00    +0.000 C 
ATOM     16  C   UNL     1      -0.971  11.155  21.907  0.00  0.00    +0.000 C 
ATOM     17  C   UNL     1      -0.270  10.504  20.722  0.00  0.00    +0.000 C 
ENDBRANCH  11  13
ENDBRANCH   1   8
BRANCH   1  18
ATOM     18  N   UNL     1       4.348   5.768  19.294  0.00  0.00    +0.000 NA
ATOM     19  H   UNL     1       4.552   6.503  18.612  0.00  0.00    +0.000 HD
BRANCH  18  20
ATOM     20  C   UNL     1       5.159   4.598  18.980  0.00  0.00    +0.000 C 
BRANCH  20  29
ATOM     21  C   UNL     1       6.734   5.754  17.371  0.00  0.00    +0.000 A 
ATOM     22  C   UNL     1       7.312   5.930  16.105  0.00  0.00    +0.000 A 
ATOM     23  C   UNL     1       6.954   5.052  15.069  0.00  0.00    +0.000 A 
ATOM     24  C   UNL     1       7.285   4.892  13.706  0.00  0.00    +0.000 A 
ATOM     25  N   UNL     1       6.645   3.865  13.136  0.00  0.00    +0.000 NA
ATOM     26  N   UNL     1       5.906   3.366  14.142  0.00  0.00    +0.000 N 
ATOM     27  C   UNL     1       6.042   4.036  15.328  0.00  0.00    +0.000 A 
ATOM     28  C   UNL     1       5.452   3.843  16.584  0.00  0.00    +0.000 A 
ATOM     29  C   UNL     1       5.814   4.723  17.618  0.00  0.00    +0.000 A 
ATOM     30  H   UNL     1       5.320   2.558  13.955  0.00  0.00    +0.000 HD
ENDBRANCH  20  29
ENDBRANCH  18  20
ENDBRANCH   1  18
TORSDOF 5
ENDMDL
MODEL 6
REMARK VINA RESULT:      -9.0      1.634      2.053
REMARK  Name = 
REMARK  5 active torsions:
REMARK  status: ('A' for Active; 'I' for Inactive)
REMARK    1  A    between atoms: C_9  and  C_10
REMARK    2  A    between atoms: C_10  and  N_11
REMARK    3  A    between atoms: N_11  and  C_12
REMARK    4  A    between atoms: C_12  and  C_13
REMARK    5  A    between atoms: C_16  and  C_17
REMARK                            x       y       z     vdW  Elec       q    Type
REMARK                         _______ _______ _______ _____ _____    ______ ____
ROOT
ATOM      1  C   UNL     1       3.708   4.952  18.281  0.00  0.00    +0.000 C 
ATOM      2  C   UNL     1       2.222   4.660  17.915  0.00  0.00    +0.000 C 
ATOM      3  C   UNL     1       1.955   3.270  17.327  0.00  0.00    +0.000 C 
ATOM      4  C   UNL     1       1.615   2.228  18.388  0.00  0.00    +0.000 C 
ATOM      5  C   UNL     1       2.761   1.840  19.316  0.00  0.00    +0.000 C 
ATOM      6  C   UNL     1       3.443   3.004  20.037  0.00  0.00    +0.000 C 
ATOM      7  C   UNL     1       4.364   3.812  19.115  0.00  0.00    +0.000 C 
ENDROOT
BRANCH   1   8
ATOM      8  C   UNL     1       4.527   5.122  16.982  0.00  0.00    +0.000 A 
ATOM      9  N   UNL     1       4.832   6.323  16.462  0.00  0.00    +0.000 NA
ATOM     10  O   UNL     1       5.585   6.007  15.330  0.00  0.00    +0.000 OA
ATOM     11  C   UNL     1       5.663   4.646  15.285  0.00  0.00    +0.000 A 
ATOM     12  N   UNL     1       5.035   4.056  16.273  0.00  0.00    +0.000 NA
BRANCH  11  13
ATOM     13  C   UNL     1       6.414   4.046  14.155  0.00  0.00    +0.000 C 
ATOM     14  C   UNL     1       7.246   5.075  13.392  0.00  0.00    +0.000 C 
ATOM     15  C   UNL     1       7.489   4.448  12.022  0.00  0.00    +0.000 C 
ATOM     16  C   UNL     1       6.442   3.346  11.863  0.00  0.00    +0.000 C 
ATOM     17  C   UNL     1       5.510   3.484  13.061  0.00  0.00    +0.000 C 
ENDBRANCH  11  13
ENDBRANCH   1   8
BRANCH   1  18
ATOM     18  N   UNL     1       3.777   6.279  18.965  0.00  0.00    +0.000 NA
ATOM     19  H   UNL     1       4.659   6.326  19.481  0.00  0.00    +0.000 HD
BRANCH  18  20
ATOM     20  C   UNL     1       2.685   6.618  19.869  0.00  0.00    +0.000 C 
BRANCH  20  29
ATOM     21  C   UNL     1       2.200   8.440  18.179  0.00  0.00    +0.000 A 
ATOM     22  C   UNL     1       1.641   9.670  17.801  0.00  0.00    +0.000 A 
ATOM     23  C   UNL     1       0.885  10.388  18.741  0.00  0.00    +0.000 A 
ATOM     24  C   UNL     1       0.186  11.615  18.766  0.00  0.00    +0.000 A 
ATOM     25  N   UNL     1      -0.388  11.858  19.949  0.00  0.00    +0.000 NA
ATOM     26  N   UNL     1      -0.057  10.778  20.680  0.00  0.00    +0.000 N 
ATOM     27  C   UNL     1       0.711   9.862  20.014  0.00  0.00    +0.000 A 
ATOM     28  C   UNL     1       1.261   8.636  20.415  0.00  0.00    +0.000 A 
ATOM     29  C   UNL     1       2.015   7.920  19.470  0.00  0.00    +0.000 A 
ATOM     30  H   UNL     1      -0.387  10.726  21.638  0.00  0.00    +0.000 HD
ENDBRANCH  20  29
ENDBRANCH  18  20
ENDBRANCH   1  18
TORSDOF 5
ENDMDL
MODEL 7
REMARK VINA RESULT:      -9.0      2.125      8.190
REMARK  Name = 
REMARK  5 active torsions:
REMARK  status: ('A' for Active; 'I' for Inactive)
REMARK    1  A    between atoms: C_9  and  C_10
REMARK    2  A    between atoms: C_10  and  N_11
REMARK    3  A    between atoms: N_11  and  C_12
REMARK    4  A    between atoms: C_12  and  C_13
REMARK    5  A    between atoms: C_16  and  C_17
REMARK                            x       y       z     vdW  Elec       q    Type
REMARK                         _______ _______ _______ _____ _____    ______ ____
ROOT
ATOM      1  C   UNL     1       2.885   5.627  19.007  0.00  0.00    +0.000 C 
ATOM      2  C   UNL     1       2.876   4.828  20.345  0.00  0.00    +0.000 C 
ATOM      3  C   UNL     1       1.491   4.393  20.836  0.00  0.00    +0.000 C 
ATOM      4  C   UNL     1       1.081   3.015  20.326  0.00  0.00    +0.000 C 
ATOM      5  C   UNL     1       0.804   2.927  18.829  0.00  0.00    +0.000 C 
ATOM      6  C   UNL     1       1.933   3.420  17.923  0.00  0.00    +0.000 C 
ATOM      7  C   UNL     1       2.037   4.949  17.888  0.00  0.00    +0.000 C 
ENDROOT
BRANCH   1   8
ATOM      8  C   UNL     1       2.306   7.038  19.253  0.00  0.00    +0.000 A 
ATOM      9  N   UNL     1       2.119   7.932  18.267  0.00  0.00    +0.000 NA
ATOM     10  O   UNL     1       1.566   9.032  18.926  0.00  0.00    +0.000 OA
ATOM     11  C   UNL     1       1.472   8.688  20.242  0.00  0.00    +0.000 A 
ATOM     12  N   UNL     1       1.909   7.478  20.495  0.00  0.00    +0.000 NA
BRANCH  11  13
ATOM     13  C   UNL     1       0.917   9.702  21.171  0.00  0.00    +0.000 C 
ATOM     14  C   UNL     1       0.428   9.089  22.482  0.00  0.00    +0.000 C 
ATOM     15  C   UNL     1      -0.559  10.107  23.049  0.00  0.00    +0.000 C 
ATOM     16  C   UNL     1      -0.963  11.009  21.883  0.00  0.00    +0.000 C 
ATOM     17  C   UNL     1      -0.344  10.380  20.640  0.00  0.00    +0.000 C 
ENDBRANCH  11  13
ENDBRANCH   1   8
BRANCH   1  18
ATOM     18  N   UNL     1       4.305   5.850  18.597  0.00  0.00    +0.000 NA
ATOM     19  H   UNL     1       4.307   6.452  17.770  0.00  0.00    +0.000 HD
BRANCH  18  20
ATOM     20  C   UNL     1       5.111   4.668  18.320  0.00  0.00    +0.000 C 
BRANCH  20  29
ATOM     21  C   UNL     1       4.883   3.818  15.947  0.00  0.00    +0.000 A 
ATOM     22  C   UNL     1       5.311   3.715  14.615  0.00  0.00    +0.000 A 
ATOM     23  C   UNL     1       6.443   4.440  14.210  0.00  0.00    +0.000 A 
ATOM     24  C   UNL     1       7.177   4.604  13.015  0.00  0.00    +0.000 A 
ATOM     25  N   UNL     1       8.217   5.432  13.156  0.00  0.00    +0.000 NA
ATOM     26  N   UNL     1       8.144   5.801  14.447  0.00  0.00    +0.000 N 
ATOM     27  C   UNL     1       7.104   5.236  15.136  0.00  0.00    +0.000 A 
ATOM     28  C   UNL     1       6.696   5.353  16.472  0.00  0.00    +0.000 A 
ATOM     29  C   UNL     1       5.560   4.627  16.872  0.00  0.00    +0.000 A 
ATOM     30  H   UNL     1       8.841   6.447  14.804  0.00  0.00    +0.000 HD
ENDBRANCH  20  29
ENDBRANCH  18  20
ENDBRANCH   1  18
TORSDOF 5
ENDMDL
MODEL 8
REMARK VINA RESULT:      -8.8      1.859      2.142
REMARK  Name = 
REMARK  5 active torsions:
REMARK  status: ('A' for Active; 'I' for Inactive)
REMARK    1  A    between atoms: C_9  and  C_10
REMARK    2  A    between atoms: C_10  and  N_11
REMARK    3  A    between atoms: N_11  and  C_12
REMARK    4  A    between atoms: C_12  and  C_13
REMARK    5  A    between atoms: C_16  and  C_17
REMARK                            x       y       z     vdW  Elec       q    Type
REMARK                         _______ _______ _______ _____ _____    ______ ____
ROOT
ATOM      1  C   UNL     1       3.132   5.484  18.576  0.00  0.00    +0.000 C 
ATOM      2  C   UNL     1       1.893   4.822  17.902  0.00  0.00    +0.000 C 
ATOM      3  C   UNL     1       1.722   3.324  18.178  0.00  0.00    +0.000 C 
ATOM      4  C   UNL     1       0.866   3.037  19.408  0.00  0.00    +0.000 C 
ATOM      5  C   UNL     1       1.491   3.421  20.745  0.00  0.00    +0.000 C 
ATOM      6  C   UNL     1       1.959   4.872  20.857  0.00  0.00    +0.000 C 
ATOM      7  C   UNL     1       3.260   5.134  20.090  0.00  0.00    +0.000 C 
ENDROOT
BRANCH   1   8
ATOM      8  C   UNL     1       4.417   5.000  17.867  0.00  0.00    +0.000 A 
ATOM      9  N   UNL     1       5.540   4.677  18.531  0.00  0.00    +0.000 NA
ATOM     10  O   UNL     1       6.414   4.280  17.517  0.00  0.00    +0.000 OA
ATOM     11  C   UNL     1       5.728   4.400  16.345  0.00  0.00    +0.000 A 
ATOM     12  N   UNL     1       4.501   4.835  16.503  0.00  0.00    +0.000 NA
BRANCH  11  13
ATOM     13  C   UNL     1       6.447   4.044  15.098  0.00  0.00    +0.000 C 
ATOM     14  C   UNL     1       7.266   5.207  14.541  0.00  0.00    +0.000 C 
ATOM     15  C   UNL     1       7.471   4.873  13.065  0.00  0.00    +0.000 C 
ATOM     16  C   UNL     1       6.413   3.828  12.711  0.00  0.00    +0.000 C 
ATOM     17  C   UNL     1       5.512   3.719  13.935  0.00  0.00    +0.000 C 
ENDBRANCH  11  13
ENDBRANCH   1   8
BRANCH   1  18
ATOM     18  N   UNL     1       3.077   6.957  18.329  0.00  0.00    +0.000 NA
ATOM     19  H   UNL     1       3.456   7.432  19.152  0.00  0.00    +0.000 HD
BRANCH  18  20
ATOM     20  C   UNL     1       1.775   7.530  18.012  0.00  0.00    +0.000 C 
BRANCH  20  29
ATOM     21  C   UNL     1       1.052   9.048  19.904  0.00  0.00    +0.000 A 
ATOM     22  C   UNL     1       0.832  10.312  20.471  0.00  0.00    +0.000 A 
ATOM     23  C   UNL     1       1.180  11.454  19.733  0.00  0.00    +0.000 A 
ATOM     24  C   UNL     1       1.120  12.852  19.926  0.00  0.00    +0.000 A 
ATOM     25  N   UNL     1       1.591  13.539  18.880  0.00  0.00    +0.000 NA
ATOM     26  N   UNL     1       1.956  12.574  18.017  0.00  0.00    +0.000 N 
ATOM     27  C   UNL     1       1.730  11.301  18.467  0.00  0.00    +0.000 A 
ATOM     28  C   UNL     1       1.957  10.049  17.880  0.00  0.00    +0.000 A 
ATOM     29  C   UNL     1       1.609   8.908  18.623  0.00  0.00    +0.000 A 
ATOM     30  H   UNL     1       2.356  12.851  17.126  0.00  0.00    +0.000 HD
ENDBRANCH  20  29
ENDBRANCH  18  20
ENDBRANCH   1  18
TORSDOF 5
ENDMDL
MODEL 9
REMARK VINA RESULT:      -8.8      1.441      1.861
REMARK  Name = 
REMARK  5 active torsions:
REMARK  status: ('A' for Active; 'I' for Inactive)
REMARK    1  A    between atoms: C_9  and  C_10
REMARK    2  A    between atoms: C_10  and  N_11
REMARK    3  A    between atoms: N_11  and  C_12
REMARK    4  A    between atoms: C_12  and  C_13
REMARK    5  A    between atoms: C_16  and  C_17
REMARK                            x       y       z     vdW  Elec       q    Type
REMARK                         _______ _______ _______ _____ _____    ______ ____
ROOT
ATOM      1  C   UNL     1       3.438   5.444  18.263  0.00  0.00    +0.000 C 
ATOM      2  C   UNL     1       2.002   5.022  17.829  0.00  0.00    +0.000 C 
ATOM      3  C   UNL     1       1.836   3.541  17.474  0.00  0.00    +0.000 C 
ATOM      4  C   UNL     1       1.433   2.681  18.669  0.00  0.00    +0.000 C 
ATOM      5  C   UNL     1       2.500   2.514  19.745  0.00  0.00    +0.000 C 
ATOM      6  C   UNL     1       3.075   3.816  20.305  0.00  0.00    +0.000 C 
ATOM      7  C   UNL     1       4.051   4.497  19.339  0.00  0.00    +0.000 C 
ENDROOT
BRANCH   1   8
ATOM      8  C   UNL     1       4.368   5.426  17.030  0.00  0.00    +0.000 A 
ATOM      9  N   UNL     1       5.014   6.518  16.587  0.00  0.00    +0.000 NA
ATOM     10  O   UNL     1       5.742   6.045  15.493  0.00  0.00    +0.000 OA
ATOM     11  C   UNL     1       5.464   4.714  15.391  0.00  0.00    +0.000 A 
ATOM     12  N   UNL     1       4.632   4.284  16.308  0.00  0.00    +0.000 NA
BRANCH  11  13
ATOM     13  C   UNL     1       6.115   3.967  14.286  0.00  0.00    +0.000 C 
ATOM     14  C   UNL     1       7.134   4.815  13.527  0.00  0.00    +0.000 C 
ATOM     15  C   UNL     1       7.285   4.129  12.171  0.00  0.00    +0.000 C 
ATOM     16  C   UNL     1       6.058   3.233  12.005  0.00  0.00    +0.000 C 
ATOM     17  C   UNL     1       5.144   3.558  13.180  0.00  0.00    +0.000 C 
ENDBRANCH  11  13
ENDBRANCH   1   8
BRANCH   1  18
ATOM     18  N   UNL     1       3.400   6.870  18.707  0.00  0.00    +0.000 NA
ATOM     19  H   UNL     1       3.407   6.886  19.730  0.00  0.00    +0.000 HD
BRANCH  18  20
ATOM     20  C   UNL     1       2.290   7.686  18.231  0.00  0.00    +0.000 C 
BRANCH  20  29
ATOM     21  C   UNL     1       1.599   7.909  20.656  0.00  0.00    +0.000 A 
ATOM     22  C   UNL     1       0.952   8.571  21.710  0.00  0.00    +0.000 A 
ATOM     23  C   UNL     1       0.334   9.806  21.456  0.00  0.00    +0.000 A 
ATOM     24  C   UNL     1      -0.397  10.755  22.204  0.00  0.00    +0.000 A 
ATOM     25  N   UNL     1      -0.785  11.803  21.470  0.00  0.00    +0.000 NA
ATOM     26  N   UNL     1      -0.296  11.523  20.249  0.00  0.00    +0.000 N 
ATOM     27  C   UNL     1       0.382  10.336  20.173  0.00  0.00    +0.000 A 
ATOM     28  C   UNL     1       1.020   9.691  19.105  0.00  0.00    +0.000 A 
ATOM     29  C   UNL     1       1.639   8.456  19.364  0.00  0.00    +0.000 A 
ATOM     30  H   UNL     1      -0.461  12.187  19.500  0.00  0.00    +0.000 HD
ENDBRANCH  20  29
ENDBRANCH  18  20
ENDBRANCH   1  18
TORSDOF 5
ENDMDL
