MODEL 1
REMARK VINA RESULT:      -8.6      0.000      0.000
REMARK  Name = 
REMARK  6 active torsions:
REMARK  status: ('A' for Active; 'I' for Inactive)
REMARK    1  A    between atoms: N_7  and  C_8
REMARK    2  A    between atoms: C_8  and  C_9
REMARK    3  A    between atoms: C_12  and  C_13
REMARK    4  A    between atoms: C_19  and  C_20
REMARK    5  A    between atoms: C_20  and  C_21
REMARK    6  A    between atoms: C_21  and  C_22
REMARK                            x       y       z     vdW  Elec       q    Type
REMARK                         _______ _______ _______ _____ _____    ______ ____
ROOT
ATOM      1  C   UNL     1       3.332   6.118  18.799  0.00  0.00    +0.000 C 
ATOM      2  O   UNL     1       4.508   6.285  19.105  0.00  0.00    +0.000 OA
ATOM      3  N   UNL     1       2.891   5.009  18.074  0.00  0.00    +0.000 N 
ATOM      4  C   UNL     1       1.523   4.534  17.951  0.00  0.00    +0.000 C 
ATOM      5  C   UNL     1       1.630   3.041  18.156  0.00  0.00    +0.000 C 
ATOM      6  C   UNL     1       2.949   2.698  17.482  0.00  0.00    +0.000 C 
ATOM      7  C   UNL     1       3.828   3.957  17.653  0.00  0.00    +0.000 C 
ENDROOT
BRANCH   1  11
ATOM      8  C   UNL     1       0.802   9.243  20.285  0.00  0.00    +0.000 A 
ATOM      9  C   UNL     1       1.043   8.113  21.078  0.00  0.00    +0.000 A 
ATOM     10  C   UNL     1       1.763   7.032  20.569  0.00  0.00    +0.000 A 
ATOM     11  C   UNL     1       2.336   7.109  19.297  0.00  0.00    +0.000 A 
ATOM     12  C   UNL     1       2.018   8.189  18.466  0.00  0.00    +0.000 A 
ATOM     13  C   UNL     1       1.258   9.253  18.959  0.00  0.00    +0.000 A 
BRANCH   8  14
ATOM     14  C   UNL     1       0.092  10.439  20.872  0.00  0.00    +0.000 C 
BRANCH  14  21
ATOM     15  O   UNL     1       2.093  12.549  21.038  0.00  0.00    +0.000 OA
ATOM     16  C   UNL     1       1.195  12.563  20.213  0.00  0.00    +0.000 C 
ATOM     17  C   UNL     1       0.966  13.681  19.234  0.00  0.00    +0.000 C 
ATOM     18  C   UNL     1      -0.187  13.200  18.372  0.00  0.00    +0.000 C 
ATOM     19  C   UNL     1      -0.625  11.920  19.023  0.00  0.00    +0.000 C 
ATOM     20  O   UNL     1      -1.598  11.273  18.664  0.00  0.00    +0.000 OA
ATOM     21  N   UNL     1       0.225  11.622  20.038  0.00  0.00    +0.000 N 
ENDBRANCH  14  21
ENDBRANCH   8  14
ENDBRANCH   1  11
BRANCH   7  22
ATOM     22  C   UNL     1       4.531   4.282  16.321  0.00  0.00    +0.000 C 
BRANCH  22  23
ATOM     23  C   UNL     1       6.035   4.019  16.345  0.00  0.00    +0.000 C 
BRANCH  23  24
ATOM     24  C   UNL     1       6.800   5.057  17.123  0.00  0.00    +0.000 A 
ATOM     25  C   UNL     1       6.867   6.375  16.647  0.00  0.00    +0.000 A 
ATOM     26  C   UNL     1       7.510   7.362  17.390  0.00  0.00    +0.000 A 
ATOM     27  C   UNL     1       8.100   7.039  18.610  0.00  0.00    +0.000 A 
ATOM     28  C   UNL     1       8.058   5.727  19.080  0.00  0.00    +0.000 A 
ATOM     29  C   UNL     1       7.415   4.736  18.337  0.00  0.00    +0.000 A 
ENDBRANCH  23  24
ENDBRANCH  22  23
ENDBRANCH   7  22
TORSDOF 6
ENDMDL
MODEL 2
REMARK VINA RESULT:      -8.6      0.178      1.405
REMARK  Name = 
REMARK  6 active torsions:
REMARK  status: ('A' for Active; 'I' for Inactive)
REMARK    1  A    between atoms: N_7  and  C_8
REMARK    2  A    between atoms: C_8  and  C_9
REMARK    3  A    between atoms: C_12  and  C_13
REMARK    4  A    between atoms: C_19  and  C_20
REMARK    5  A    between atoms: C_20  and  C_21
REMARK    6  A    between atoms: C_21  and  C_22
REMARK                            x       y       z     vdW  Elec       q    Type
REMARK                         _______ _______ _______ _____ _____    ______ ____
ROOT
ATOM      1  C   UNL     1       3.367   6.051  18.847  0.00  0.00    +0.000 C 
ATOM      2  O   UNL     1       4.544   6.203  19.157  0.00  0.00    +0.000 OA
ATOM      3  N   UNL     1       2.918   4.961  18.099  0.00  0.00    +0.000 N 
ATOM      4  C   UNL     1       1.547   4.499  17.965  0.00  0.00    +0.000 C 
ATOM      5  C   UNL     1       1.643   3.001  18.139  0.00  0.00    +0.000 C 
ATOM      6  C   UNL     1       2.959   2.663  17.459  0.00  0.00    +0.000 C 
ATOM      7  C   UNL     1       3.848   3.911  17.656  0.00  0.00    +0.000 C 
ENDROOT
BRANCH   1  11
ATOM      8  C   UNL     1       0.862   9.157  20.413  0.00  0.00    +0.000 A 
ATOM      9  C   UNL     1       1.060   7.987  21.159  0.00  0.00    +0.000 A 
ATOM     10  C   UNL     1       1.772   6.916  20.619  0.00  0.00    +0.000 A 
ATOM     11  C   UNL     1       2.378   7.038  19.366  0.00  0.00    +0.000 A 
ATOM     12  C   UNL     1       2.103   8.162  18.578  0.00  0.00    +0.000 A 
ATOM     13  C   UNL     1       1.352   9.218  19.101  0.00  0.00    +0.000 A 
BRANCH   8  14
ATOM     14  C   UNL     1       0.160  10.339  21.037  0.00  0.00    +0.000 C 
BRANCH  14  21
ATOM     15  O   UNL     1      -1.738  10.912  18.903  0.00  0.00    +0.000 OA
ATOM     16  C   UNL     1      -0.804  11.653  19.164  0.00  0.00    +0.000 C 
ATOM     17  C   UNL     1      -0.477  12.901  18.394  0.00  0.00    +0.000 C 
ATOM     18  C   UNL     1       0.687  13.517  19.148  0.00  0.00    +0.000 C 
ATOM     19  C   UNL     1       1.032  12.497  20.193  0.00  0.00    +0.000 C 
ATOM     20  O   UNL     1       1.985  12.595  20.951  0.00  0.00    +0.000 OA
ATOM     21  N   UNL     1       0.123  11.489  20.148  0.00  0.00    +0.000 N 
ENDBRANCH  14  21
ENDBRANCH   8  14
ENDBRANCH   1  11
BRANCH   7  22
ATOM     22  C   UNL     1       4.553   4.258  16.331  0.00  0.00    +0.000 C 
BRANCH  22  23
ATOM     23  C   UNL     1       6.060   4.009  16.359  0.00  0.00    +0.000 C 
BRANCH  23  24
ATOM     24  C   UNL     1       6.816   5.062  17.126  0.00  0.00    +0.000 A 
ATOM     25  C   UNL     1       6.849   6.381  16.650  0.00  0.00    +0.000 A 
ATOM     26  C   UNL     1       7.483   7.381  17.383  0.00  0.00    +0.000 A 
ATOM     27  C   UNL     1       8.097   7.069  18.594  0.00  0.00    +0.000 A 
ATOM     28  C   UNL     1       8.089   5.756  19.064  0.00  0.00    +0.000 A 
ATOM     29  C   UNL     1       7.455   4.753  18.331  0.00  0.00    +0.000 A 
ENDBRANCH  23  24
ENDBRANCH  22  23
ENDBRANCH   7  22
TORSDOF 6
ENDMDL
MODEL 3
REMARK VINA RESULT:      -8.5      1.473      2.666
REMARK  Name = 
REMARK  6 active torsions:
REMARK  status: ('A' for Active; 'I' for Inactive)
REMARK    1  A    between atoms: N_7  and  C_8
REMARK    2  A    between atoms: C_8  and  C_9
REMARK    3  A    between atoms: C_12  and  C_13
REMARK    4  A    between atoms: C_19  and  C_20
REMARK    5  A    between atoms: C_20  and  C_21
REMARK    6  A    between atoms: C_21  and  C_22
REMARK                            x       y       z     vdW  Elec       q    Type
REMARK                         _______ _______ _______ _____ _____    ______ ____
ROOT
ATOM      1  C   UNL     1       3.205   5.717  19.440  0.00  0.00    +0.000 C 
ATOM      2  O   UNL     1       4.394   5.783  19.736  0.00  0.00    +0.000 OA
ATOM      3  N   UNL     1       2.517   4.506  19.344  0.00  0.00    +0.000 N 
ATOM      4  C   UNL     1       1.077   4.318  19.341  0.00  0.00    +0.000 C 
ATOM      5  C   UNL     1       0.853   3.164  20.290  0.00  0.00    +0.000 C 
ATOM      6  C   UNL     1       2.051   2.268  20.025  0.00  0.00    +0.000 C 
ATOM      7  C   UNL     1       3.191   3.228  19.617  0.00  0.00    +0.000 C 
ENDROOT
BRANCH   1  11
ATOM      8  C   UNL     1       1.459   9.593  18.892  0.00  0.00    +0.000 A 
ATOM      9  C   UNL     1       1.365   8.963  20.140  0.00  0.00    +0.000 A 
ATOM     10  C   UNL     1       1.819   7.655  20.308  0.00  0.00    +0.000 A 
ATOM     11  C   UNL     1       2.462   6.997  19.257  0.00  0.00    +0.000 A 
ATOM     12  C   UNL     1       2.472   7.581  17.986  0.00  0.00    +0.000 A 
ATOM     13  C   UNL     1       1.976   8.875  17.804  0.00  0.00    +0.000 A 
BRANCH   8  14
ATOM     14  C   UNL     1       1.039  11.035  18.741  0.00  0.00    +0.000 C 
BRANCH  14  21
ATOM     15  O   UNL     1      -1.856  10.769  18.910  0.00  0.00    +0.000 OA
ATOM     16  C   UNL     1      -1.197  11.309  19.783  0.00  0.00    +0.000 C 
ATOM     17  C   UNL     1      -1.785  11.954  21.007  0.00  0.00    +0.000 C 
ATOM     18  C   UNL     1      -0.581  12.390  21.821  0.00  0.00    +0.000 C 
ATOM     19  C   UNL     1       0.592  12.101  20.929  0.00  0.00    +0.000 C 
ATOM     20  O   UNL     1       1.745  12.400  21.203  0.00  0.00    +0.000 OA
ATOM     21  N   UNL     1       0.156  11.467  19.811  0.00  0.00    +0.000 N 
ENDBRANCH  14  21
ENDBRANCH   8  14
ENDBRANCH   1  11
BRANCH   7  22
ATOM     22  C   UNL     1       3.926   2.664  18.386  0.00  0.00    +0.000 C 
BRANCH  22  23
ATOM     23  C   UNL     1       3.668   3.457  17.107  0.00  0.00    +0.000 C 
BRANCH  23  24
ATOM     24  C   UNL     1       4.927   4.010  16.494  0.00  0.00    +0.000 A 
ATOM     25  C   UNL     1       6.035   4.285  17.308  0.00  0.00    +0.000 A 
ATOM     26  C   UNL     1       7.231   4.730  16.747  0.00  0.00    +0.000 A 
ATOM     27  C   UNL     1       7.325   4.910  15.369  0.00  0.00    +0.000 A 
ATOM     28  C   UNL     1       6.221   4.661  14.554  0.00  0.00    +0.000 A 
ATOM     29  C   UNL     1       5.023   4.216  15.114  0.00  0.00    +0.000 A 
ENDBRANCH  23  24
ENDBRANCH  22  23
ENDBRANCH   7  22
TORSDOF 6
ENDMDL
MODEL 4
REMARK VINA RESULT:      -8.5      1.694      2.697
REMARK  Name = 
REMARK  6 active torsions:
REMARK  status: ('A' for Active; 'I' for Inactive)
REMARK    1  A    between atoms: N_7  and  C_8
REMARK    2  A    between atoms: C_8  and  C_9
REMARK    3  A    between atoms: C_12  and  C_13
REMARK    4  A    between atoms: C_19  and  C_20
REMARK    5  A    between atoms: C_20  and  C_21
REMARK    6  A    between atoms: C_21  and  C_22
REMARK                            x       y       z     vdW  Elec       q    Type
REMARK                         _______ _______ _______ _____ _____    ______ ____
ROOT
ATOM      1  C   UNL     1       3.536   6.229  18.276  0.00  0.00    +0.000 C 
ATOM      2  O   UNL     1       4.750   6.323  18.430  0.00  0.00    +0.000 OA
ATOM      3  N   UNL     1       2.926   5.076  17.779  0.00  0.00    +0.000 N 
ATOM      4  C   UNL     1       1.519   4.723  17.871  0.00  0.00    +0.000 C 
ATOM      5  C   UNL     1       1.528   3.272  18.290  0.00  0.00    +0.000 C 
ATOM      6  C   UNL     1       2.727   2.709  17.546  0.00  0.00    +0.000 C 
ATOM      7  C   UNL     1       3.720   3.888  17.429  0.00  0.00    +0.000 C 
ENDROOT
BRANCH   1  11
ATOM      8  C   UNL     1       0.761   9.242  19.535  0.00  0.00    +0.000 A 
ATOM      9  C   UNL     1       1.297   9.294  18.242  0.00  0.00    +0.000 A 
ATOM     10  C   UNL     1       2.290   8.396  17.851  0.00  0.00    +0.000 A 
ATOM     11  C   UNL     1       2.689   7.373  18.716  0.00  0.00    +0.000 A 
ATOM     12  C   UNL     1       2.230   7.375  20.038  0.00  0.00    +0.000 A 
ATOM     13  C   UNL     1       1.267   8.303  20.445  0.00  0.00    +0.000 A 
BRANCH   8  14
ATOM     14  C   UNL     1      -0.370  10.166  19.921  0.00  0.00    +0.000 C 
BRANCH  14  21
ATOM     15  O   UNL     1       1.458  12.063  21.164  0.00  0.00    +0.000 OA
ATOM     16  C   UNL     1       0.760  12.357  20.208  0.00  0.00    +0.000 C 
ATOM     17  C   UNL     1       0.703  13.729  19.597  0.00  0.00    +0.000 C 
ATOM     18  C   UNL     1      -0.215  13.572  18.398  0.00  0.00    +0.000 C 
ATOM     19  C   UNL     1      -0.730  12.166  18.510  0.00  0.00    +0.000 C 
ATOM     20  O   UNL     1      -1.574  11.690  17.765  0.00  0.00    +0.000 OA
ATOM     21  N   UNL     1      -0.108  11.545  19.544  0.00  0.00    +0.000 N 
ENDBRANCH  14  21
ENDBRANCH   8  14
ENDBRANCH   1  11
BRANCH   7  22
ATOM     22  C   UNL     1       4.287   3.948  15.999  0.00  0.00    +0.000 C 
BRANCH  22  23
ATOM     23  C   UNL     1       5.774   4.289  15.946  0.00  0.00    +0.000 C 
BRANCH  23  24
ATOM     24  C   UNL     1       6.328   4.292  14.546  0.00  0.00    +0.000 A 
ATOM     25  C   UNL     1       5.755   3.464  13.569  0.00  0.00    +0.000 A 
ATOM     26  C   UNL     1       6.209   3.507  12.252  0.00  0.00    +0.000 A 
ATOM     27  C   UNL     1       7.244   4.371  11.904  0.00  0.00    +0.000 A 
ATOM     28  C   UNL     1       7.835   5.180  12.873  0.00  0.00    +0.000 A 
ATOM     29  C   UNL     1       7.383   5.139  14.192  0.00  0.00    +0.000 A 
ENDBRANCH  23  24
ENDBRANCH  22  23
ENDBRANCH   7  22
TORSDOF 6
ENDMDL
MODEL 5
REMARK VINA RESULT:      -8.4      1.473      2.169
REMARK  Name = 
REMARK  6 active torsions:
REMARK  status: ('A' for Active; 'I' for Inactive)
REMARK    1  A    between atoms: N_7  and  C_8
REMARK    2  A    between atoms: C_8  and  C_9
REMARK    3  A    between atoms: C_12  and  C_13
REMARK    4  A    between atoms: C_19  and  C_20
REMARK    5  A    between atoms: C_20  and  C_21
REMARK    6  A    between atoms: C_21  and  C_22
REMARK                            x       y       z     vdW  Elec       q    Type
REMARK                         _______ _______ _______ _____ _____    ______ ____
ROOT
ATOM      1  C   UNL     1       3.219   5.775  19.452  0.00  0.00    +0.000 C 
ATOM      2  O   UNL     1       4.421   5.858  19.684  0.00  0.00    +0.000 OA
ATOM      3  N   UNL     1       2.534   4.559  19.438  0.00  0.00    +0.000 N 
ATOM      4  C   UNL     1       1.097   4.365  19.517  0.00  0.00    +0.000 C 
ATOM      5  C   UNL     1       0.928   3.248  20.521  0.00  0.00    +0.000 C 
ATOM      6  C   UNL     1       2.117   2.347  20.230  0.00  0.00    +0.000 C 
ATOM      7  C   UNL     1       3.229   3.294  19.727  0.00  0.00    +0.000 C 
ENDROOT
BRANCH   1  11
ATOM      8  C   UNL     1       1.424   9.624  18.870  0.00  0.00    +0.000 A 
ATOM      9  C   UNL     1       1.334   9.002  20.122  0.00  0.00    +0.000 A 
ATOM     10  C   UNL     1       1.805   7.701  20.302  0.00  0.00    +0.000 A 
ATOM     11  C   UNL     1       2.460   7.043  19.257  0.00  0.00    +0.000 A 
ATOM     12  C   UNL     1       2.467   7.619  17.982  0.00  0.00    +0.000 A 
ATOM     13  C   UNL     1       1.955   8.905  17.790  0.00  0.00    +0.000 A 
BRANCH   8  14
ATOM     14  C   UNL     1       0.986  11.060  18.707  0.00  0.00    +0.000 C 
BRANCH  14  21
ATOM     15  O   UNL     1       1.821  12.385  21.163  0.00  0.00    +0.000 OA
ATOM     16  C   UNL     1       0.655  12.110  20.932  0.00  0.00    +0.000 C 
ATOM     17  C   UNL     1      -0.475  12.354  21.892  0.00  0.00    +0.000 C 
ATOM     18  C   UNL     1      -1.719  11.943  21.126  0.00  0.00    +0.000 C 
ATOM     19  C   UNL     1      -1.189  11.353  19.851  0.00  0.00    +0.000 C 
ATOM     20  O   UNL     1      -1.892  10.825  19.003  0.00  0.00    +0.000 OA
ATOM     21  N   UNL     1       0.159  11.512  19.813  0.00  0.00    +0.000 N 
ENDBRANCH  14  21
ENDBRANCH   8  14
ENDBRANCH   1  11
BRANCH   7  22
ATOM     22  C   UNL     1       3.903   2.686  18.483  0.00  0.00    +0.000 C 
BRANCH  22  23
ATOM     23  C   UNL     1       3.677   3.497  17.209  0.00  0.00    +0.000 C 
BRANCH  23  24
ATOM     24  C   UNL     1       4.961   3.964  16.574  0.00  0.00    +0.000 A 
ATOM     25  C   UNL     1       5.028   4.135  15.184  0.00  0.00    +0.000 A 
ATOM     26  C   UNL     1       6.185   4.634  14.589  0.00  0.00    +0.000 A 
ATOM     27  C   UNL     1       7.287   4.956  15.377  0.00  0.00    +0.000 A 
ATOM     28  C   UNL     1       7.237   4.767  16.758  0.00  0.00    +0.000 A 
ATOM     29  C   UNL     1       6.080   4.268  17.356  0.00  0.00    +0.000 A 
ENDBRANCH  23  24
ENDBRANCH  22  23
ENDBRANCH   7  22
TORSDOF 6
ENDMDL
MODEL 6
REMARK VINA RESULT:      -8.4      1.070      1.382
REMARK  Name = 
REMARK  6 active torsions:
REMARK  status: ('A' for Active; 'I' for Inactive)
REMARK    1  A    between atoms: N_7  and  C_8
REMARK    2  A    between atoms: C_8  and  C_9
REMARK    3  A    between atoms: C_12  and  C_13
REMARK    4  A    between atoms: C_19  and  C_20
REMARK    5  A    between atoms: C_20  and  C_21
REMARK    6  A    between atoms: C_21  and  C_22
REMARK                            x       y       z     vdW  Elec       q    Type
REMARK                         _______ _______ _______ _____ _____    ______ ____
ROOT
ATOM      1  C   UNL     1       3.195   5.689  19.267  0.00  0.00    +0.000 C 
ATOM      2  O   UNL     1       4.139   5.647  20.050  0.00  0.00    +0.000 OA
ATOM      3  N   UNL     1       2.732   4.565  18.580  0.00  0.00    +0.000 N 
ATOM      4  C   UNL     1       1.450   4.416  17.914  0.00  0.00    +0.000 C 
ATOM      5  C   UNL     1       0.966   3.051  18.346  0.00  0.00    +0.000 C 
ATOM      6  C   UNL     1       2.247   2.236  18.400  0.00  0.00    +0.000 C 
ATOM      7  C   UNL     1       3.353   3.247  18.779  0.00  0.00    +0.000 C 
ENDROOT
BRANCH   1  11
ATOM      8  C   UNL     1       1.515   9.609  18.837  0.00  0.00    +0.000 A 
ATOM      9  C   UNL     1       1.371   8.926  20.051  0.00  0.00    +0.000 A 
ATOM     10  C   UNL     1       1.803   7.605  20.175  0.00  0.00    +0.000 A 
ATOM     11  C   UNL     1       2.474   6.985  19.118  0.00  0.00    +0.000 A 
ATOM     12  C   UNL     1       2.534   7.626  17.875  0.00  0.00    +0.000 A 
ATOM     13  C   UNL     1       2.060   8.933  17.736  0.00  0.00    +0.000 A 
BRANCH   8  14
ATOM     14  C   UNL     1       1.118  11.062  18.737  0.00  0.00    +0.000 C 
BRANCH  14  21
ATOM     15  O   UNL     1       1.834  12.387  21.230  0.00  0.00    +0.000 OA
ATOM     16  C   UNL     1       0.686  12.072  20.962  0.00  0.00    +0.000 C 
ATOM     17  C   UNL     1      -0.479  12.263  21.892  0.00  0.00    +0.000 C 
ATOM     18  C   UNL     1      -1.685  11.817  21.086  0.00  0.00    +0.000 C 
ATOM     19  C   UNL     1      -1.098  11.262  19.821  0.00  0.00    +0.000 C 
ATOM     20  O   UNL     1      -1.757  10.719  18.946  0.00  0.00    +0.000 OA
ATOM     21  N   UNL     1       0.243  11.471  19.823  0.00  0.00    +0.000 N 
ENDBRANCH  14  21
ENDBRANCH   8  14
ENDBRANCH   1  11
BRANCH   7  22
ATOM     22  C   UNL     1       4.586   3.025  17.883  0.00  0.00    +0.000 C 
BRANCH  22  23
ATOM     23  C   UNL     1       4.810   4.144  16.868  0.00  0.00    +0.000 C 
BRANCH  23  24
ATOM     24  C   UNL     1       5.886   5.110  17.287  0.00  0.00    +0.000 A 
ATOM     25  C   UNL     1       5.876   6.422  16.790  0.00  0.00    +0.000 A 
ATOM     26  C   UNL     1       6.822   7.348  17.223  0.00  0.00    +0.000 A 
ATOM     27  C   UNL     1       7.791   6.969  18.149  0.00  0.00    +0.000 A 
ATOM     28  C   UNL     1       7.823   5.660  18.630  0.00  0.00    +0.000 A 
ATOM     29  C   UNL     1       6.877   4.731  18.198  0.00  0.00    +0.000 A 
ENDBRANCH  23  24
ENDBRANCH  22  23
ENDBRANCH   7  22
TORSDOF 6
ENDMDL
MODEL 7
REMARK VINA RESULT:      -8.3      1.616      2.417
REMARK  Name = 
REMARK  6 active torsions:
REMARK  status: ('A' for Active; 'I' for Inactive)
REMARK    1  A    between atoms: N_7  and  C_8
REMARK    2  A    between atoms: C_8  and  C_9
REMARK    3  A    between atoms: C_12  and  C_13
REMARK    4  A    between atoms: C_19  and  C_20
REMARK    5  A    between atoms: C_20  and  C_21
REMARK    6  A    between atoms: C_21  and  C_22
REMARK                            x       y       z     vdW  Elec       q    Type
REMARK                         _______ _______ _______ _____ _____    ______ ____
ROOT
ATOM      1  C   UNL     1       3.222   5.771  19.425  0.00  0.00    +0.000 C 
ATOM      2  O   UNL     1       4.415   5.841  19.705  0.00  0.00    +0.000 OA
ATOM      3  N   UNL     1       2.529   4.560  19.372  0.00  0.00    +0.000 N 
ATOM      4  C   UNL     1       1.088   4.378  19.392  0.00  0.00    +0.000 C 
ATOM      5  C   UNL     1       0.871   3.253  20.377  0.00  0.00    +0.000 C 
ATOM      6  C   UNL     1       2.062   2.345  20.125  0.00  0.00    +0.000 C 
ATOM      7  C   UNL     1       3.201   3.288  19.676  0.00  0.00    +0.000 C 
ENDROOT
BRANCH   1  11
ATOM      8  C   UNL     1       1.483   9.639  18.800  0.00  0.00    +0.000 A 
ATOM      9  C   UNL     1       1.359   9.019  20.051  0.00  0.00    +0.000 A 
ATOM     10  C   UNL     1       1.811   7.714  20.242  0.00  0.00    +0.000 A 
ATOM     11  C   UNL     1       2.482   7.047  19.213  0.00  0.00    +0.000 A 
ATOM     12  C   UNL     1       2.522   7.621  17.937  0.00  0.00    +0.000 A 
ATOM     13  C   UNL     1       2.028   8.912  17.732  0.00  0.00    +0.000 A 
BRANCH   8  14
ATOM     14  C   UNL     1       1.064  11.079  18.626  0.00  0.00    +0.000 C 
BRANCH  14  21
ATOM     15  O   UNL     1      -0.162  12.649  20.751  0.00  0.00    +0.000 OA
ATOM     16  C   UNL     1      -0.821  12.024  19.936  0.00  0.00    +0.000 C 
ATOM     17  C   UNL     1      -2.320  11.929  19.959  0.00  0.00    +0.000 C 
ATOM     18  C   UNL     1      -2.669  11.138  18.711  0.00  0.00    +0.000 C 
ATOM     19  C   UNL     1      -1.338  10.713  18.160  0.00  0.00    +0.000 C 
ATOM     20  O   UNL     1      -1.207   9.976  17.194  0.00  0.00    +0.000 OA
ATOM     21  N   UNL     1      -0.349  11.278  18.898  0.00  0.00    +0.000 N 
ENDBRANCH  14  21
ENDBRANCH   8  14
ENDBRANCH   1  11
BRANCH   7  22
ATOM     22  C   UNL     1       3.920   2.686  18.454  0.00  0.00    +0.000 C 
BRANCH  22  23
ATOM     23  C   UNL     1       3.665   3.452  17.158  0.00  0.00    +0.000 C 
BRANCH  23  24
ATOM     24  C   UNL     1       4.925   4.004  16.545  0.00  0.00    +0.000 A 
ATOM     25  C   UNL     1       6.024   4.305  17.362  0.00  0.00    +0.000 A 
ATOM     26  C   UNL     1       7.221   4.748  16.803  0.00  0.00    +0.000 A 
ATOM     27  C   UNL     1       7.325   4.904  15.422  0.00  0.00    +0.000 A 
ATOM     28  C   UNL     1       6.230   4.629  14.604  0.00  0.00    +0.000 A 
ATOM     29  C   UNL     1       5.031   4.185  15.162  0.00  0.00    +0.000 A 
ENDBRANCH  23  24
ENDBRANCH  22  23
ENDBRANCH   7  22
TORSDOF 6
ENDMDL
MODEL 8
REMARK VINA RESULT:      -8.3      1.574      2.420
REMARK  Name = 
REMARK  6 active torsions:
REMARK  status: ('A' for Active; 'I' for Inactive)
REMARK    1  A    between atoms: N_7  and  C_8
REMARK    2  A    between atoms: C_8  and  C_9
REMARK    3  A    between atoms: C_12  and  C_13
REMARK    4  A    between atoms: C_19  and  C_20
REMARK    5  A    between atoms: C_20  and  C_21
REMARK    6  A    between atoms: C_21  and  C_22
REMARK                            x       y       z     vdW  Elec       q    Type
REMARK                         _______ _______ _______ _____ _____    ______ ____
ROOT
ATOM      1  C   UNL     1       3.382   5.580  19.457  0.00  0.00    +0.000 C 
ATOM      2  O   UNL     1       4.546   5.535  19.844  0.00  0.00    +0.000 OA
ATOM      3  N   UNL     1       2.615   4.434  19.238  0.00  0.00    +0.000 N 
ATOM      4  C   UNL     1       1.169   4.362  19.117  0.00  0.00    +0.000 C 
ATOM      5  C   UNL     1       0.784   3.181  19.978  0.00  0.00    +0.000 C 
ATOM      6  C   UNL     1       1.928   2.208  19.751  0.00  0.00    +0.000 C 
ATOM      7  C   UNL     1       3.166   3.093  19.486  0.00  0.00    +0.000 C 
ENDROOT
BRANCH   1  11
ATOM      8  C   UNL     1       1.193   9.234  18.978  0.00  0.00    +0.000 A 
ATOM      9  C   UNL     1       1.970   8.750  17.917  0.00  0.00    +0.000 A 
ATOM     10  C   UNL     1       2.784   7.630  18.090  0.00  0.00    +0.000 A 
ATOM     11  C   UNL     1       2.755   6.922  19.294  0.00  0.00    +0.000 A 
ATOM     12  C   UNL     1       2.058   7.454  20.385  0.00  0.00    +0.000 A 
ATOM     13  C   UNL     1       1.278   8.602  20.227  0.00  0.00    +0.000 A 
BRANCH   8  14
ATOM     14  C   UNL     1       0.256  10.397  18.758  0.00  0.00    +0.000 C 
BRANCH  14  21
ATOM     15  O   UNL     1      -0.920  11.408  21.223  0.00  0.00    +0.000 OA
ATOM     16  C   UNL     1       0.010  11.967  20.665  0.00  0.00    +0.000 C 
ATOM     17  C   UNL     1       0.618  13.260  21.129  0.00  0.00    +0.000 C 
ATOM     18  C   UNL     1       1.782  13.492  20.183  0.00  0.00    +0.000 C 
ATOM     19  C   UNL     1       1.653  12.399  19.162  0.00  0.00    +0.000 C 
ATOM     20  O   UNL     1       2.366  12.303  18.175  0.00  0.00    +0.000 OA
ATOM     21  N   UNL     1       0.642  11.569  19.526  0.00  0.00    +0.000 N 
ENDBRANCH  14  21
ENDBRANCH   8  14
ENDBRANCH   1  11
BRANCH   7  22
ATOM     22  C   UNL     1       3.952   2.539  18.283  0.00  0.00    +0.000 C 
BRANCH  22  23
ATOM     23  C   UNL     1       3.744   3.339  16.998  0.00  0.00    +0.000 C 
BRANCH  23  24
ATOM     24  C   UNL     1       5.029   3.882  16.431  0.00  0.00    +0.000 A 
ATOM     25  C   UNL     1       5.153   4.074  15.047  0.00  0.00    +0.000 A 
ATOM     26  C   UNL     1       6.308   4.642  14.513  0.00  0.00    +0.000 A 
ATOM     27  C   UNL     1       7.351   5.014  15.358  0.00  0.00    +0.000 A 
ATOM     28  C   UNL     1       7.246   4.805  16.732  0.00  0.00    +0.000 A 
ATOM     29  C   UNL     1       6.091   4.236  17.269  0.00  0.00    +0.000 A 
ENDBRANCH  23  24
ENDBRANCH  22  23
ENDBRANCH   7  22
TORSDOF 6
ENDMDL
MODEL 9
REMARK VINA RESULT:      -8.3      1.688      2.406
REMARK  Name = 
REMARK  6 active torsions:
REMARK  status: ('A' for Active; 'I' for Inactive)
REMARK    1  A    between atoms: N_7  and  C_8
REMARK    2  A    between atoms: C_8  and  C_9
REMARK    3  A    between atoms: C_12  and  C_13
REMARK    4  A    between atoms: C_19  and  C_20
REMARK    5  A    between atoms: C_20  and  C_21
REMARK    6  A    between atoms: C_21  and  C_22
REMARK                            x       y       z     vdW  Elec       q    Type
REMARK                         _______ _______ _______ _____ _____    ______ ____
ROOT
ATOM      1  C   UNL     1       3.182   5.996  19.494  0.00  0.00    +0.000 C 
ATOM      2  O   UNL     1       4.395   6.179  19.528  0.00  0.00    +0.000 OA
ATOM      3  N   UNL     1       2.604   4.734  19.647  0.00  0.00    +0.000 N 
ATOM      4  C   UNL     1       1.217   4.440  19.961  0.00  0.00    +0.000 C 
ATOM      5  C   UNL     1       1.297   3.376  21.031  0.00  0.00    +0.000 C 
ATOM      6  C   UNL     1       2.495   2.548  20.598  0.00  0.00    +0.000 C 
ATOM      7  C   UNL     1       3.435   3.543  19.881  0.00  0.00    +0.000 C 
ENDROOT
BRANCH   1  11
ATOM      8  C   UNL     1       1.015   9.672  19.082  0.00  0.00    +0.000 A 
ATOM      9  C   UNL     1       1.038   9.018  20.321  0.00  0.00    +0.000 A 
ATOM     10  C   UNL     1       1.634   7.763  20.449  0.00  0.00    +0.000 A 
ATOM     11  C   UNL     1       2.301   7.191  19.362  0.00  0.00    +0.000 A 
ATOM     12  C   UNL     1       2.199   7.791  18.102  0.00  0.00    +0.000 A 
ATOM     13  C   UNL     1       1.562   9.027  17.963  0.00  0.00    +0.000 A 
BRANCH   8  14
ATOM     14  C   UNL     1       0.440  11.063  18.973  0.00  0.00    +0.000 C 
BRANCH  14  21
ATOM     15  O   UNL     1       0.464  12.203  21.653  0.00  0.00    +0.000 OA
ATOM     16  C   UNL     1       1.247  12.553  20.786  0.00  0.00    +0.000 C 
ATOM     17  C   UNL     1       2.266  13.644  20.961  0.00  0.00    +0.000 C 
ATOM     18  C   UNL     1       3.051  13.642  19.662  0.00  0.00    +0.000 C 
ATOM     19  C   UNL     1       2.321  12.660  18.792  0.00  0.00    +0.000 C 
ATOM     20  O   UNL     1       2.605  12.445  17.623  0.00  0.00    +0.000 OA
ATOM     21  N   UNL     1       1.333  12.073  19.514  0.00  0.00    +0.000 N 
ENDBRANCH  14  21
ENDBRANCH   8  14
ENDBRANCH   1  11
BRANCH   7  22
ATOM     22  C   UNL     1       3.957   2.913  18.576  0.00  0.00    +0.000 C 
BRANCH  22  23
ATOM     23  C   UNL     1       3.688   3.764  17.337  0.00  0.00    +0.000 C 
BRANCH  23  24
ATOM     24  C   UNL     1       4.942   4.113  16.579  0.00  0.00    +0.000 A 
ATOM     25  C   UNL     1       4.908   4.203  15.180  0.00  0.00    +0.000 A 
ATOM     26  C   UNL     1       6.041   4.594  14.470  0.00  0.00    +0.000 A 
ATOM     27  C   UNL     1       7.220   4.888  15.152  0.00  0.00    +0.000 A 
ATOM     28  C   UNL     1       7.269   4.778  16.541  0.00  0.00    +0.000 A 
ATOM     29  C   UNL     1       6.136   4.387  17.254  0.00  0.00    +0.000 A 
ENDBRANCH  23  24
ENDBRANCH  22  23
ENDBRANCH   7  22
TORSDOF 6
ENDMDL
