MODEL 1
REMARK VINA RESULT:      -8.0      0.000      0.000
REMARK  Name = 
REMARK  3 active torsions:
REMARK  status: ('A' for Active; 'I' for Inactive)
REMARK    1  A    between atoms: C_1  and  C_2
REMARK    2  A    between atoms: C_7  and  C_8
REMARK    3  A    between atoms: C_11  and  C_12
REMARK                            x       y       z     vdW  Elec       q    Type
REMARK                         _______ _______ _______ _____ _____    ______ ____
ROOT
ATOM      1  C   UNL     1       2.340   7.532  19.277  0.00  0.00    +0.000 A 
ATOM      2  N   UNL     1       2.769   7.821  18.046  0.00  0.00    +0.000 NA
ATOM      3  O   UNL     1       3.483   6.676  17.686  0.00  0.00    +0.000 OA
ATOM      4  C   UNL     1       3.381   5.805  18.732  0.00  0.00    +0.000 A 
ATOM      5  N   UNL     1       2.743   6.305  19.767  0.00  0.00    +0.000 NA
ENDROOT
BRANCH   1  12
ATOM      6  C   UNL     1      -2.075  12.774  22.298  0.00  0.00    +0.000 C 
ATOM      7  C   UNL     1      -1.231  11.547  22.105  0.00  0.00    +0.000 A 
ATOM      8  C   UNL     1      -1.022  10.645  23.158  0.00  0.00    +0.000 A 
ATOM      9  C   UNL     1      -0.283   9.468  22.982  0.00  0.00    +0.000 A 
ATOM     10  C   UNL     1       0.253   9.255  21.715  0.00  0.00    +0.000 A 
ATOM     11  O   UNL     1       0.982   8.170  21.334  0.00  0.00    +0.000 OA
ATOM     12  C   UNL     1       1.409   8.404  20.054  0.00  0.00    +0.000 A 
ATOM     13  C   UNL     1       0.898   9.604  19.605  0.00  0.00    +0.000 A 
ATOM     14  C   UNL     1       0.127  10.149  20.660  0.00  0.00    +0.000 A 
ATOM     15  C   UNL     1      -0.648  11.306  20.845  0.00  0.00    +0.000 A 
ENDBRANCH   1  12
BRANCH   4  16
ATOM     16  C   UNL     1       3.905   4.427  18.528  0.00  0.00    +0.000 C 
ATOM     17  C   UNL     1       3.331   3.765  17.268  0.00  0.00    +0.000 C 
ATOM     18  C   UNL     1       2.562   2.573  17.846  0.00  0.00    +0.000 C 
ATOM     19  C   UNL     1       3.522   1.488  18.327  0.00  0.00    +0.000 C 
ATOM     20  C   UNL     1       4.139   2.140  19.567  0.00  0.00    +0.000 C 
ATOM     21  C   UNL     1       3.401   3.480  19.630  0.00  0.00    +0.000 C 
ATOM     22  O   UNL     1       2.103   3.093  19.112  0.00  0.00    +0.000 OA
ENDBRANCH   4  16
TORSDOF 2
ENDMDL
MODEL 2
REMARK VINA RESULT:      -7.9      2.168      3.405
REMARK  Name = 
REMARK  3 active torsions:
REMARK  status: ('A' for Active; 'I' for Inactive)
REMARK    1  A    between atoms: C_1  and  C_2
REMARK    2  A    between atoms: C_7  and  C_8
REMARK    3  A    between atoms: C_11  and  C_12
REMARK                            x       y       z     vdW  Elec       q    Type
REMARK                         _______ _______ _______ _____ _____    ______ ____
ROOT
ATOM      1  C   UNL     1       2.860   6.038  19.300  0.00  0.00    +0.000 A 
ATOM      2  N   UNL     1       3.186   4.966  20.025  0.00  0.00    +0.000 NA
ATOM      3  O   UNL     1       3.969   4.217  19.142  0.00  0.00    +0.000 OA
ATOM      4  C   UNL     1       4.053   4.938  17.986  0.00  0.00    +0.000 A 
ATOM      5  N   UNL     1       3.335   6.038  18.004  0.00  0.00    +0.000 NA
ENDROOT
BRANCH   1  12
ATOM      6  C   UNL     1      -1.243  11.135  22.946  0.00  0.00    +0.000 C 
ATOM      7  C   UNL     1      -0.449  10.422  21.889  0.00  0.00    +0.000 A 
ATOM      8  C   UNL     1      -0.263  10.994  20.621  0.00  0.00    +0.000 A 
ATOM      9  C   UNL     1       0.519  10.370  19.641  0.00  0.00    +0.000 A 
ATOM     10  C   UNL     1       1.079   9.142  19.983  0.00  0.00    +0.000 A 
ATOM     11  O   UNL     1       1.883   8.387  19.185  0.00  0.00    +0.000 OA
ATOM     12  C   UNL     1       2.122   7.214  19.850  0.00  0.00    +0.000 A 
ATOM     13  C   UNL     1       1.524   7.255  21.094  0.00  0.00    +0.000 A 
ATOM     14  C   UNL     1       0.871   8.507  21.200  0.00  0.00    +0.000 A 
ATOM     15  C   UNL     1       0.114   9.165  22.184  0.00  0.00    +0.000 A 
ENDBRANCH   1  12
BRANCH   4  16
ATOM     16  C   UNL     1       4.989   4.443  16.939  0.00  0.00    +0.000 C 
ATOM     17  C   UNL     1       6.456   4.539  17.376  0.00  0.00    +0.000 C 
ATOM     18  C   UNL     1       7.038   5.525  16.358  0.00  0.00    +0.000 C 
ATOM     19  C   UNL     1       7.188   4.867  14.988  0.00  0.00    +0.000 C 
ATOM     20  C   UNL     1       5.730   4.724  14.545  0.00  0.00    +0.000 C 
ATOM     21  C   UNL     1       4.973   5.367  15.710  0.00  0.00    +0.000 C 
ATOM     22  O   UNL     1       5.915   6.396  16.105  0.00  0.00    +0.000 OA
ENDBRANCH   4  16
TORSDOF 2
ENDMDL
MODEL 3
REMARK VINA RESULT:      -7.8      2.243      8.112
REMARK  Name = 
REMARK  3 active torsions:
REMARK  status: ('A' for Active; 'I' for Inactive)
REMARK    1  A    between atoms: C_1  and  C_2
REMARK    2  A    between atoms: C_7  and  C_8
REMARK    3  A    between atoms: C_11  and  C_12
REMARK                            x       y       z     vdW  Elec       q    Type
REMARK                         _______ _______ _______ _____ _____    ______ ____
ROOT
ATOM      1  C   UNL     1       2.633   6.427  19.827  0.00  0.00    +0.000 A 
ATOM      2  N   UNL     1       1.965   5.514  20.536  0.00  0.00    +0.000 NA
ATOM      3  O   UNL     1       0.999   6.276  21.198  0.00  0.00    +0.000 OA
ATOM      4  C   UNL     1       1.173   7.568  20.791  0.00  0.00    +0.000 A 
ATOM      5  N   UNL     1       2.207   7.730  19.997  0.00  0.00    +0.000 NA
ENDROOT
BRANCH   1  12
ATOM      6  C   UNL     1       7.072   4.824  14.011  0.00  0.00    +0.000 C 
ATOM      7  C   UNL     1       6.524   4.958  15.403  0.00  0.00    +0.000 A 
ATOM      8  C   UNL     1       7.243   4.481  16.508  0.00  0.00    +0.000 A 
ATOM      9  C   UNL     1       6.773   4.645  17.817  0.00  0.00    +0.000 A 
ATOM     10  C   UNL     1       5.545   5.285  17.960  0.00  0.00    +0.000 A 
ATOM     11  O   UNL     1       4.926   5.559  19.142  0.00  0.00    +0.000 OA
ATOM     12  C   UNL     1       3.701   6.088  18.839  0.00  0.00    +0.000 A 
ATOM     13  C   UNL     1       3.571   6.208  17.470  0.00  0.00    +0.000 A 
ATOM     14  C   UNL     1       4.768   5.718  16.895  0.00  0.00    +0.000 A 
ATOM     15  C   UNL     1       5.272   5.577  15.591  0.00  0.00    +0.000 A 
ENDBRANCH   1  12
BRANCH   4  16
ATOM     16  C   UNL     1       0.147   8.561  21.213  0.00  0.00    +0.000 C 
ATOM     17  C   UNL     1       0.100   9.782  20.284  0.00  0.00    +0.000 C 
ATOM     18  C   UNL     1       0.499  10.924  21.224  0.00  0.00    +0.000 C 
ATOM     19  C   UNL     1      -0.636  11.255  22.190  0.00  0.00    +0.000 C 
ATOM     20  C   UNL     1      -0.636  10.030  23.108  0.00  0.00    +0.000 C 
ATOM     21  C   UNL     1       0.531   9.209  22.553  0.00  0.00    +0.000 C 
ATOM     22  O   UNL     1       1.421  10.270  22.122  0.00  0.00    +0.000 OA
ENDBRANCH   4  16
TORSDOF 2
ENDMDL
MODEL 4
REMARK VINA RESULT:      -7.7      1.971      2.554
REMARK  Name = 
REMARK  3 active torsions:
REMARK  status: ('A' for Active; 'I' for Inactive)
REMARK    1  A    between atoms: C_1  and  C_2
REMARK    2  A    between atoms: C_7  and  C_8
REMARK    3  A    between atoms: C_11  and  C_12
REMARK                            x       y       z     vdW  Elec       q    Type
REMARK                         _______ _______ _______ _____ _____    ______ ____
ROOT
ATOM      1  C   UNL     1       2.612   6.935  19.407  0.00  0.00    +0.000 A 
ATOM      2  N   UNL     1       2.788   5.679  19.822  0.00  0.00    +0.000 NA
ATOM      3  O   UNL     1       3.822   5.219  19.002  0.00  0.00    +0.000 OA
ATOM      4  C   UNL     1       4.178   6.265  18.198  0.00  0.00    +0.000 A 
ATOM      5  N   UNL     1       3.422   7.327  18.359  0.00  0.00    +0.000 NA
ENDROOT
BRANCH   1  12
ATOM      6  C   UNL     1      -1.716  12.566  21.785  0.00  0.00    +0.000 C 
ATOM      7  C   UNL     1      -0.909  11.301  21.733  0.00  0.00    +0.000 A 
ATOM      8  C   UNL     1      -0.765  10.493  22.870  0.00  0.00    +0.000 A 
ATOM      9  C   UNL     1      -0.061   9.283  22.828  0.00  0.00    +0.000 A 
ATOM     10  C   UNL     1       0.508   8.938  21.604  0.00  0.00    +0.000 A 
ATOM     11  O   UNL     1       1.211   7.801  21.348  0.00  0.00    +0.000 OA
ATOM     12  C   UNL     1       1.687   7.903  20.069  0.00  0.00    +0.000 A 
ATOM     13  C   UNL     1       1.232   9.073  19.495  0.00  0.00    +0.000 A 
ATOM     14  C   UNL     1       0.446   9.735  20.470  0.00  0.00    +0.000 A 
ATOM     15  C   UNL     1      -0.294  10.928  20.521  0.00  0.00    +0.000 A 
ENDBRANCH   1  12
BRANCH   4  16
ATOM     16  C   UNL     1       5.389   6.092  17.351  0.00  0.00    +0.000 C 
ATOM     17  C   UNL     1       5.106   6.361  15.867  0.00  0.00    +0.000 C 
ATOM     18  C   UNL     1       5.391   4.999  15.227  0.00  0.00    +0.000 C 
ATOM     19  C   UNL     1       6.891   4.720  15.187  0.00  0.00    +0.000 C 
ATOM     20  C   UNL     1       7.208   4.485  16.666  0.00  0.00    +0.000 C 
ATOM     21  C   UNL     1       5.830   4.620  17.318  0.00  0.00    +0.000 C 
ATOM     22  O   UNL     1       4.985   4.085  16.268  0.00  0.00    +0.000 OA
ENDBRANCH   4  16
TORSDOF 2
ENDMDL
MODEL 5
REMARK VINA RESULT:      -7.7      2.474      3.620
REMARK  Name = 
REMARK  3 active torsions:
REMARK  status: ('A' for Active; 'I' for Inactive)
REMARK    1  A    between atoms: C_1  and  C_2
REMARK    2  A    between atoms: C_7  and  C_8
REMARK    3  A    between atoms: C_11  and  C_12
REMARK                            x       y       z     vdW  Elec       q    Type
REMARK                         _______ _______ _______ _____ _____    ______ ____
ROOT
ATOM      1  C   UNL     1       3.454   5.800  18.766  0.00  0.00    +0.000 A 
ATOM      2  N   UNL     1       4.169   5.045  19.604  0.00  0.00    +0.000 NA
ATOM      3  O   UNL     1       4.931   4.254  18.741  0.00  0.00    +0.000 OA
ATOM      4  C   UNL     1       4.613   4.641  17.470  0.00  0.00    +0.000 A 
ATOM      5  N   UNL     1       3.660   5.544  17.424  0.00  0.00    +0.000 NA
ENDROOT
BRANCH   1  12
ATOM      6  C   UNL     1      -0.572  11.997  19.981  0.00  0.00    +0.000 C 
ATOM      7  C   UNL     1       0.134  10.686  20.171  0.00  0.00    +0.000 A 
ATOM      8  C   UNL     1       0.134  10.042  21.417  0.00  0.00    +0.000 A 
ATOM      9  C   UNL     1       0.741   8.793  21.600  0.00  0.00    +0.000 A 
ATOM     10  C   UNL     1       1.365   8.238  20.486  0.00  0.00    +0.000 A 
ATOM     11  O   UNL     1       1.993   7.030  20.449  0.00  0.00    +0.000 OA
ATOM     12  C   UNL     1       2.565   6.914  19.210  0.00  0.00    +0.000 A 
ATOM     13  C   UNL     1       2.245   8.017  18.445  0.00  0.00    +0.000 A 
ATOM     14  C   UNL     1       1.447   8.865  19.251  0.00  0.00    +0.000 A 
ATOM     15  C   UNL     1       0.801  10.100  19.076  0.00  0.00    +0.000 A 
ENDBRANCH   1  12
BRANCH   4  16
ATOM     16  C   UNL     1       5.425   4.074  16.360  0.00  0.00    +0.000 C 
ATOM     17  C   UNL     1       6.911   4.439  16.479  0.00  0.00    +0.000 C 
ATOM     18  C   UNL     1       7.146   5.273  15.216  0.00  0.00    +0.000 C 
ATOM     19  C   UNL     1       7.168   4.386  13.974  0.00  0.00    +0.000 C 
ATOM     20  C   UNL     1       5.698   3.975  13.854  0.00  0.00    +0.000 C 
ATOM     21  C   UNL     1       5.054   4.730  15.020  0.00  0.00    +0.000 C 
ATOM     22  O   UNL     1       5.872   5.928  15.044  0.00  0.00    +0.000 OA
ENDBRANCH   4  16
TORSDOF 2
ENDMDL
MODEL 6
REMARK VINA RESULT:      -7.7      1.220      1.809
REMARK  Name = 
REMARK  3 active torsions:
REMARK  status: ('A' for Active; 'I' for Inactive)
REMARK    1  A    between atoms: C_1  and  C_2
REMARK    2  A    between atoms: C_7  and  C_8
REMARK    3  A    between atoms: C_11  and  C_12
REMARK                            x       y       z     vdW  Elec       q    Type
REMARK                         _______ _______ _______ _____ _____    ______ ____
ROOT
ATOM      1  C   UNL     1       1.774   8.028  19.736  0.00  0.00    +0.000 A 
ATOM      2  N   UNL     1       2.441   8.187  18.591  0.00  0.00    +0.000 NA
ATOM      3  O   UNL     1       2.962   6.913  18.351  0.00  0.00    +0.000 OA
ATOM      4  C   UNL     1       2.525   6.113  19.369  0.00  0.00    +0.000 A 
ATOM      5  N   UNL     1       1.843   6.763  20.286  0.00  0.00    +0.000 NA
ENDROOT
BRANCH   1  12
ATOM      6  C   UNL     1      -2.636  12.537  23.776  0.00  0.00    +0.000 C 
ATOM      7  C   UNL     1      -1.872  11.919  22.640  0.00  0.00    +0.000 A 
ATOM      8  C   UNL     1      -1.943  12.460  21.347  0.00  0.00    +0.000 A 
ATOM      9  C   UNL     1      -1.197  11.930  20.287  0.00  0.00    +0.000 A 
ATOM     10  C   UNL     1      -0.401  10.826  20.579  0.00  0.00    +0.000 A 
ATOM     11  O   UNL     1       0.412  10.179  19.699  0.00  0.00    +0.000 OA
ATOM     12  C   UNL     1       0.924   9.090  20.353  0.00  0.00    +0.000 A 
ATOM     13  C   UNL     1       0.488   9.085  21.662  0.00  0.00    +0.000 A 
ATOM     14  C   UNL     1      -0.346  10.218  21.826  0.00  0.00    +0.000 A 
ATOM     15  C   UNL     1      -1.074  10.784  22.886  0.00  0.00    +0.000 A 
ENDBRANCH   1  12
BRANCH   4  16
ATOM     16  C   UNL     1       2.791   4.653  19.253  0.00  0.00    +0.000 C 
ATOM     17  C   UNL     1       3.610   4.307  18.003  0.00  0.00    +0.000 C 
ATOM     18  C   UNL     1       2.640   3.425  17.210  0.00  0.00    +0.000 C 
ATOM     19  C   UNL     1       2.506   2.048  17.856  0.00  0.00    +0.000 C 
ATOM     20  C   UNL     1       1.723   2.372  19.130  0.00  0.00    +0.000 C 
ATOM     21  C   UNL     1       1.489   3.879  18.993  0.00  0.00    +0.000 C 
ATOM     22  O   UNL     1       1.360   3.997  17.553  0.00  0.00    +0.000 OA
ENDBRANCH   4  16
TORSDOF 2
ENDMDL
MODEL 7
REMARK VINA RESULT:      -7.6      2.130      2.922
REMARK  Name = 
REMARK  3 active torsions:
REMARK  status: ('A' for Active; 'I' for Inactive)
REMARK    1  A    between atoms: C_1  and  C_2
REMARK    2  A    between atoms: C_7  and  C_8
REMARK    3  A    between atoms: C_11  and  C_12
REMARK                            x       y       z     vdW  Elec       q    Type
REMARK                         _______ _______ _______ _____ _____    ______ ____
ROOT
ATOM      1  C   UNL     1       2.634   7.166  19.008  0.00  0.00    +0.000 A 
ATOM      2  N   UNL     1       2.662   5.886  19.387  0.00  0.00    +0.000 NA
ATOM      3  O   UNL     1       3.681   5.347  18.596  0.00  0.00    +0.000 OA
ATOM      4  C   UNL     1       4.177   6.374  17.844  0.00  0.00    +0.000 A 
ATOM      5  N   UNL     1       3.526   7.503  18.009  0.00  0.00    +0.000 NA
ENDROOT
BRANCH   1  12
ATOM      6  C   UNL     1      -1.779  11.517  23.214  0.00  0.00    +0.000 C 
ATOM      7  C   UNL     1      -1.016  10.942  22.055  0.00  0.00    +0.000 A 
ATOM      8  C   UNL     1      -1.089  11.530  20.783  0.00  0.00    +0.000 A 
ATOM      9  C   UNL     1      -0.342  11.041  19.704  0.00  0.00    +0.000 A 
ATOM     10  C   UNL     1       0.455   9.927  19.955  0.00  0.00    +0.000 A 
ATOM     11  O   UNL     1       1.268   9.314  19.051  0.00  0.00    +0.000 OA
ATOM     12  C   UNL     1       1.783   8.203  19.664  0.00  0.00    +0.000 A 
ATOM     13  C   UNL     1       1.348   8.150  20.972  0.00  0.00    +0.000 A 
ATOM     14  C   UNL     1       0.512   9.274  21.178  0.00  0.00    +0.000 A 
ATOM     15  C   UNL     1      -0.215   9.800  22.259  0.00  0.00    +0.000 A 
ENDBRANCH   1  12
BRANCH   4  16
ATOM     16  C   UNL     1       5.402   6.103  17.043  0.00  0.00    +0.000 C 
ATOM     17  C   UNL     1       5.179   6.329  15.542  0.00  0.00    +0.000 C 
ATOM     18  C   UNL     1       5.407   4.928  14.964  0.00  0.00    +0.000 C 
ATOM     19  C   UNL     1       6.890   4.568  14.982  0.00  0.00    +0.000 C 
ATOM     20  C   UNL     1       7.150   4.375  16.478  0.00  0.00    +0.000 C 
ATOM     21  C   UNL     1       5.762   4.609  17.080  0.00  0.00    +0.000 C 
ATOM     22  O   UNL     1       4.921   4.079  16.024  0.00  0.00    +0.000 OA
ENDBRANCH   4  16
TORSDOF 2
ENDMDL
MODEL 8
REMARK VINA RESULT:      -7.6      1.028      1.151
REMARK  Name = 
REMARK  3 active torsions:
REMARK  status: ('A' for Active; 'I' for Inactive)
REMARK    1  A    between atoms: C_1  and  C_2
REMARK    2  A    between atoms: C_7  and  C_8
REMARK    3  A    between atoms: C_11  and  C_12
REMARK                            x       y       z     vdW  Elec       q    Type
REMARK                         _______ _______ _______ _____ _____    ______ ____
ROOT
ATOM      1  C   UNL     1       1.775   7.921  19.739  0.00  0.00    +0.000 A 
ATOM      2  N   UNL     1       2.417   8.125  18.587  0.00  0.00    +0.000 NA
ATOM      3  O   UNL     1       2.986   6.878  18.318  0.00  0.00    +0.000 OA
ATOM      4  C   UNL     1       2.599   6.045  19.329  0.00  0.00    +0.000 A 
ATOM      5  N   UNL     1       1.906   6.651  20.267  0.00  0.00    +0.000 NA
ENDROOT
BRANCH   1  12
ATOM      6  C   UNL     1      -2.252  13.790  22.070  0.00  0.00    +0.000 C 
ATOM      7  C   UNL     1      -1.532  12.473  22.021  0.00  0.00    +0.000 A 
ATOM      8  C   UNL     1      -1.492  11.633  23.145  0.00  0.00    +0.000 A 
ATOM      9  C   UNL     1      -0.872  10.378  23.102  0.00  0.00    +0.000 A 
ATOM     10  C   UNL     1      -0.277  10.020  21.895  0.00  0.00    +0.000 A 
ATOM     11  O   UNL     1       0.356   8.842  21.642  0.00  0.00    +0.000 OA
ATOM     12  C   UNL     1       0.892   8.937  20.386  0.00  0.00    +0.000 A 
ATOM     13  C   UNL     1       0.544  10.147  19.821  0.00  0.00    +0.000 A 
ATOM     14  C   UNL     1      -0.235  10.842  20.778  0.00  0.00    +0.000 A 
ATOM     15  C   UNL     1      -0.894  12.082  20.827  0.00  0.00    +0.000 A 
ENDBRANCH   1  12
BRANCH   4  16
ATOM     16  C   UNL     1       2.923   4.599  19.186  0.00  0.00    +0.000 C 
ATOM     17  C   UNL     1       3.653   4.293  17.871  0.00  0.00    +0.000 C 
ATOM     18  C   UNL     1       2.664   3.366  17.156  0.00  0.00    +0.000 C 
ATOM     19  C   UNL     1       2.648   1.984  17.804  0.00  0.00    +0.000 C 
ATOM     20  C   UNL     1       1.957   2.270  19.140  0.00  0.00    +0.000 C 
ATOM     21  C   UNL     1       1.642   3.764  19.029  0.00  0.00    +0.000 C 
ATOM     22  O   UNL     1       1.391   3.877  17.604  0.00  0.00    +0.000 OA
ENDBRANCH   4  16
TORSDOF 2
ENDMDL
MODEL 9
REMARK VINA RESULT:      -7.6      5.164      7.003
REMARK  Name = 
REMARK  3 active torsions:
REMARK  status: ('A' for Active; 'I' for Inactive)
REMARK    1  A    between atoms: C_1  and  C_2
REMARK    2  A    between atoms: C_7  and  C_8
REMARK    3  A    between atoms: C_11  and  C_12
REMARK                            x       y       z     vdW  Elec       q    Type
REMARK                         _______ _______ _______ _____ _____    ______ ____
ROOT
ATOM      1  C   UNL     1       6.940   6.527  17.437  0.00  0.00    +0.000 A 
ATOM      2  N   UNL     1       7.445   5.600  16.619  0.00  0.00    +0.000 NA
ATOM      3  O   UNL     1       6.400   4.680  16.505  0.00  0.00    +0.000 OA
ATOM      4  C   UNL     1       5.364   5.169  17.247  0.00  0.00    +0.000 A 
ATOM      5  N   UNL     1       5.663   6.272  17.896  0.00  0.00    +0.000 NA
ENDROOT
BRANCH   1  12
ATOM      6  C   UNL     1      10.734  12.363  20.202  0.00  0.00    +0.000 C 
ATOM      7  C   UNL     1       9.813  11.513  19.375  0.00  0.00    +0.000 A 
ATOM      8  C   UNL     1       9.034  12.079  18.355  0.00  0.00    +0.000 A 
ATOM      9  C   UNL     1       8.210  11.295  17.538  0.00  0.00    +0.000 A 
ATOM     10  C   UNL     1       8.188   9.929  17.807  0.00  0.00    +0.000 A 
ATOM     11  O   UNL     1       7.472   8.996  17.120  0.00  0.00    +0.000 OA
ATOM     12  C   UNL     1       7.639   7.804  17.771  0.00  0.00    +0.000 A 
ATOM     13  C   UNL     1       8.509   7.969  18.830  0.00  0.00    +0.000 A 
ATOM     14  C   UNL     1       8.891   9.332  18.844  0.00  0.00    +0.000 A 
ATOM     15  C   UNL     1       9.740  10.129  19.631  0.00  0.00    +0.000 A 
ENDBRANCH   1  12
BRANCH   4  16
ATOM     16  C   UNL     1       4.057   4.463  17.145  0.00  0.00    +0.000 C 
ATOM     17  C   UNL     1       2.917   5.247  17.810  0.00  0.00    +0.000 C 
ATOM     18  C   UNL     1       2.483   4.301  18.934  0.00  0.00    +0.000 C 
ATOM     19  C   UNL     1       1.719   3.105  18.373  0.00  0.00    +0.000 C 
ATOM     20  C   UNL     1       2.831   2.323  17.669  0.00  0.00    +0.000 C 
ATOM     21  C   UNL     1       4.068   3.170  17.977  0.00  0.00    +0.000 C 
ATOM     22  O   UNL     1       3.728   3.668  19.296  0.00  0.00    +0.000 OA
ENDBRANCH   4  16
TORSDOF 2
ENDMDL
