MODEL 1
REMARK VINA RESULT:      -8.7      0.000      0.000
REMARK  Name = 
REMARK  6 active torsions:
REMARK  status: ('A' for Active; 'I' for Inactive)
REMARK    1  A    between atoms: C_5  and  C_6
REMARK    2  A    between atoms: N_8  and  C_9
REMARK    3  A    between atoms: C_16  and  C_17
REMARK    4  A    between atoms: C_17  and  N_18
REMARK    5  A    between atoms: N_18  and  C_19
REMARK    6  A    between atoms: C_19  and  C_20
REMARK                            x       y       z     vdW  Elec       q    Type
REMARK                         _______ _______ _______ _____ _____    ______ ____
ROOT
ATOM      1  C   UNL     1       4.662   5.658  17.316  0.00  0.00    +0.000 A 
ATOM      2  N   UNL     1       4.931   5.787  16.007  0.00  0.00    +0.000 NA
ATOM      3  N   UNL     1       5.776   4.768  15.706  0.00  0.00    +0.000 N 
ATOM      4  C   UNL     1       6.087   4.034  16.823  0.00  0.00    +0.000 A 
ATOM      5  C   UNL     1       5.425   4.597  17.894  0.00  0.00    +0.000 A 
ENDROOT
BRANCH   1  10
ATOM      6  F   UNL     1       0.888   8.982  19.785  0.00  0.00    +0.000 F 
ATOM      7  C   UNL     1       1.814   8.202  19.213  0.00  0.00    +0.000 A 
ATOM      8  C   UNL     1       2.398   8.602  18.020  0.00  0.00    +0.000 A 
ATOM      9  C   UNL     1       3.360   7.787  17.424  0.00  0.00    +0.000 A 
ATOM     10  C   UNL     1       3.715   6.552  17.994  0.00  0.00    +0.000 A 
ATOM     11  C   UNL     1       3.131   6.182  19.215  0.00  0.00    +0.000 A 
ATOM     12  C   UNL     1       2.182   7.008  19.822  0.00  0.00    +0.000 A 
ENDBRANCH   1  10
BRANCH   3  13
ATOM     13  C   UNL     1       6.239   4.554  14.376  0.00  0.00    +0.000 A 
ATOM     14  C   UNL     1       7.366   5.249  13.910  0.00  0.00    +0.000 A 
ATOM     15  C   UNL     1       7.825   5.045  12.606  0.00  0.00    +0.000 A 
ATOM     16  C   UNL     1       7.164   4.158  11.758  0.00  0.00    +0.000 A 
ATOM     17  C   UNL     1       6.042   3.467  12.212  0.00  0.00    +0.000 A 
ATOM     18  C   UNL     1       5.581   3.661  13.516  0.00  0.00    +0.000 A 
ENDBRANCH   3  13
BRANCH   5  19
ATOM     19  C   UNL     1       5.465   4.182  19.326  0.00  0.00    +0.000 C 
BRANCH  19  20
ATOM     20  N   UNL     1       5.296   2.739  19.437  0.00  0.00    +0.000 NA
ATOM     21  H   UNL     1       6.188   2.320  19.700  0.00  0.00    +0.000 HD
BRANCH  20  22
ATOM     22  C   UNL     1       4.305   2.430  20.468  0.00  0.00    +0.000 C 
BRANCH  22  23
ATOM     23  C   UNL     1       2.911   2.613  19.944  0.00  0.00    +0.000 A 
ATOM     24  C   UNL     1       1.897   3.147  20.744  0.00  0.00    +0.000 A 
ATOM     25  C   UNL     1       0.619   3.304  20.224  0.00  0.00    +0.000 A 
ATOM     26  C   UNL     1       0.393   2.913  18.914  0.00  0.00    +0.000 A 
ATOM     27  N   UNL     1       1.342   2.386  18.111  0.00  0.00    +0.000 NA
ATOM     28  C   UNL     1       2.577   2.249  18.644  0.00  0.00    +0.000 A 
ENDBRANCH  22  23
ENDBRANCH  20  22
ENDBRANCH  19  20
ENDBRANCH   5  19
TORSDOF 6
ENDMDL
MODEL 2
REMARK VINA RESULT:      -8.5      0.619      1.622
REMARK  Name = 
REMARK  6 active torsions:
REMARK  status: ('A' for Active; 'I' for Inactive)
REMARK    1  A    between atoms: C_5  and  C_6
REMARK    2  A    between atoms: N_8  and  C_9
REMARK    3  A    between atoms: C_16  and  C_17
REMARK    4  A    between atoms: C_17  and  N_18
REMARK    5  A    between atoms: N_18  and  C_19
REMARK    6  A    between atoms: C_19  and  C_20
REMARK                            x       y       z     vdW  Elec       q    Type
REMARK                         _______ _______ _______ _____ _____    ______ ____
ROOT
ATOM      1  C   UNL     1       4.575   5.695  17.295  0.00  0.00    +0.000 A 
ATOM      2  N   UNL     1       4.886   5.836  15.997  0.00  0.00    +0.000 NA
ATOM      3  N   UNL     1       5.747   4.824  15.716  0.00  0.00    +0.000 N 
ATOM      4  C   UNL     1       6.025   4.084  16.838  0.00  0.00    +0.000 A 
ATOM      5  C   UNL     1       5.325   4.634  17.890  0.00  0.00    +0.000 A 
ENDROOT
BRANCH   1  10
ATOM      6  F   UNL     1       1.018   9.148  19.906  0.00  0.00    +0.000 F 
ATOM      7  C   UNL     1       1.843   8.310  19.265  0.00  0.00    +0.000 A 
ATOM      8  C   UNL     1       2.149   7.085  19.839  0.00  0.00    +0.000 A 
ATOM      9  C   UNL     1       3.011   6.214  19.171  0.00  0.00    +0.000 A 
ATOM     10  C   UNL     1       3.601   6.578  17.948  0.00  0.00    +0.000 A 
ATOM     11  C   UNL     1       3.254   7.811  17.374  0.00  0.00    +0.000 A 
ATOM     12  C   UNL     1       2.375   8.674  18.034  0.00  0.00    +0.000 A 
ENDBRANCH   1  10
BRANCH   3  13
ATOM     13  C   UNL     1       6.255   4.623  14.401  0.00  0.00    +0.000 A 
ATOM     14  C   UNL     1       5.634   3.699  13.547  0.00  0.00    +0.000 A 
ATOM     15  C   UNL     1       6.128   3.495  12.257  0.00  0.00    +0.000 A 
ATOM     16  C   UNL     1       7.244   4.202  11.810  0.00  0.00    +0.000 A 
ATOM     17  C   UNL     1       7.869   5.118  12.653  0.00  0.00    +0.000 A 
ATOM     18  C   UNL     1       7.377   5.333  13.943  0.00  0.00    +0.000 A 
ENDBRANCH   3  13
BRANCH   5  19
ATOM     19  C   UNL     1       5.321   4.209  19.320  0.00  0.00    +0.000 C 
BRANCH  19  20
ATOM     20  N   UNL     1       5.298   2.755  19.413  0.00  0.00    +0.000 NA
ATOM     21  H   UNL     1       6.240   2.422  19.619  0.00  0.00    +0.000 HD
BRANCH  20  22
ATOM     22  C   UNL     1       4.400   2.337  20.489  0.00  0.00    +0.000 C 
BRANCH  22  23
ATOM     23  C   UNL     1       2.969   2.610  20.130  0.00  0.00    +0.000 A 
ATOM     24  C   UNL     1       2.445   2.234  18.890  0.00  0.00    +0.000 A 
ATOM     25  C   UNL     1       1.114   2.501  18.594  0.00  0.00    +0.000 A 
ATOM     26  C   UNL     1       0.348   3.146  19.551  0.00  0.00    +0.000 A 
ATOM     27  N   UNL     1       0.817   3.533  20.757  0.00  0.00    +0.000 NA
ATOM     28  C   UNL     1       2.115   3.256  21.017  0.00  0.00    +0.000 A 
ENDBRANCH  22  23
ENDBRANCH  20  22
ENDBRANCH  19  20
ENDBRANCH   5  19
TORSDOF 6
ENDMDL
MODEL 3
REMARK VINA RESULT:      -8.2      0.969      1.488
REMARK  Name = 
REMARK  6 active torsions:
REMARK  status: ('A' for Active; 'I' for Inactive)
REMARK    1  A    between atoms: C_5  and  C_6
REMARK    2  A    between atoms: N_8  and  C_9
REMARK    3  A    between atoms: C_16  and  C_17
REMARK    4  A    between atoms: C_17  and  N_18
REMARK    5  A    between atoms: N_18  and  C_19
REMARK    6  A    between atoms: C_19  and  C_20
REMARK                            x       y       z     vdW  Elec       q    Type
REMARK                         _______ _______ _______ _____ _____    ______ ____
ROOT
ATOM      1  C   UNL     1       4.760   5.890  17.206  0.00  0.00    +0.000 A 
ATOM      2  N   UNL     1       4.953   5.922  15.878  0.00  0.00    +0.000 NA
ATOM      3  N   UNL     1       5.871   4.956  15.619  0.00  0.00    +0.000 N 
ATOM      4  C   UNL     1       6.301   4.356  16.777  0.00  0.00    +0.000 A 
ATOM      5  C   UNL     1       5.643   4.955  17.830  0.00  0.00    +0.000 A 
ENDROOT
BRANCH   1  10
ATOM      6  F   UNL     1       0.825   9.104  19.569  0.00  0.00    +0.000 F 
ATOM      7  C   UNL     1       1.789   8.351  19.022  0.00  0.00    +0.000 A 
ATOM      8  C   UNL     1       2.371   8.753  17.829  0.00  0.00    +0.000 A 
ATOM      9  C   UNL     1       3.373   7.966  17.259  0.00  0.00    +0.000 A 
ATOM     10  C   UNL     1       3.769   6.757  17.856  0.00  0.00    +0.000 A 
ATOM     11  C   UNL     1       3.185   6.386  19.077  0.00  0.00    +0.000 A 
ATOM     12  C   UNL     1       2.196   7.184  19.657  0.00  0.00    +0.000 A 
ENDBRANCH   1  10
BRANCH   3  13
ATOM     13  C   UNL     1       6.287   4.663  14.289  0.00  0.00    +0.000 A 
ATOM     14  C   UNL     1       5.590   3.707  13.534  0.00  0.00    +0.000 A 
ATOM     15  C   UNL     1       5.993   3.413  12.230  0.00  0.00    +0.000 A 
ATOM     16  C   UNL     1       7.095   4.060  11.671  0.00  0.00    +0.000 A 
ATOM     17  C   UNL     1       7.795   5.007  12.415  0.00  0.00    +0.000 A 
ATOM     18  C   UNL     1       7.394   5.312  13.718  0.00  0.00    +0.000 A 
ENDBRANCH   3  13
BRANCH   5  19
ATOM     19  C   UNL     1       5.789   4.677  19.288  0.00  0.00    +0.000 C 
BRANCH  19  20
ATOM     20  N   UNL     1       5.500   3.276  19.565  0.00  0.00    +0.000 NA
ATOM     21  H   UNL     1       5.345   3.163  20.567  0.00  0.00    +0.000 HD
BRANCH  20  22
ATOM     22  C   UNL     1       4.294   2.864  18.848  0.00  0.00    +0.000 C 
BRANCH  22  23
ATOM     23  C   UNL     1       3.102   2.862  19.759  0.00  0.00    +0.000 A 
ATOM     24  C   UNL     1       1.815   3.114  19.276  0.00  0.00    +0.000 A 
ATOM     25  C   UNL     1       0.736   3.101  20.150  0.00  0.00    +0.000 A 
ATOM     26  C   UNL     1       0.981   2.843  21.489  0.00  0.00    +0.000 A 
ATOM     27  N   UNL     1       2.208   2.602  21.997  0.00  0.00    +0.000 NA
ATOM     28  C   UNL     1       3.239   2.617  21.122  0.00  0.00    +0.000 A 
ENDBRANCH  22  23
ENDBRANCH  20  22
ENDBRANCH  19  20
ENDBRANCH   5  19
TORSDOF 6
ENDMDL
MODEL 4
REMARK VINA RESULT:      -8.2      2.418      5.842
REMARK  Name = 
REMARK  6 active torsions:
REMARK  status: ('A' for Active; 'I' for Inactive)
REMARK    1  A    between atoms: C_5  and  C_6
REMARK    2  A    between atoms: N_8  and  C_9
REMARK    3  A    between atoms: C_16  and  C_17
REMARK    4  A    between atoms: C_17  and  N_18
REMARK    5  A    between atoms: N_18  and  C_19
REMARK    6  A    between atoms: C_19  and  C_20
REMARK                            x       y       z     vdW  Elec       q    Type
REMARK                         _______ _______ _______ _____ _____    ______ ____
ROOT
ATOM      1  C   UNL     1       4.607   5.765  17.444  0.00  0.00    +0.000 A 
ATOM      2  N   UNL     1       3.643   6.692  17.338  0.00  0.00    +0.000 NA
ATOM      3  N   UNL     1       3.234   6.942  18.608  0.00  0.00    +0.000 N 
ATOM      4  C   UNL     1       3.892   6.141  19.508  0.00  0.00    +0.000 A 
ATOM      5  C   UNL     1       4.757   5.335  18.799  0.00  0.00    +0.000 A 
ENDROOT
BRANCH   1  10
ATOM      6  F   UNL     1       7.345   4.120  12.841  0.00  0.00    +0.000 F 
ATOM      7  C   UNL     1       6.703   4.487  13.957  0.00  0.00    +0.000 A 
ATOM      8  C   UNL     1       5.389   4.085  14.149  0.00  0.00    +0.000 A 
ATOM      9  C   UNL     1       4.720   4.471  15.312  0.00  0.00    +0.000 A 
ATOM     10  C   UNL     1       5.345   5.290  16.267  0.00  0.00    +0.000 A 
ATOM     11  C   UNL     1       6.683   5.661  16.064  0.00  0.00    +0.000 A 
ATOM     12  C   UNL     1       7.359   5.258  14.909  0.00  0.00    +0.000 A 
ENDBRANCH   1  10
BRANCH   3  13
ATOM     13  C   UNL     1       2.243   7.925  18.891  0.00  0.00    +0.000 A 
ATOM     14  C   UNL     1       1.778   8.762  17.866  0.00  0.00    +0.000 A 
ATOM     15  C   UNL     1       0.807   9.730  18.137  0.00  0.00    +0.000 A 
ATOM     16  C   UNL     1       0.299   9.875  19.427  0.00  0.00    +0.000 A 
ATOM     17  C   UNL     1       0.759   9.051  20.451  0.00  0.00    +0.000 A 
ATOM     18  C   UNL     1       1.726   8.076  20.187  0.00  0.00    +0.000 A 
ENDBRANCH   3  13
BRANCH   5  19
ATOM     19  C   UNL     1       5.668   4.274  19.320  0.00  0.00    +0.000 C 
BRANCH  19  20
ATOM     20  N   UNL     1       5.229   2.963  18.860  0.00  0.00    +0.000 NA
ATOM     21  H   UNL     1       6.048   2.403  18.627  0.00  0.00    +0.000 HD
BRANCH  20  22
ATOM     22  C   UNL     1       4.477   2.288  19.918  0.00  0.00    +0.000 C 
BRANCH  22  23
ATOM     23  C   UNL     1       3.005   2.534  19.772  0.00  0.00    +0.000 A 
ATOM     24  C   UNL     1       2.249   3.075  20.815  0.00  0.00    +0.000 A 
ATOM     25  C   UNL     1       0.888   3.291  20.641  0.00  0.00    +0.000 A 
ATOM     26  C   UNL     1       0.322   2.950  19.424  0.00  0.00    +0.000 A 
ATOM     27  N   UNL     1       1.013   2.417  18.394  0.00  0.00    +0.000 NA
ATOM     28  C   UNL     1       2.337   2.223  18.592  0.00  0.00    +0.000 A 
ENDBRANCH  22  23
ENDBRANCH  20  22
ENDBRANCH  19  20
ENDBRANCH   5  19
TORSDOF 6
ENDMDL
MODEL 5
REMARK VINA RESULT:      -8.1      2.567      4.815
REMARK  Name = 
REMARK  6 active torsions:
REMARK  status: ('A' for Active; 'I' for Inactive)
REMARK    1  A    between atoms: C_5  and  C_6
REMARK    2  A    between atoms: N_8  and  C_9
REMARK    3  A    between atoms: C_16  and  C_17
REMARK    4  A    between atoms: C_17  and  N_18
REMARK    5  A    between atoms: N_18  and  C_19
REMARK    6  A    between atoms: C_19  and  C_20
REMARK                            x       y       z     vdW  Elec       q    Type
REMARK                         _______ _______ _______ _____ _____    ______ ____
ROOT
ATOM      1  C   UNL     1       3.957   4.685  17.355  0.00  0.00    +0.000 A 
ATOM      2  N   UNL     1       4.448   4.020  16.299  0.00  0.00    +0.000 NA
ATOM      3  N   UNL     1       5.104   4.947  15.556  0.00  0.00    +0.000 N 
ATOM      4  C   UNL     1       4.983   6.200  16.105  0.00  0.00    +0.000 A 
ATOM      5  C   UNL     1       4.215   6.087  17.244  0.00  0.00    +0.000 A 
ENDROOT
BRANCH   1  10
ATOM      6  F   UNL     1       1.216   2.216  21.572  0.00  0.00    +0.000 F 
ATOM      7  C   UNL     1       1.870   2.777  20.547  0.00  0.00    +0.000 A 
ATOM      8  C   UNL     1       3.257   2.784  20.547  0.00  0.00    +0.000 A 
ATOM      9  C   UNL     1       3.937   3.373  19.480  0.00  0.00    +0.000 A 
ATOM     10  C   UNL     1       3.236   3.990  18.429  0.00  0.00    +0.000 A 
ATOM     11  C   UNL     1       1.834   3.946  18.438  0.00  0.00    +0.000 A 
ATOM     12  C   UNL     1       1.154   3.339  19.497  0.00  0.00    +0.000 A 
ENDBRANCH   1  10
BRANCH   3  13
ATOM     13  C   UNL     1       5.806   4.590  14.369  0.00  0.00    +0.000 A 
ATOM     14  C   UNL     1       7.060   5.158  14.102  0.00  0.00    +0.000 A 
ATOM     15  C   UNL     1       7.753   4.813  12.939  0.00  0.00    +0.000 A 
ATOM     16  C   UNL     1       7.201   3.910  12.032  0.00  0.00    +0.000 A 
ATOM     17  C   UNL     1       5.953   3.344  12.288  0.00  0.00    +0.000 A 
ATOM     18  C   UNL     1       5.257   3.679  13.452  0.00  0.00    +0.000 A 
ENDBRANCH   3  13
BRANCH   5  19
ATOM     19  C   UNL     1       3.774   7.168  18.172  0.00  0.00    +0.000 C 
BRANCH  19  20
ATOM     20  N   UNL     1       2.370   7.486  17.944  0.00  0.00    +0.000 NA
ATOM     21  H   UNL     1       1.821   7.136  18.729  0.00  0.00    +0.000 HD
BRANCH  20  22
ATOM     22  C   UNL     1       2.195   8.935  17.851  0.00  0.00    +0.000 C 
BRANCH  22  23
ATOM     23  C   UNL     1       1.177   9.417  18.842  0.00  0.00    +0.000 A 
ATOM     24  C   UNL     1       0.121  10.248  18.457  0.00  0.00    +0.000 A 
ATOM     25  C   UNL     1      -0.804  10.672  19.402  0.00  0.00    +0.000 A 
ATOM     26  C   UNL     1      -0.638  10.254  20.713  0.00  0.00    +0.000 A 
ATOM     27  N   UNL     1       0.371   9.460  21.129  0.00  0.00    +0.000 NA
ATOM     28  C   UNL     1       1.254   9.060  20.184  0.00  0.00    +0.000 A 
ENDBRANCH  22  23
ENDBRANCH  20  22
ENDBRANCH  19  20
ENDBRANCH   5  19
TORSDOF 6
ENDMDL
MODEL 6
REMARK VINA RESULT:      -8.1      2.569      4.650
REMARK  Name = 
REMARK  6 active torsions:
REMARK  status: ('A' for Active; 'I' for Inactive)
REMARK    1  A    between atoms: C_5  and  C_6
REMARK    2  A    between atoms: N_8  and  C_9
REMARK    3  A    between atoms: C_16  and  C_17
REMARK    4  A    between atoms: C_17  and  N_18
REMARK    5  A    between atoms: N_18  and  C_19
REMARK    6  A    between atoms: C_19  and  C_20
REMARK                            x       y       z     vdW  Elec       q    Type
REMARK                         _______ _______ _______ _____ _____    ______ ____
ROOT
ATOM      1  C   UNL     1       4.046   4.630  17.383  0.00  0.00    +0.000 A 
ATOM      2  N   UNL     1       4.531   3.964  16.324  0.00  0.00    +0.000 NA
ATOM      3  N   UNL     1       5.151   4.898  15.558  0.00  0.00    +0.000 N 
ATOM      4  C   UNL     1       5.010   6.154  16.096  0.00  0.00    +0.000 A 
ATOM      5  C   UNL     1       4.268   6.036  17.251  0.00  0.00    +0.000 A 
ENDROOT
BRANCH   1  10
ATOM      6  F   UNL     1       1.480   2.135  21.694  0.00  0.00    +0.000 F 
ATOM      7  C   UNL     1       2.087   2.704  20.645  0.00  0.00    +0.000 A 
ATOM      8  C   UNL     1       3.462   2.582  20.507  0.00  0.00    +0.000 A 
ATOM      9  C   UNL     1       4.094   3.178  19.415  0.00  0.00    +0.000 A 
ATOM     10  C   UNL     1       3.363   3.931  18.480  0.00  0.00    +0.000 A 
ATOM     11  C   UNL     1       1.971   4.018  18.626  0.00  0.00    +0.000 A 
ATOM     12  C   UNL     1       1.336   3.403  19.709  0.00  0.00    +0.000 A 
ENDBRANCH   1  10
BRANCH   3  13
ATOM     13  C   UNL     1       5.836   4.543  14.361  0.00  0.00    +0.000 A 
ATOM     14  C   UNL     1       7.086   5.115  14.078  0.00  0.00    +0.000 A 
ATOM     15  C   UNL     1       7.763   4.773  12.905  0.00  0.00    +0.000 A 
ATOM     16  C   UNL     1       7.201   3.868  12.005  0.00  0.00    +0.000 A 
ATOM     17  C   UNL     1       5.958   3.300  12.278  0.00  0.00    +0.000 A 
ATOM     18  C   UNL     1       5.277   3.632  13.452  0.00  0.00    +0.000 A 
ENDBRANCH   3  13
BRANCH   5  19
ATOM     19  C   UNL     1       3.821   7.118  18.176  0.00  0.00    +0.000 C 
BRANCH  19  20
ATOM     20  N   UNL     1       2.431   7.464  17.910  0.00  0.00    +0.000 NA
ATOM     21  H   UNL     1       1.831   6.928  18.536  0.00  0.00    +0.000 HD
BRANCH  20  22
ATOM     22  C   UNL     1       2.216   8.891  18.153  0.00  0.00    +0.000 C 
BRANCH  22  23
ATOM     23  C   UNL     1       1.317   9.104  19.335  0.00  0.00    +0.000 A 
ATOM     24  C   UNL     1       1.440   8.330  20.493  0.00  0.00    +0.000 A 
ATOM     25  C   UNL     1       0.591   8.558  21.568  0.00  0.00    +0.000 A 
ATOM     26  C   UNL     1      -0.364   9.555  21.448  0.00  0.00    +0.000 A 
ATOM     27  N   UNL     1      -0.521  10.319  20.346  0.00  0.00    +0.000 NA
ATOM     28  C   UNL     1       0.322  10.076  19.317  0.00  0.00    +0.000 A 
ENDBRANCH  22  23
ENDBRANCH  20  22
ENDBRANCH  19  20
ENDBRANCH   5  19
TORSDOF 6
ENDMDL
MODEL 7
REMARK VINA RESULT:      -8.0      2.428      4.641
REMARK  Name = 
REMARK  6 active torsions:
REMARK  status: ('A' for Active; 'I' for Inactive)
REMARK    1  A    between atoms: C_5  and  C_6
REMARK    2  A    between atoms: N_8  and  C_9
REMARK    3  A    between atoms: C_16  and  C_17
REMARK    4  A    between atoms: C_17  and  N_18
REMARK    5  A    between atoms: N_18  and  C_19
REMARK    6  A    between atoms: C_19  and  C_20
REMARK                            x       y       z     vdW  Elec       q    Type
REMARK                         _______ _______ _______ _____ _____    ______ ____
ROOT
ATOM      1  C   UNL     1       4.068   4.712  17.302  0.00  0.00    +0.000 A 
ATOM      2  N   UNL     1       4.465   4.045  16.207  0.00  0.00    +0.000 NA
ATOM      3  N   UNL     1       5.204   4.928  15.489  0.00  0.00    +0.000 N 
ATOM      4  C   UNL     1       5.228   6.161  16.092  0.00  0.00    +0.000 A 
ATOM      5  C   UNL     1       4.474   6.081  17.243  0.00  0.00    +0.000 A 
ENDROOT
BRANCH   1  10
ATOM      6  F   UNL     1       1.156   2.367  21.475  0.00  0.00    +0.000 F 
ATOM      7  C   UNL     1       1.847   2.900  20.459  0.00  0.00    +0.000 A 
ATOM      8  C   UNL     1       3.225   2.751  20.422  0.00  0.00    +0.000 A 
ATOM      9  C   UNL     1       3.944   3.309  19.364  0.00  0.00    +0.000 A 
ATOM     10  C   UNL     1       3.296   4.052  18.362  0.00  0.00    +0.000 A 
ATOM     11  C   UNL     1       1.899   4.166  18.407  0.00  0.00    +0.000 A 
ATOM     12  C   UNL     1       1.177   3.589  19.455  0.00  0.00    +0.000 A 
ENDBRANCH   1  10
BRANCH   3  13
ATOM     13  C   UNL     1       5.841   4.550  14.272  0.00  0.00    +0.000 A 
ATOM     14  C   UNL     1       5.210   3.643  13.408  0.00  0.00    +0.000 A 
ATOM     15  C   UNL     1       5.829   3.266  12.213  0.00  0.00    +0.000 A 
ATOM     16  C   UNL     1       7.079   3.782  11.875  0.00  0.00    +0.000 A 
ATOM     17  C   UNL     1       7.714   4.681  12.730  0.00  0.00    +0.000 A 
ATOM     18  C   UNL     1       7.098   5.068  13.924  0.00  0.00    +0.000 A 
ENDBRANCH   3  13
BRANCH   5  19
ATOM     19  C   UNL     1       4.170   7.162  18.225  0.00  0.00    +0.000 C 
BRANCH  19  20
ATOM     20  N   UNL     1       3.257   8.134  17.638  0.00  0.00    +0.000 NA
ATOM     21  H   UNL     1       3.322   8.076  16.622  0.00  0.00    +0.000 HD
BRANCH  20  22
ATOM     22  C   UNL     1       1.883   7.837  18.043  0.00  0.00    +0.000 C 
BRANCH  22  23
ATOM     23  C   UNL     1       1.512   8.599  19.281  0.00  0.00    +0.000 A 
ATOM     24  C   UNL     1       1.538   7.998  20.542  0.00  0.00    +0.000 A 
ATOM     25  C   UNL     1       1.191   8.736  21.666  0.00  0.00    +0.000 A 
ATOM     26  C   UNL     1       0.818  10.059  21.490  0.00  0.00    +0.000 A 
ATOM     27  N   UNL     1       0.771  10.675  20.290  0.00  0.00    +0.000 NA
ATOM     28  C   UNL     1       1.119   9.932  19.214  0.00  0.00    +0.000 A 
ENDBRANCH  22  23
ENDBRANCH  20  22
ENDBRANCH  19  20
ENDBRANCH   5  19
TORSDOF 6
ENDMDL
MODEL 8
REMARK VINA RESULT:      -7.9      0.586      1.475
REMARK  Name = 
REMARK  6 active torsions:
REMARK  status: ('A' for Active; 'I' for Inactive)
REMARK    1  A    between atoms: C_5  and  C_6
REMARK    2  A    between atoms: N_8  and  C_9
REMARK    3  A    between atoms: C_16  and  C_17
REMARK    4  A    between atoms: C_17  and  N_18
REMARK    5  A    between atoms: N_18  and  C_19
REMARK    6  A    between atoms: C_19  and  C_20
REMARK                            x       y       z     vdW  Elec       q    Type
REMARK                         _______ _______ _______ _____ _____    ______ ____
ROOT
ATOM      1  C   UNL     1       4.701   5.879  17.265  0.00  0.00    +0.000 A 
ATOM      2  N   UNL     1       4.939   5.939  15.946  0.00  0.00    +0.000 NA
ATOM      3  N   UNL     1       5.893   5.005  15.703  0.00  0.00    +0.000 N 
ATOM      4  C   UNL     1       6.300   4.397  16.865  0.00  0.00    +0.000 A 
ATOM      5  C   UNL     1       5.588   4.959  17.904  0.00  0.00    +0.000 A 
ENDROOT
BRANCH   1  10
ATOM      6  F   UNL     1       0.896   9.126  19.788  0.00  0.00    +0.000 F 
ATOM      7  C   UNL     1       1.781   8.336  19.168  0.00  0.00    +0.000 A 
ATOM      8  C   UNL     1       2.146   7.132  19.753  0.00  0.00    +0.000 A 
ATOM      9  C   UNL     1       3.070   6.311  19.106  0.00  0.00    +0.000 A 
ATOM     10  C   UNL     1       3.663   6.705  17.894  0.00  0.00    +0.000 A 
ATOM     11  C   UNL     1       3.258   7.914  17.308  0.00  0.00    +0.000 A 
ATOM     12  C   UNL     1       2.317   8.726  17.947  0.00  0.00    +0.000 A 
ENDBRANCH   1  10
BRANCH   3  13
ATOM     13  C   UNL     1       6.364   4.747  14.383  0.00  0.00    +0.000 A 
ATOM     14  C   UNL     1       5.736   3.768  13.598  0.00  0.00    +0.000 A 
ATOM     15  C   UNL     1       6.193   3.509  12.304  0.00  0.00    +0.000 A 
ATOM     16  C   UNL     1       7.279   4.213  11.786  0.00  0.00    +0.000 A 
ATOM     17  C   UNL     1       7.911   5.184  12.562  0.00  0.00    +0.000 A 
ATOM     18  C   UNL     1       7.455   5.454  13.855  0.00  0.00    +0.000 A 
ENDBRANCH   3  13
BRANCH   5  19
ATOM     19  C   UNL     1       5.692   4.659  19.362  0.00  0.00    +0.000 C 
BRANCH  19  20
ATOM     20  N   UNL     1       5.361   3.263  19.614  0.00  0.00    +0.000 NA
ATOM     21  H   UNL     1       4.982   3.178  20.557  0.00  0.00    +0.000 HD
BRANCH  20  22
ATOM     22  C   UNL     1       4.354   2.807  18.655  0.00  0.00    +0.000 C 
BRANCH  22  23
ATOM     23  C   UNL     1       2.981   2.853  19.257  0.00  0.00    +0.000 A 
ATOM     24  C   UNL     1       2.793   2.998  20.635  0.00  0.00    +0.000 A 
ATOM     25  C   UNL     1       1.507   3.039  21.155  0.00  0.00    +0.000 A 
ATOM     26  C   UNL     1       0.441   2.924  20.277  0.00  0.00    +0.000 A 
ATOM     27  N   UNL     1       0.578   2.774  18.942  0.00  0.00    +0.000 NA
ATOM     28  C   UNL     1       1.844   2.742  18.464  0.00  0.00    +0.000 A 
ENDBRANCH  22  23
ENDBRANCH  20  22
ENDBRANCH  19  20
ENDBRANCH   5  19
TORSDOF 6
ENDMDL
MODEL 9
REMARK VINA RESULT:      -7.9      2.562      4.739
REMARK  Name = 
REMARK  6 active torsions:
REMARK  status: ('A' for Active; 'I' for Inactive)
REMARK    1  A    between atoms: C_5  and  C_6
REMARK    2  A    between atoms: N_8  and  C_9
REMARK    3  A    between atoms: C_16  and  C_17
REMARK    4  A    between atoms: C_17  and  N_18
REMARK    5  A    between atoms: N_18  and  C_19
REMARK    6  A    between atoms: C_19  and  C_20
REMARK                            x       y       z     vdW  Elec       q    Type
REMARK                         _______ _______ _______ _____ _____    ______ ____
ROOT
ATOM      1  C   UNL     1       4.026   4.720  17.261  0.00  0.00    +0.000 A 
ATOM      2  N   UNL     1       4.449   4.047  16.180  0.00  0.00    +0.000 NA
ATOM      3  N   UNL     1       5.177   4.937  15.458  0.00  0.00    +0.000 N 
ATOM      4  C   UNL     1       5.167   6.178  16.044  0.00  0.00    +0.000 A 
ATOM      5  C   UNL     1       4.402   6.097  17.188  0.00  0.00    +0.000 A 
ENDROOT
BRANCH   1  10
ATOM      6  F   UNL     1       1.073   2.384  21.411  0.00  0.00    +0.000 F 
ATOM      7  C   UNL     1       1.782   2.913  20.404  0.00  0.00    +0.000 A 
ATOM      8  C   UNL     1       3.155   3.052  20.540  0.00  0.00    +0.000 A 
ATOM      9  C   UNL     1       3.892   3.605  19.492  0.00  0.00    +0.000 A 
ATOM     10  C   UNL     1       3.257   4.058  18.322  0.00  0.00    +0.000 A 
ATOM     11  C   UNL     1       1.871   3.881  18.198  0.00  0.00    +0.000 A 
ATOM     12  C   UNL     1       1.136   3.309  19.239  0.00  0.00    +0.000 A 
ENDBRANCH   1  10
BRANCH   3  13
ATOM     13  C   UNL     1       5.835   4.556  14.253  0.00  0.00    +0.000 A 
ATOM     14  C   UNL     1       5.219   3.649  13.378  0.00  0.00    +0.000 A 
ATOM     15  C   UNL     1       5.860   3.270  12.196  0.00  0.00    +0.000 A 
ATOM     16  C   UNL     1       7.117   3.783  11.881  0.00  0.00    +0.000 A 
ATOM     17  C   UNL     1       7.737   4.682  12.747  0.00  0.00    +0.000 A 
ATOM     18  C   UNL     1       7.100   5.071  13.928  0.00  0.00    +0.000 A 
ENDBRANCH   3  13
BRANCH   5  19
ATOM     19  C   UNL     1       4.063   7.184  18.151  0.00  0.00    +0.000 C 
BRANCH  19  20
ATOM     20  N   UNL     1       2.620   7.374  18.209  0.00  0.00    +0.000 NA
ATOM     21  H   UNL     1       2.163   6.580  17.761  0.00  0.00    +0.000 HD
BRANCH  20  22
ATOM     22  C   UNL     1       2.180   7.451  19.602  0.00  0.00    +0.000 C 
BRANCH  22  23
ATOM     23  C   UNL     1       1.319   8.658  19.828  0.00  0.00    +0.000 A 
ATOM     24  C   UNL     1       1.116   9.607  18.821  0.00  0.00    +0.000 A 
ATOM     25  C   UNL     1       0.310  10.711  19.066  0.00  0.00    +0.000 A 
ATOM     26  C   UNL     1      -0.265  10.836  20.321  0.00  0.00    +0.000 A 
ATOM     27  N   UNL     1      -0.088   9.948  21.322  0.00  0.00    +0.000 NA
ATOM     28  C   UNL     1       0.699   8.881  21.052  0.00  0.00    +0.000 A 
ENDBRANCH  22  23
ENDBRANCH  20  22
ENDBRANCH  19  20
ENDBRANCH   5  19
TORSDOF 6
ENDMDL
