MODEL 1
REMARK VINA RESULT:      -8.5      0.000      0.000
REMARK  Name = 
REMARK  4 active torsions:
REMARK  status: ('A' for Active; 'I' for Inactive)
REMARK    1  A    between atoms: C_1  and  C_2
REMARK    2  A    between atoms: C_8  and  N_9
REMARK    3  A    between atoms: C_10  and  C_12
REMARK    4  A    between atoms: C_19  and  C_20
REMARK                            x       y       z     vdW  Elec       q    Type
REMARK                         _______ _______ _______ _____ _____    ______ ____
ROOT
ATOM      1  N   UNL     1       3.448   3.313  17.333  0.00  0.00    +0.000 N 
ATOM      2  C   UNL     1       3.324   2.205  18.145  0.00  0.00    +0.000 C 
ATOM      3  O   UNL     1       4.263   1.541  18.576  0.00  0.00    +0.000 OA
ATOM      4  H   UNL     1       2.600   3.769  17.026  0.00  0.00    +0.000 HD
ENDROOT
BRANCH   1  12
ATOM      5  C   UNL     1       6.410   3.673  12.498  0.00  0.00    +0.000 C 
ATOM      6  C   UNL     1       6.731   4.440  13.725  0.00  0.00    +0.000 A 
ATOM      7  N   UNL     1       7.789   5.263  13.774  0.00  0.00    +0.000 NA
ATOM      8  N   UNL     1       7.815   5.664  15.066  0.00  0.00    +0.000 N 
ATOM      9  C   UNL     1       6.838   5.102  15.835  0.00  0.00    +0.000 A 
ATOM     10  N   UNL     1       6.682   5.232  17.166  0.00  0.00    +0.000 NA
ATOM     11  C   UNL     1       5.588   4.571  17.628  0.00  0.00    +0.000 A 
ATOM     12  C   UNL     1       4.652   3.880  16.854  0.00  0.00    +0.000 A 
ATOM     13  C   UNL     1       4.898   3.758  15.483  0.00  0.00    +0.000 A 
ATOM     14  C   UNL     1       6.054   4.367  14.969  0.00  0.00    +0.000 A 
ATOM     15  H   UNL     1       8.532   6.312  15.369  0.00  0.00    +0.000 HD
ENDBRANCH   1  12
BRANCH   2  16
ATOM     16  C   UNL     1       1.867   1.872  18.538  0.00  0.00    +0.000 C 
ATOM     17  C   UNL     1       0.872   2.888  17.936  0.00  0.00    +0.000 C 
ATOM     18  C   UNL     1       1.110   4.313  18.463  0.00  0.00    +0.000 C 
ATOM     19  N   UNL     1       1.592   4.348  19.834  0.00  0.00    +0.000 N 
ATOM     20  C   UNL     1       1.809   3.227  20.603  0.00  0.00    +0.000 A 
ATOM     21  C   UNL     1       2.281   3.703  21.798  0.00  0.00    +0.000 A 
ATOM     22  N   UNL     1       2.470   5.057  21.735  0.00  0.00    +0.000 NA
ATOM     23  C   UNL     1       2.132   5.418  20.508  0.00  0.00    +0.000 A 
ATOM     24  C   UNL     1       1.634   1.854  20.058  0.00  0.00    +0.000 C 
BRANCH  23  25
ATOM     25  C   UNL     1       2.413   6.755  19.864  0.00  0.00    +0.000 C 
ATOM     26  C   UNL     1       1.279   7.746  20.200  0.00  0.00    +0.000 C 
ATOM     27  C   UNL     1       1.469   9.103  19.527  0.00  0.00    +0.000 C 
ATOM     28  C   UNL     1       1.671   8.967  18.022  0.00  0.00    +0.000 C 
ATOM     29  C   UNL     1       2.820   8.015  17.709  0.00  0.00    +0.000 C 
ATOM     30  C   UNL     1       2.581   6.642  18.339  0.00  0.00    +0.000 C 
ENDBRANCH  23  25
ENDBRANCH   2  16
TORSDOF 3
ENDMDL
MODEL 2
REMARK VINA RESULT:      -8.3      0.712      1.199
REMARK  Name = 
REMARK  4 active torsions:
REMARK  status: ('A' for Active; 'I' for Inactive)
REMARK    1  A    between atoms: C_1  and  C_2
REMARK    2  A    between atoms: C_8  and  N_9
REMARK    3  A    between atoms: C_10  and  C_12
REMARK    4  A    between atoms: C_19  and  C_20
REMARK                            x       y       z     vdW  Elec       q    Type
REMARK                         _______ _______ _______ _____ _____    ______ ____
ROOT
ATOM      1  N   UNL     1       3.971   3.015  17.618  0.00  0.00    +0.000 N 
ATOM      2  C   UNL     1       3.980   2.362  18.832  0.00  0.00    +0.000 C 
ATOM      3  O   UNL     1       4.959   2.255  19.565  0.00  0.00    +0.000 OA
ATOM      4  H   UNL     1       3.107   3.022  17.092  0.00  0.00    +0.000 HD
ENDROOT
BRANCH   1  12
ATOM      5  C   UNL     1       6.320   3.557  12.473  0.00  0.00    +0.000 C 
ATOM      6  C   UNL     1       6.717   4.361  13.654  0.00  0.00    +0.000 A 
ATOM      7  N   UNL     1       7.704   5.266  13.579  0.00  0.00    +0.000 NA
ATOM      8  N   UNL     1       7.846   5.682  14.859  0.00  0.00    +0.000 N 
ATOM      9  C   UNL     1       7.012   5.053  15.737  0.00  0.00    +0.000 A 
ATOM     10  N   UNL     1       6.999   5.185  17.076  0.00  0.00    +0.000 NA
ATOM     11  C   UNL     1       6.022   4.444  17.662  0.00  0.00    +0.000 A 
ATOM     12  C   UNL     1       5.062   3.671  17.002  0.00  0.00    +0.000 A 
ATOM     13  C   UNL     1       5.159   3.554  15.612  0.00  0.00    +0.000 A 
ATOM     14  C   UNL     1       6.195   4.248  14.967  0.00  0.00    +0.000 A 
ATOM     15  H   UNL     1       8.537   6.389  15.076  0.00  0.00    +0.000 HD
ENDBRANCH   1  12
BRANCH   2  16
ATOM     16  C   UNL     1       2.605   1.793  19.252  0.00  0.00    +0.000 C 
ATOM     17  C   UNL     1       1.483   2.266  18.302  0.00  0.00    +0.000 C 
ATOM     18  C   UNL     1       1.307   3.794  18.329  0.00  0.00    +0.000 C 
ATOM     19  N   UNL     1       1.588   4.384  19.627  0.00  0.00    +0.000 N 
ATOM     20  C   UNL     1       1.964   3.661  20.737  0.00  0.00    +0.000 A 
ATOM     21  C   UNL     1       2.153   4.595  21.722  0.00  0.00    +0.000 A 
ATOM     22  N   UNL     1       2.022   5.860  21.214  0.00  0.00    +0.000 NA
ATOM     23  C   UNL     1       1.768   5.714  19.925  0.00  0.00    +0.000 A 
ATOM     24  C   UNL     1       2.191   2.193  20.678  0.00  0.00    +0.000 C 
BRANCH  23  25
ATOM     25  C   UNL     1       1.804   6.805  18.881  0.00  0.00    +0.000 C 
ATOM     26  C   UNL     1       3.204   6.865  18.235  0.00  0.00    +0.000 C 
ATOM     27  C   UNL     1       3.331   7.991  17.213  0.00  0.00    +0.000 C 
ATOM     28  C   UNL     1       2.923   9.338  17.799  0.00  0.00    +0.000 C 
ATOM     29  C   UNL     1       1.521   9.272  18.396  0.00  0.00    +0.000 C 
ATOM     30  C   UNL     1       1.433   8.180  19.464  0.00  0.00    +0.000 C 
ENDBRANCH  23  25
ENDBRANCH   2  16
TORSDOF 3
ENDMDL
MODEL 3
REMARK VINA RESULT:      -8.3      4.300      7.569
REMARK  Name = 
REMARK  4 active torsions:
REMARK  status: ('A' for Active; 'I' for Inactive)
REMARK    1  A    between atoms: C_1  and  C_2
REMARK    2  A    between atoms: C_8  and  N_9
REMARK    3  A    between atoms: C_10  and  C_12
REMARK    4  A    between atoms: C_19  and  C_20
REMARK                            x       y       z     vdW  Elec       q    Type
REMARK                         _______ _______ _______ _____ _____    ______ ____
ROOT
ATOM      1  N   UNL     1       1.786   8.194  20.900  0.00  0.00    +0.000 N 
ATOM      2  C   UNL     1       0.606   8.652  21.449  0.00  0.00    +0.000 C 
ATOM      3  O   UNL     1      -0.479   8.086  21.355  0.00  0.00    +0.000 OA
ATOM      4  H   UNL     1       2.615   8.757  21.029  0.00  0.00    +0.000 HD
ENDROOT
BRANCH   1  12
ATOM      5  C   UNL     1       1.494   2.561  21.585  0.00  0.00    +0.000 C 
ATOM      6  C   UNL     1       1.653   3.229  20.270  0.00  0.00    +0.000 A 
ATOM      7  N   UNL     1       1.772   2.519  19.140  0.00  0.00    +0.000 NA
ATOM      8  N   UNL     1       2.022   3.462  18.201  0.00  0.00    +0.000 N 
ATOM      9  C   UNL     1       2.095   4.729  18.702  0.00  0.00    +0.000 A 
ATOM     10  N   UNL     1       2.430   5.845  18.030  0.00  0.00    +0.000 NA
ATOM     11  C   UNL     1       2.378   6.958  18.810  0.00  0.00    +0.000 A 
ATOM     12  C   UNL     1       1.963   7.012  20.144  0.00  0.00    +0.000 A 
ATOM     13  C   UNL     1       1.663   5.807  20.787  0.00  0.00    +0.000 A 
ATOM     14  C   UNL     1       1.767   4.623  20.040  0.00  0.00    +0.000 A 
ATOM     15  H   UNL     1       2.146   3.180  17.237  0.00  0.00    +0.000 HD
ENDBRANCH   1  12
BRANCH   2  16
ATOM     16  C   UNL     1       0.757   9.953  22.269  0.00  0.00    +0.000 C 
ATOM     17  C   UNL     1      -0.617  10.519  22.690  0.00  0.00    +0.000 C 
ATOM     18  C   UNL     1      -1.479  10.910  21.478  0.00  0.00    +0.000 C 
ATOM     19  N   UNL     1      -0.701  11.396  20.351  0.00  0.00    +0.000 N 
ATOM     20  C   UNL     1       0.670  11.512  20.354  0.00  0.00    +0.000 A 
ATOM     21  C   UNL     1       0.990  11.974  19.104  0.00  0.00    +0.000 A 
ATOM     22  N   UNL     1      -0.124  12.024  18.311  0.00  0.00    +0.000 NA
ATOM     23  C   UNL     1      -1.125  11.586  19.057  0.00  0.00    +0.000 A 
ATOM     24  C   UNL     1       1.494  11.071  21.511  0.00  0.00    +0.000 C 
BRANCH  23  25
ATOM     25  C   UNL     1      -2.501  11.204  18.565  0.00  0.00    +0.000 C 
ATOM     26  C   UNL     1      -2.512  11.164  17.022  0.00  0.00    +0.000 C 
ATOM     27  C   UNL     1      -3.893  10.845  16.454  0.00  0.00    +0.000 C 
ATOM     28  C   UNL     1      -4.963  11.783  17.002  0.00  0.00    +0.000 C 
ATOM     29  C   UNL     1      -4.964  11.778  18.527  0.00  0.00    +0.000 C 
ATOM     30  C   UNL     1      -3.589  12.163  19.076  0.00  0.00    +0.000 C 
ENDBRANCH  23  25
ENDBRANCH   2  16
TORSDOF 3
ENDMDL
MODEL 4
REMARK VINA RESULT:      -8.1      2.763      6.786
REMARK  Name = 
REMARK  4 active torsions:
REMARK  status: ('A' for Active; 'I' for Inactive)
REMARK    1  A    between atoms: C_1  and  C_2
REMARK    2  A    between atoms: C_8  and  N_9
REMARK    3  A    between atoms: C_10  and  C_12
REMARK    4  A    between atoms: C_19  and  C_20
REMARK                            x       y       z     vdW  Elec       q    Type
REMARK                         _______ _______ _______ _____ _____    ______ ____
ROOT
ATOM      1  N   UNL     1       2.170   6.103  20.881  0.00  0.00    +0.000 N 
ATOM      2  C   UNL     1       1.484   4.916  20.732  0.00  0.00    +0.000 C 
ATOM      3  O   UNL     1       0.392   4.800  20.182  0.00  0.00    +0.000 OA
ATOM      4  H   UNL     1       3.055   6.077  21.369  0.00  0.00    +0.000 HD
ENDROOT
BRANCH   1  12
ATOM      5  C   UNL     1      -0.764  10.576  22.793  0.00  0.00    +0.000 C 
ATOM      6  C   UNL     1       0.011  10.573  21.529  0.00  0.00    +0.000 A 
ATOM      7  N   UNL     1       0.038  11.647  20.727  0.00  0.00    +0.000 NA
ATOM      8  N   UNL     1       0.727  11.214  19.646  0.00  0.00    +0.000 N 
ATOM      9  C   UNL     1       1.104   9.905  19.723  0.00  0.00    +0.000 A 
ATOM     10  N   UNL     1       1.705   9.179  18.762  0.00  0.00    +0.000 NA
ATOM     11  C   UNL     1       1.979   7.910  19.164  0.00  0.00    +0.000 A 
ATOM     12  C   UNL     1       1.756   7.381  20.438  0.00  0.00    +0.000 A 
ATOM     13  C   UNL     1       1.096   8.183  21.375  0.00  0.00    +0.000 A 
ATOM     14  C   UNL     1       0.732   9.481  20.983  0.00  0.00    +0.000 A 
ATOM     15  H   UNL     1       0.897  11.853  18.879  0.00  0.00    +0.000 HD
ENDBRANCH   1  12
BRANCH   2  16
ATOM     16  C   UNL     1       2.234   3.681  21.279  0.00  0.00    +0.000 C 
ATOM     17  C   UNL     1       3.764   3.837  21.131  0.00  0.00    +0.000 C 
ATOM     18  C   UNL     1       4.196   3.945  19.659  0.00  0.00    +0.000 C 
ATOM     19  N   UNL     1       3.357   3.177  18.754  0.00  0.00    +0.000 N 
ATOM     20  C   UNL     1       2.285   2.414  19.158  0.00  0.00    +0.000 A 
ATOM     21  C   UNL     1       1.766   1.891  18.002  0.00  0.00    +0.000 A 
ATOM     22  N   UNL     1       2.409   2.408  16.911  0.00  0.00    +0.000 NA
ATOM     23  C   UNL     1       3.311   3.253  17.382  0.00  0.00    +0.000 A 
ATOM     24  C   UNL     1       1.842   2.369  20.577  0.00  0.00    +0.000 C 
BRANCH  23  25
ATOM     25  C   UNL     1       4.089   4.266  16.576  0.00  0.00    +0.000 C 
ATOM     26  C   UNL     1       5.523   3.750  16.330  0.00  0.00    +0.000 C 
ATOM     27  C   UNL     1       6.386   4.756  15.573  0.00  0.00    +0.000 C 
ATOM     28  C   UNL     1       6.386   6.124  16.246  0.00  0.00    +0.000 C 
ATOM     29  C   UNL     1       4.963   6.636  16.443  0.00  0.00    +0.000 C 
ATOM     30  C   UNL     1       4.133   5.643  17.259  0.00  0.00    +0.000 C 
ENDBRANCH  23  25
ENDBRANCH   2  16
TORSDOF 3
ENDMDL
MODEL 5
REMARK VINA RESULT:      -8.1      3.816      6.252
REMARK  Name = 
REMARK  4 active torsions:
REMARK  status: ('A' for Active; 'I' for Inactive)
REMARK    1  A    between atoms: C_1  and  C_2
REMARK    2  A    between atoms: C_8  and  N_9
REMARK    3  A    between atoms: C_10  and  C_12
REMARK    4  A    between atoms: C_19  and  C_20
REMARK                            x       y       z     vdW  Elec       q    Type
REMARK                         _______ _______ _______ _____ _____    ______ ____
ROOT
ATOM      1  N   UNL     1       1.995   6.863  20.733  0.00  0.00    +0.000 N 
ATOM      2  C   UNL     1       1.618   8.172  20.522  0.00  0.00    +0.000 C 
ATOM      3  O   UNL     1       1.525   8.709  19.422  0.00  0.00    +0.000 OA
ATOM      4  H   UNL     1       2.053   6.537  21.687  0.00  0.00    +0.000 HD
ENDROOT
BRANCH   1  12
ATOM      5  C   UNL     1       5.335   6.431  16.157  0.00  0.00    +0.000 C 
ATOM      6  C   UNL     1       4.618   5.287  16.770  0.00  0.00    +0.000 A 
ATOM      7  N   UNL     1       4.694   4.057  16.244  0.00  0.00    +0.000 NA
ATOM      8  N   UNL     1       3.824   3.340  16.993  0.00  0.00    +0.000 N 
ATOM      9  C   UNL     1       3.181   4.079  17.943  0.00  0.00    +0.000 A 
ATOM     10  N   UNL     1       2.195   3.664  18.759  0.00  0.00    +0.000 NA
ATOM     11  C   UNL     1       1.787   4.634  19.619  0.00  0.00    +0.000 A 
ATOM     12  C   UNL     1       2.339   5.912  19.743  0.00  0.00    +0.000 A 
ATOM     13  C   UNL     1       3.338   6.286  18.839  0.00  0.00    +0.000 A 
ATOM     14  C   UNL     1       3.745   5.338  17.886  0.00  0.00    +0.000 A 
ATOM     15  H   UNL     1       3.699   2.355  16.800  0.00  0.00    +0.000 HD
ENDBRANCH   1  12
BRANCH   2  16
ATOM     16  C   UNL     1       1.252   8.938  21.814  0.00  0.00    +0.000 C 
ATOM     17  C   UNL     1      -0.243   8.777  22.163  0.00  0.00    +0.000 C 
ATOM     18  C   UNL     1      -1.159   9.368  21.078  0.00  0.00    +0.000 C 
ATOM     19  N   UNL     1      -0.590  10.530  20.414  0.00  0.00    +0.000 N 
ATOM     20  C   UNL     1       0.639  11.068  20.721  0.00  0.00    +0.000 A 
ATOM     21  C   UNL     1       0.795  12.116  19.853  0.00  0.00    +0.000 A 
ATOM     22  N   UNL     1      -0.239  12.153  18.956  0.00  0.00    +0.000 NA
ATOM     23  C   UNL     1      -1.022  11.131  19.256  0.00  0.00    +0.000 A 
ATOM     24  C   UNL     1       1.539  10.447  21.730  0.00  0.00    +0.000 C 
BRANCH  23  25
ATOM     25  C   UNL     1      -2.144  10.588  18.402  0.00  0.00    +0.000 C 
ATOM     26  C   UNL     1      -1.594  10.166  17.023  0.00  0.00    +0.000 C 
ATOM     27  C   UNL     1      -2.689   9.666  16.084  0.00  0.00    +0.000 C 
ATOM     28  C   UNL     1      -3.828  10.671  15.953  0.00  0.00    +0.000 C 
ATOM     29  C   UNL     1      -4.385  11.046  17.323  0.00  0.00    +0.000 C 
ATOM     30  C   UNL     1      -3.285  11.605  18.227  0.00  0.00    +0.000 C 
ENDBRANCH  23  25
ENDBRANCH   2  16
TORSDOF 3
ENDMDL
MODEL 6
REMARK VINA RESULT:      -8.0      2.730      6.700
REMARK  Name = 
REMARK  4 active torsions:
REMARK  status: ('A' for Active; 'I' for Inactive)
REMARK    1  A    between atoms: C_1  and  C_2
REMARK    2  A    between atoms: C_8  and  N_9
REMARK    3  A    between atoms: C_10  and  C_12
REMARK    4  A    between atoms: C_19  and  C_20
REMARK                            x       y       z     vdW  Elec       q    Type
REMARK                         _______ _______ _______ _____ _____    ______ ____
ROOT
ATOM      1  N   UNL     1       1.889   5.870  21.044  0.00  0.00    +0.000 N 
ATOM      2  C   UNL     1       1.245   4.714  20.656  0.00  0.00    +0.000 C 
ATOM      3  O   UNL     1       0.304   4.665  19.869  0.00  0.00    +0.000 OA
ATOM      4  H   UNL     1       2.642   5.788  21.714  0.00  0.00    +0.000 HD
ENDROOT
BRANCH   1  12
ATOM      5  C   UNL     1      -0.829  10.490  22.928  0.00  0.00    +0.000 C 
ATOM      6  C   UNL     1       0.017  10.466  21.711  0.00  0.00    +0.000 A 
ATOM      7  N   UNL     1       0.167  11.556  20.946  0.00  0.00    +0.000 NA
ATOM      8  N   UNL     1       0.886  11.105  19.892  0.00  0.00    +0.000 N 
ATOM      9  C   UNL     1       1.164   9.770  19.949  0.00  0.00    +0.000 A 
ATOM     10  N   UNL     1       1.768   9.029  19.001  0.00  0.00    +0.000 NA
ATOM     11  C   UNL     1       1.928   7.733  19.378  0.00  0.00    +0.000 A 
ATOM     12  C   UNL     1       1.593   7.186  20.620  0.00  0.00    +0.000 A 
ATOM     13  C   UNL     1       0.938   8.008  21.543  0.00  0.00    +0.000 A 
ATOM     14  C   UNL     1       0.690   9.339  21.172  0.00  0.00    +0.000 A 
ATOM     15  H   UNL     1       1.146  11.750  19.157  0.00  0.00    +0.000 HD
ENDBRANCH   1  12
BRANCH   2  16
ATOM     16  C   UNL     1       1.846   3.425  21.260  0.00  0.00    +0.000 C 
ATOM     17  C   UNL     1       3.370   3.556  21.473  0.00  0.00    +0.000 C 
ATOM     18  C   UNL     1       4.125   3.765  20.149  0.00  0.00    +0.000 C 
ATOM     19  N   UNL     1       3.509   3.085  19.022  0.00  0.00    +0.000 N 
ATOM     20  C   UNL     1       2.369   2.318  19.113  0.00  0.00    +0.000 A 
ATOM     21  C   UNL     1       2.122   1.895  17.833  0.00  0.00    +0.000 A 
ATOM     22  N   UNL     1       2.999   2.477  16.959  0.00  0.00    +0.000 NA
ATOM     23  C   UNL     1       3.775   3.264  17.685  0.00  0.00    +0.000 A 
ATOM     24  C   UNL     1       1.616   2.178  20.388  0.00  0.00    +0.000 C 
BRANCH  23  25
ATOM     25  C   UNL     1       4.720   4.316  17.156  0.00  0.00    +0.000 C 
ATOM     26  C   UNL     1       4.080   5.713  17.296  0.00  0.00    +0.000 C 
ATOM     27  C   UNL     1       4.958   6.821  16.720  0.00  0.00    +0.000 C 
ATOM     28  C   UNL     1       5.368   6.531  15.281  0.00  0.00    +0.000 C 
ATOM     29  C   UNL     1       6.036   5.164  15.169  0.00  0.00    +0.000 C 
ATOM     30  C   UNL     1       5.115   4.061  15.691  0.00  0.00    +0.000 C 
ENDBRANCH  23  25
ENDBRANCH   2  16
TORSDOF 3
ENDMDL
MODEL 7
REMARK VINA RESULT:      -8.0      2.874      6.673
REMARK  Name = 
REMARK  4 active torsions:
REMARK  status: ('A' for Active; 'I' for Inactive)
REMARK    1  A    between atoms: C_1  and  C_2
REMARK    2  A    between atoms: C_8  and  N_9
REMARK    3  A    between atoms: C_10  and  C_12
REMARK    4  A    between atoms: C_19  and  C_20
REMARK                            x       y       z     vdW  Elec       q    Type
REMARK                         _______ _______ _______ _____ _____    ______ ____
ROOT
ATOM      1  N   UNL     1       2.282   5.442  19.561  0.00  0.00    +0.000 N 
ATOM      2  C   UNL     1       1.867   4.446  18.702  0.00  0.00    +0.000 C 
ATOM      3  O   UNL     1       1.078   4.602  17.774  0.00  0.00    +0.000 OA
ATOM      4  H   UNL     1       2.922   5.189  20.301  0.00  0.00    +0.000 HD
ENDROOT
BRANCH   1  12
ATOM      5  C   UNL     1      -0.149   9.280  22.972  0.00  0.00    +0.000 C 
ATOM      6  C   UNL     1       0.464   9.607  21.662  0.00  0.00    +0.000 A 
ATOM      7  N   UNL     1       0.451  10.857  21.180  0.00  0.00    +0.000 NA
ATOM      8  N   UNL     1       0.978  10.723  19.941  0.00  0.00    +0.000 N 
ATOM      9  C   UNL     1       1.290   9.435  19.615  0.00  0.00    +0.000 A 
ATOM     10  N   UNL     1       1.728   8.987  18.424  0.00  0.00    +0.000 NA
ATOM     11  C   UNL     1       1.981   7.651  18.432  0.00  0.00    +0.000 A 
ATOM     12  C   UNL     1       1.887   6.799  19.536  0.00  0.00    +0.000 A 
ATOM     13  C   UNL     1       1.391   7.329  20.732  0.00  0.00    +0.000 A 
ATOM     14  C   UNL     1       1.052   8.691  20.753  0.00  0.00    +0.000 A 
ATOM     15  H   UNL     1       1.088  11.543  19.358  0.00  0.00    +0.000 HD
ENDBRANCH   1  12
BRANCH   2  16
ATOM     16  C   UNL     1       2.528   3.073  18.962  0.00  0.00    +0.000 C 
ATOM     17  C   UNL     1       3.612   3.166  20.058  0.00  0.00    +0.000 C 
ATOM     18  C   UNL     1       4.769   4.094  19.653  0.00  0.00    +0.000 C 
ATOM     19  N   UNL     1       5.043   4.084  18.225  0.00  0.00    +0.000 N 
ATOM     20  C   UNL     1       4.353   3.317  17.314  0.00  0.00    +0.000 A 
ATOM     21  C   UNL     1       4.905   3.627  16.099  0.00  0.00    +0.000 A 
ATOM     22  N   UNL     1       5.817   4.639  16.230  0.00  0.00    +0.000 NA
ATOM     23  C   UNL     1       5.822   4.964  17.512  0.00  0.00    +0.000 A 
ATOM     24  C   UNL     1       3.196   2.472  17.713  0.00  0.00    +0.000 C 
BRANCH  23  25
ATOM     25  C   UNL     1       6.459   6.193  18.117  0.00  0.00    +0.000 C 
ATOM     26  C   UNL     1       6.501   7.328  17.072  0.00  0.00    +0.000 C 
ATOM     27  C   UNL     1       7.191   8.584  17.598  0.00  0.00    +0.000 C 
ATOM     28  C   UNL     1       8.578   8.278  18.154  0.00  0.00    +0.000 C 
ATOM     29  C   UNL     1       8.512   7.183  19.213  0.00  0.00    +0.000 C 
ATOM     30  C   UNL     1       7.875   5.913  18.648  0.00  0.00    +0.000 C 
ENDBRANCH  23  25
ENDBRANCH   2  16
TORSDOF 3
ENDMDL
MODEL 8
REMARK VINA RESULT:      -8.0      7.846     12.258
REMARK  Name = 
REMARK  4 active torsions:
REMARK  status: ('A' for Active; 'I' for Inactive)
REMARK    1  A    between atoms: C_1  and  C_2
REMARK    2  A    between atoms: C_8  and  N_9
REMARK    3  A    between atoms: C_10  and  C_12
REMARK    4  A    between atoms: C_19  and  C_20
REMARK                            x       y       z     vdW  Elec       q    Type
REMARK                         _______ _______ _______ _____ _____    ______ ____
ROOT
ATOM      1  N   UNL     1      -1.472  13.993  22.175  0.00  0.00    +0.000 N 
ATOM      2  C   UNL     1      -0.343  13.203  22.115  0.00  0.00    +0.000 C 
ATOM      3  O   UNL     1      -0.252  12.071  22.581  0.00  0.00    +0.000 OA
ATOM      4  H   UNL     1      -1.422  14.918  21.770  0.00  0.00    +0.000 HD
ENDROOT
BRANCH   1  12
ATOM      5  C   UNL     1      -6.832  12.899  20.642  0.00  0.00    +0.000 C 
ATOM      6  C   UNL     1      -6.305  12.696  22.013  0.00  0.00    +0.000 A 
ATOM      7  N   UNL     1      -7.095  12.261  23.004  0.00  0.00    +0.000 NA
ATOM      8  N   UNL     1      -6.297  12.329  24.095  0.00  0.00    +0.000 N 
ATOM      9  C   UNL     1      -5.051  12.819  23.834  0.00  0.00    +0.000 A 
ATOM     10  N   UNL     1      -4.086  13.095  24.730  0.00  0.00    +0.000 NA
ATOM     11  C   UNL     1      -2.943  13.542  24.145  0.00  0.00    +0.000 A 
ATOM     12  C   UNL     1      -2.709  13.656  22.772  0.00  0.00    +0.000 A 
ATOM     13  C   UNL     1      -3.769  13.384  21.901  0.00  0.00    +0.000 A 
ATOM     14  C   UNL     1      -4.991  12.983  22.464  0.00  0.00    +0.000 A 
ATOM     15  H   UNL     1      -6.661  12.040  24.994  0.00  0.00    +0.000 HD
ENDBRANCH   1  12
BRANCH   2  16
ATOM     16  C   UNL     1       0.833  13.843  21.342  0.00  0.00    +0.000 C 
ATOM     17  C   UNL     1       0.332  14.759  20.205  0.00  0.00    +0.000 C 
ATOM     18  C   UNL     1      -0.466  13.982  19.144  0.00  0.00    +0.000 C 
ATOM     19  N   UNL     1       0.002  12.619  18.955  0.00  0.00    +0.000 N 
ATOM     20  C   UNL     1       1.059  12.066  19.641  0.00  0.00    +0.000 A 
ATOM     21  C   UNL     1       1.141  10.776  19.185  0.00  0.00    +0.000 A 
ATOM     22  N   UNL     1       0.100  10.498  18.342  0.00  0.00    +0.000 NA
ATOM     23  C   UNL     1      -0.630  11.599  18.284  0.00  0.00    +0.000 A 
ATOM     24  C   UNL     1       1.780  12.809  20.708  0.00  0.00    +0.000 C 
BRANCH  23  25
ATOM     25  C   UNL     1      -2.019  11.718  17.702  0.00  0.00    +0.000 C 
ATOM     26  C   UNL     1      -3.066  11.680  18.836  0.00  0.00    +0.000 C 
ATOM     27  C   UNL     1      -4.499  11.732  18.312  0.00  0.00    +0.000 C 
ATOM     28  C   UNL     1      -4.760  10.653  17.267  0.00  0.00    +0.000 C 
ATOM     29  C   UNL     1      -3.741  10.731  16.135  0.00  0.00    +0.000 C 
ATOM     30  C   UNL     1      -2.315  10.613  16.674  0.00  0.00    +0.000 C 
ENDBRANCH  23  25
ENDBRANCH   2  16
TORSDOF 3
ENDMDL
MODEL 9
REMARK VINA RESULT:      -8.0      7.471     12.143
REMARK  Name = 
REMARK  4 active torsions:
REMARK  status: ('A' for Active; 'I' for Inactive)
REMARK    1  A    between atoms: C_1  and  C_2
REMARK    2  A    between atoms: C_8  and  N_9
REMARK    3  A    between atoms: C_10  and  C_12
REMARK    4  A    between atoms: C_19  and  C_20
REMARK                            x       y       z     vdW  Elec       q    Type
REMARK                         _______ _______ _______ _____ _____    ______ ____
ROOT
ATOM      1  N   UNL     1      -1.319  14.118  21.521  0.00  0.00    +0.000 N 
ATOM      2  C   UNL     1      -0.169  13.361  21.437  0.00  0.00    +0.000 C 
ATOM      3  O   UNL     1       0.065  12.362  22.111  0.00  0.00    +0.000 OA
ATOM      4  H   UNL     1      -1.392  14.932  20.927  0.00  0.00    +0.000 HD
ENDROOT
BRANCH   1  12
ATOM      5  C   UNL     1      -6.732  12.417  21.215  0.00  0.00    +0.000 C 
ATOM      6  C   UNL     1      -5.992  12.602  22.487  0.00  0.00    +0.000 A 
ATOM      7  N   UNL     1      -6.586  12.402  23.671  0.00  0.00    +0.000 NA
ATOM      8  N   UNL     1      -5.644  12.787  24.564  0.00  0.00    +0.000 N 
ATOM      9  C   UNL     1      -4.498  13.250  23.987  0.00  0.00    +0.000 A 
ATOM     10  N   UNL     1      -3.439  13.793  24.615  0.00  0.00    +0.000 NA
ATOM     11  C   UNL     1      -2.439  14.126  23.756  0.00  0.00    +0.000 A 
ATOM     12  C   UNL     1      -2.421  13.890  22.379  0.00  0.00    +0.000 A 
ATOM     13  C   UNL     1      -3.570  13.353  21.790  0.00  0.00    +0.000 A 
ATOM     14  C   UNL     1      -4.656  13.056  22.629  0.00  0.00    +0.000 A 
ATOM     15  H   UNL     1      -5.845  12.725  25.554  0.00  0.00    +0.000 HD
ENDBRANCH   1  12
BRANCH   2  16
ATOM     16  C   UNL     1       0.825  13.844  20.357  0.00  0.00    +0.000 C 
ATOM     17  C   UNL     1       0.090  14.375  19.107  0.00  0.00    +0.000 C 
ATOM     18  C   UNL     1      -0.746  13.282  18.419  0.00  0.00    +0.000 C 
ATOM     19  N   UNL     1      -0.162  11.956  18.527  0.00  0.00    +0.000 N 
ATOM     20  C   UNL     1       1.027  11.687  19.168  0.00  0.00    +0.000 A 
ATOM     21  C   UNL     1       1.189  10.331  19.061  0.00  0.00    +0.000 A 
ATOM     22  N   UNL     1       0.086   9.760  18.486  0.00  0.00    +0.000 NA
ATOM     23  C   UNL     1      -0.759  10.749  18.251  0.00  0.00    +0.000 A 
ATOM     24  C   UNL     1       1.791  12.744  19.882  0.00  0.00    +0.000 C 
BRANCH  23  25
ATOM     25  C   UNL     1      -2.214  10.606  17.873  0.00  0.00    +0.000 C 
ATOM     26  C   UNL     1      -2.397  10.903  16.370  0.00  0.00    +0.000 C 
ATOM     27  C   UNL     1      -3.858  10.838  15.932  0.00  0.00    +0.000 C 
ATOM     28  C   UNL     1      -4.749  11.725  16.795  0.00  0.00    +0.000 C 
ATOM     29  C   UNL     1      -4.586  11.389  18.273  0.00  0.00    +0.000 C 
ATOM     30  C   UNL     1      -3.125  11.523  18.707  0.00  0.00    +0.000 C 
ENDBRANCH  23  25
ENDBRANCH   2  16
TORSDOF 3
ENDMDL
