MODEL 1
REMARK VINA RESULT:      -9.3      0.000      0.000
REMARK  Name = 
REMARK  6 active torsions:
REMARK  status: ('A' for Active; 'I' for Inactive)
REMARK    1  A    between atoms: C_1  and  C_2
REMARK    2  A    between atoms: C_4  and  N_5
REMARK    3  A    between atoms: C_7  and  C_8
REMARK    4  A    between atoms: C_10  and  C_11
REMARK    5  A    between atoms: C_11  and  O_12
REMARK    6  A    between atoms: O_12  and  C_13
REMARK                            x       y       z     vdW  Elec       q    Type
REMARK                         _______ _______ _______ _____ _____    ______ ____
ROOT
ATOM      1  N   UNL     1       5.306   4.596  18.123  0.00  0.00    +0.000 N 
ATOM      2  C   UNL     1       6.525   4.646  18.898  0.00  0.00    +0.000 C 
ATOM      3  C   UNL     1       7.586   5.090  17.903  0.00  0.00    +0.000 C 
ATOM      4  C   UNL     1       7.091   4.517  16.585  0.00  0.00    +0.000 C 
ATOM      5  C   UNL     1       5.589   4.502  16.752  0.00  0.00    +0.000 C 
ATOM      6  O   UNL     1       4.825   4.353  15.811  0.00  0.00    +0.000 OA
ENDROOT
BRANCH   1  10
ATOM      7  C   UNL     1       0.927   2.308  18.759  0.00  0.00    +0.000 C 
ATOM      8  C   UNL     1       1.856   3.448  19.042  0.00  0.00    +0.000 A 
ATOM      9  C   UNL     1       3.128   3.502  18.453  0.00  0.00    +0.000 A 
ATOM     10  C   UNL     1       4.017   4.556  18.716  0.00  0.00    +0.000 A 
ATOM     11  C   UNL     1       3.591   5.577  19.580  0.00  0.00    +0.000 A 
ATOM     12  C   UNL     1       2.324   5.536  20.171  0.00  0.00    +0.000 A 
ATOM     13  C   UNL     1       1.470   4.475  19.898  0.00  0.00    +0.000 A 
ATOM     14  F   UNL     1       0.260   4.452  20.474  0.00  0.00    +0.000 F 
ENDBRANCH   1  10
BRANCH   3  15
ATOM     15  C   UNL     1       7.713   6.573  17.887  0.00  0.00    +0.000 A 
ATOM     16  N   UNL     1       8.403   7.338  18.699  0.00  0.00    +0.000 NA
ATOM     17  C   UNL     1       8.168   8.592  18.182  0.00  0.00    +0.000 A 
ATOM     18  N   UNL     1       7.343   8.617  17.127  0.00  0.00    +0.000 NA
ATOM     19  O   UNL     1       7.035   7.273  16.929  0.00  0.00    +0.000 OA
BRANCH  17  20
ATOM     20  C   UNL     1       8.754   9.818  18.783  0.00  0.00    +0.000 C 
BRANCH  20  21
ATOM     21  O   UNL     1       9.585  10.510  17.844  0.00  0.00    +0.000 OA
BRANCH  21  22
ATOM     22  C   UNL     1      10.300  11.561  18.348  0.00  0.00    +0.000 A 
ATOM     23  C   UNL     1      11.306  11.459  19.315  0.00  0.00    +0.000 A 
ATOM     24  C   UNL     1      11.987  12.602  19.738  0.00  0.00    +0.000 A 
ATOM     25  C   UNL     1      11.666  13.836  19.189  0.00  0.00    +0.000 A 
ATOM     26  F   UNL     1      12.324  14.928  19.599  0.00  0.00    +0.000 F 
ATOM     27  C   UNL     1      10.682  13.951  18.218  0.00  0.00    +0.000 A 
ATOM     28  C   UNL     1      10.002  12.808  17.791  0.00  0.00    +0.000 A 
ENDBRANCH  21  22
ENDBRANCH  20  21
ENDBRANCH  17  20
ENDBRANCH   3  15
TORSDOF 5
ENDMDL
MODEL 2
REMARK VINA RESULT:      -9.1      0.876      1.741
REMARK  Name = 
REMARK  6 active torsions:
REMARK  status: ('A' for Active; 'I' for Inactive)
REMARK    1  A    between atoms: C_1  and  C_2
REMARK    2  A    between atoms: C_4  and  N_5
REMARK    3  A    between atoms: C_7  and  C_8
REMARK    4  A    between atoms: C_10  and  C_11
REMARK    5  A    between atoms: C_11  and  O_12
REMARK    6  A    between atoms: O_12  and  C_13
REMARK                            x       y       z     vdW  Elec       q    Type
REMARK                         _______ _______ _______ _____ _____    ______ ____
ROOT
ATOM      1  N   UNL     1       5.303   4.556  18.174  0.00  0.00    +0.000 N 
ATOM      2  C   UNL     1       6.543   4.586  18.916  0.00  0.00    +0.000 C 
ATOM      3  C   UNL     1       7.586   5.001  17.891  0.00  0.00    +0.000 C 
ATOM      4  C   UNL     1       7.046   4.430  16.591  0.00  0.00    +0.000 C 
ATOM      5  C   UNL     1       5.549   4.446  16.797  0.00  0.00    +0.000 C 
ATOM      6  O   UNL     1       4.758   4.306  15.878  0.00  0.00    +0.000 OA
ENDROOT
BRANCH   1  10
ATOM      7  C   UNL     1       1.702   6.951  20.644  0.00  0.00    +0.000 C 
ATOM      8  C   UNL     1       2.247   5.704  20.018  0.00  0.00    +0.000 A 
ATOM      9  C   UNL     1       3.508   5.701  19.404  0.00  0.00    +0.000 A 
ATOM     10  C   UNL     1       4.030   4.546  18.801  0.00  0.00    +0.000 A 
ATOM     11  C   UNL     1       3.258   3.375  18.843  0.00  0.00    +0.000 A 
ATOM     12  C   UNL     1       2.000   3.364  19.454  0.00  0.00    +0.000 A 
ATOM     13  C   UNL     1       1.507   4.526  20.034  0.00  0.00    +0.000 A 
ATOM     14  F   UNL     1       0.299   4.499  20.616  0.00  0.00    +0.000 F 
ENDBRANCH   1  10
BRANCH   3  15
ATOM     15  C   UNL     1       7.743   6.481  17.861  0.00  0.00    +0.000 A 
ATOM     16  N   UNL     1       8.435   7.242  18.676  0.00  0.00    +0.000 NA
ATOM     17  C   UNL     1       8.233   8.494  18.140  0.00  0.00    +0.000 A 
ATOM     18  N   UNL     1       7.427   8.523  17.072  0.00  0.00    +0.000 NA
ATOM     19  O   UNL     1       7.095   7.183  16.884  0.00  0.00    +0.000 OA
BRANCH  17  20
ATOM     20  C   UNL     1       8.834   9.715  18.737  0.00  0.00    +0.000 C 
BRANCH  20  21
ATOM     21  O   UNL     1       8.363  10.899  18.083  0.00  0.00    +0.000 OA
BRANCH  21  22
ATOM     22  C   UNL     1       9.282  11.900  17.936  0.00  0.00    +0.000 A 
ATOM     23  C   UNL     1       8.993  13.268  17.965  0.00  0.00    +0.000 A 
ATOM     24  C   UNL     1      10.021  14.203  17.827  0.00  0.00    +0.000 A 
ATOM     25  C   UNL     1      11.329  13.768  17.669  0.00  0.00    +0.000 A 
ATOM     26  F   UNL     1      12.311  14.670  17.537  0.00  0.00    +0.000 F 
ATOM     27  C   UNL     1      11.635  12.414  17.654  0.00  0.00    +0.000 A 
ATOM     28  C   UNL     1      10.608  11.478  17.795  0.00  0.00    +0.000 A 
ENDBRANCH  21  22
ENDBRANCH  20  21
ENDBRANCH  17  20
ENDBRANCH   3  15
TORSDOF 5
ENDMDL
MODEL 3
REMARK VINA RESULT:      -8.9      0.888      1.204
REMARK  Name = 
REMARK  6 active torsions:
REMARK  status: ('A' for Active; 'I' for Inactive)
REMARK    1  A    between atoms: C_1  and  C_2
REMARK    2  A    between atoms: C_4  and  N_5
REMARK    3  A    between atoms: C_7  and  C_8
REMARK    4  A    between atoms: C_10  and  C_11
REMARK    5  A    between atoms: C_11  and  O_12
REMARK    6  A    between atoms: O_12  and  C_13
REMARK                            x       y       z     vdW  Elec       q    Type
REMARK                         _______ _______ _______ _____ _____    ______ ____
ROOT
ATOM      1  N   UNL     1       5.260   4.455  18.031  0.00  0.00    +0.000 N 
ATOM      2  C   UNL     1       6.507   4.402  18.759  0.00  0.00    +0.000 C 
ATOM      3  C   UNL     1       7.553   4.842  17.746  0.00  0.00    +0.000 C 
ATOM      4  C   UNL     1       6.980   4.364  16.422  0.00  0.00    +0.000 C 
ATOM      5  C   UNL     1       5.487   4.417  16.647  0.00  0.00    +0.000 C 
ATOM      6  O   UNL     1       4.682   4.356  15.731  0.00  0.00    +0.000 OA
ENDROOT
BRANCH   1  10
ATOM      7  C   UNL     1       2.203   2.625  21.512  0.00  0.00    +0.000 C 
ATOM      8  C   UNL     1       2.473   3.564  20.377  0.00  0.00    +0.000 A 
ATOM      9  C   UNL     1       3.718   3.570  19.730  0.00  0.00    +0.000 A 
ATOM     10  C   UNL     1       3.994   4.451  18.673  0.00  0.00    +0.000 A 
ATOM     11  C   UNL     1       2.976   5.325  18.260  0.00  0.00    +0.000 A 
ATOM     12  C   UNL     1       1.729   5.326  18.895  0.00  0.00    +0.000 A 
ATOM     13  C   UNL     1       1.489   4.449  19.945  0.00  0.00    +0.000 A 
ATOM     14  F   UNL     1       0.290   4.464  20.543  0.00  0.00    +0.000 F 
ENDBRANCH   1  10
BRANCH   3  15
ATOM     15  C   UNL     1       7.758   6.316  17.798  0.00  0.00    +0.000 A 
ATOM     16  N   UNL     1       8.311   7.026  18.753  0.00  0.00    +0.000 NA
ATOM     17  C   UNL     1       8.249   8.300  18.235  0.00  0.00    +0.000 A 
ATOM     18  N   UNL     1       7.655   8.391  17.039  0.00  0.00    +0.000 NA
ATOM     19  O   UNL     1       7.323   7.070  16.745  0.00  0.00    +0.000 OA
BRANCH  17  20
ATOM     20  C   UNL     1       8.767   9.480  18.976  0.00  0.00    +0.000 C 
BRANCH  20  21
ATOM     21  O   UNL     1       8.768  10.651  18.152  0.00  0.00    +0.000 OA
BRANCH  21  22
ATOM     22  C   UNL     1       9.682  11.610  18.486  0.00  0.00    +0.000 A 
ATOM     23  C   UNL     1      10.351  12.437  17.577  0.00  0.00    +0.000 A 
ATOM     24  C   UNL     1      11.249  13.401  18.038  0.00  0.00    +0.000 A 
ATOM     25  C   UNL     1      11.469  13.539  19.401  0.00  0.00    +0.000 A 
ATOM     26  F   UNL     1      12.333  14.466  19.837  0.00  0.00    +0.000 F 
ATOM     27  C   UNL     1      10.803  12.737  20.317  0.00  0.00    +0.000 A 
ATOM     28  C   UNL     1       9.901  11.775  19.858  0.00  0.00    +0.000 A 
ENDBRANCH  21  22
ENDBRANCH  20  21
ENDBRANCH  17  20
ENDBRANCH   3  15
TORSDOF 5
ENDMDL
MODEL 4
REMARK VINA RESULT:      -8.9      0.662      1.611
REMARK  Name = 
REMARK  6 active torsions:
REMARK  status: ('A' for Active; 'I' for Inactive)
REMARK    1  A    between atoms: C_1  and  C_2
REMARK    2  A    between atoms: C_4  and  N_5
REMARK    3  A    between atoms: C_7  and  C_8
REMARK    4  A    between atoms: C_10  and  C_11
REMARK    5  A    between atoms: C_11  and  O_12
REMARK    6  A    between atoms: O_12  and  C_13
REMARK                            x       y       z     vdW  Elec       q    Type
REMARK                         _______ _______ _______ _____ _____    ______ ____
ROOT
ATOM      1  N   UNL     1       5.233   4.270  17.597  0.00  0.00    +0.000 N 
ATOM      2  C   UNL     1       6.453   4.247  18.372  0.00  0.00    +0.000 C 
ATOM      3  C   UNL     1       7.506   4.817  17.435  0.00  0.00    +0.000 C 
ATOM      4  C   UNL     1       7.017   4.393  16.060  0.00  0.00    +0.000 C 
ATOM      5  C   UNL     1       5.516   4.338  16.224  0.00  0.00    +0.000 C 
ATOM      6  O   UNL     1       4.753   4.286  15.272  0.00  0.00    +0.000 OA
ENDROOT
BRANCH   1  10
ATOM      7  C   UNL     1       1.737   5.961  20.716  0.00  0.00    +0.000 C 
ATOM      8  C   UNL     1       2.213   4.957  19.711  0.00  0.00    +0.000 A 
ATOM      9  C   UNL     1       3.487   5.068  19.134  0.00  0.00    +0.000 A 
ATOM     10  C   UNL     1       3.946   4.145  18.182  0.00  0.00    +0.000 A 
ATOM     11  C   UNL     1       3.096   3.085  17.828  0.00  0.00    +0.000 A 
ATOM     12  C   UNL     1       1.825   2.963  18.398  0.00  0.00    +0.000 A 
ATOM     13  C   UNL     1       1.395   3.897  19.332  0.00  0.00    +0.000 A 
ATOM     14  F   UNL     1       0.174   3.766  19.868  0.00  0.00    +0.000 F 
ENDBRANCH   1  10
BRANCH   3  15
ATOM     15  C   UNL     1       7.613   6.294  17.589  0.00  0.00    +0.000 A 
ATOM     16  N   UNL     1       8.363   6.971  18.425  0.00  0.00    +0.000 NA
ATOM     17  C   UNL     1       8.067   8.272  18.087  0.00  0.00    +0.000 A 
ATOM     18  N   UNL     1       7.152   8.406  17.118  0.00  0.00    +0.000 NA
ATOM     19  O   UNL     1       6.844   7.088  16.786  0.00  0.00    +0.000 OA
BRANCH  17  20
ATOM     20  C   UNL     1       8.689   9.430  18.779  0.00  0.00    +0.000 C 
BRANCH  20  21
ATOM     21  O   UNL     1       8.970  10.495  17.863  0.00  0.00    +0.000 OA
BRANCH  21  22
ATOM     22  C   UNL     1       9.790  11.481  18.334  0.00  0.00    +0.000 A 
ATOM     23  C   UNL     1      10.105  12.661  17.652  0.00  0.00    +0.000 A 
ATOM     24  C   UNL     1      10.938  13.612  18.245  0.00  0.00    +0.000 A 
ATOM     25  C   UNL     1      11.445  13.383  19.516  0.00  0.00    +0.000 A 
ATOM     26  F   UNL     1      12.244  14.299  20.079  0.00  0.00    +0.000 F 
ATOM     27  C   UNL     1      11.131  12.225  20.213  0.00  0.00    +0.000 A 
ATOM     28  C   UNL     1      10.295  11.275  19.622  0.00  0.00    +0.000 A 
ENDBRANCH  21  22
ENDBRANCH  20  21
ENDBRANCH  17  20
ENDBRANCH   3  15
TORSDOF 5
ENDMDL
MODEL 5
REMARK VINA RESULT:      -8.9      1.450      1.656
REMARK  Name = 
REMARK  6 active torsions:
REMARK  status: ('A' for Active; 'I' for Inactive)
REMARK    1  A    between atoms: C_1  and  C_2
REMARK    2  A    between atoms: C_4  and  N_5
REMARK    3  A    between atoms: C_7  and  C_8
REMARK    4  A    between atoms: C_10  and  C_11
REMARK    5  A    between atoms: C_11  and  O_12
REMARK    6  A    between atoms: O_12  and  C_13
REMARK                            x       y       z     vdW  Elec       q    Type
REMARK                         _______ _______ _______ _____ _____    ______ ____
ROOT
ATOM      1  N   UNL     1       5.440   4.512  18.184  0.00  0.00    +0.000 N 
ATOM      2  C   UNL     1       6.559   4.781  19.058  0.00  0.00    +0.000 C 
ATOM      3  C   UNL     1       7.670   5.228  18.120  0.00  0.00    +0.000 C 
ATOM      4  C   UNL     1       7.377   4.463  16.840  0.00  0.00    +0.000 C 
ATOM      5  C   UNL     1       5.874   4.299  16.867  0.00  0.00    +0.000 C 
ATOM      6  O   UNL     1       5.233   3.963  15.884  0.00  0.00    +0.000 OA
ENDROOT
BRANCH   1  10
ATOM      7  C   UNL     1       2.200   2.803  21.560  0.00  0.00    +0.000 C 
ATOM      8  C   UNL     1       2.495   3.562  20.303  0.00  0.00    +0.000 A 
ATOM      9  C   UNL     1       3.808   3.677  19.824  0.00  0.00    +0.000 A 
ATOM     10  C   UNL     1       4.106   4.394  18.655  0.00  0.00    +0.000 A 
ATOM     11  C   UNL     1       3.042   4.988  17.958  0.00  0.00    +0.000 A 
ATOM     12  C   UNL     1       1.728   4.879  18.424  0.00  0.00    +0.000 A 
ATOM     13  C   UNL     1       1.466   4.170  19.589  0.00  0.00    +0.000 A 
ATOM     14  F   UNL     1       0.201   4.076  20.021  0.00  0.00    +0.000 F 
ENDBRANCH   1  10
BRANCH   3  15
ATOM     15  C   UNL     1       7.649   6.705  17.938  0.00  0.00    +0.000 A 
ATOM     16  N   UNL     1       8.382   7.609  18.544  0.00  0.00    +0.000 NA
ATOM     17  C   UNL     1       7.949   8.774  17.953  0.00  0.00    +0.000 A 
ATOM     18  N   UNL     1       6.971   8.616  17.052  0.00  0.00    +0.000 NA
ATOM     19  O   UNL     1       6.766   7.237  17.041  0.00  0.00    +0.000 OA
BRANCH  17  20
ATOM     20  C   UNL     1       8.502  10.102  18.324  0.00  0.00    +0.000 C 
BRANCH  20  21
ATOM     21  O   UNL     1       9.432   9.994  19.408  0.00  0.00    +0.000 OA
BRANCH  21  22
ATOM     22  C   UNL     1       9.793  11.172  19.999  0.00  0.00    +0.000 A 
ATOM     23  C   UNL     1      10.778  12.043  19.521  0.00  0.00    +0.000 A 
ATOM     24  C   UNL     1      11.046  13.235  20.198  0.00  0.00    +0.000 A 
ATOM     25  C   UNL     1      10.326  13.552  21.341  0.00  0.00    +0.000 A 
ATOM     26  F   UNL     1      10.588  14.697  21.985  0.00  0.00    +0.000 F 
ATOM     27  C   UNL     1       9.335  12.706  21.819  0.00  0.00    +0.000 A 
ATOM     28  C   UNL     1       9.063  11.516  21.141  0.00  0.00    +0.000 A 
ENDBRANCH  21  22
ENDBRANCH  20  21
ENDBRANCH  17  20
ENDBRANCH   3  15
TORSDOF 5
ENDMDL
MODEL 6
REMARK VINA RESULT:      -8.8      0.694      1.337
REMARK  Name = 
REMARK  6 active torsions:
REMARK  status: ('A' for Active; 'I' for Inactive)
REMARK    1  A    between atoms: C_1  and  C_2
REMARK    2  A    between atoms: C_4  and  N_5
REMARK    3  A    between atoms: C_7  and  C_8
REMARK    4  A    between atoms: C_10  and  C_11
REMARK    5  A    between atoms: C_11  and  O_12
REMARK    6  A    between atoms: O_12  and  C_13
REMARK                            x       y       z     vdW  Elec       q    Type
REMARK                         _______ _______ _______ _____ _____    ______ ____
ROOT
ATOM      1  N   UNL     1       5.385   4.314  18.088  0.00  0.00    +0.000 N 
ATOM      2  C   UNL     1       6.720   4.310  18.642  0.00  0.00    +0.000 C 
ATOM      3  C   UNL     1       7.590   4.881  17.534  0.00  0.00    +0.000 C 
ATOM      4  C   UNL     1       6.877   4.439  16.266  0.00  0.00    +0.000 C 
ATOM      5  C   UNL     1       5.427   4.371  16.687  0.00  0.00    +0.000 C 
ATOM      6  O   UNL     1       4.512   4.304  15.881  0.00  0.00    +0.000 OA
ENDROOT
BRANCH   1  10
ATOM      7  C   UNL     1       1.649   6.405  20.634  0.00  0.00    +0.000 C 
ATOM      8  C   UNL     1       2.374   5.189  20.145  0.00  0.00    +0.000 A 
ATOM      9  C   UNL     1       3.533   5.309  19.364  0.00  0.00    +0.000 A 
ATOM     10  C   UNL     1       4.219   4.182  18.886  0.00  0.00    +0.000 A 
ATOM     11  C   UNL     1       3.722   2.914  19.229  0.00  0.00    +0.000 A 
ATOM     12  C   UNL     1       2.570   2.781  20.010  0.00  0.00    +0.000 A 
ATOM     13  C   UNL     1       1.908   3.916  20.460  0.00  0.00    +0.000 A 
ATOM     14  F   UNL     1       0.804   3.770  21.207  0.00  0.00    +0.000 F 
ENDBRANCH   1  10
BRANCH   3  15
ATOM     15  C   UNL     1       7.706   6.360  17.656  0.00  0.00    +0.000 A 
ATOM     16  N   UNL     1       8.342   7.052  18.571  0.00  0.00    +0.000 NA
ATOM     17  C   UNL     1       8.126   8.346  18.154  0.00  0.00    +0.000 A 
ATOM     18  N   UNL     1       7.363   8.462  17.059  0.00  0.00    +0.000 NA
ATOM     19  O   UNL     1       7.078   7.140  16.726  0.00  0.00    +0.000 OA
BRANCH  17  20
ATOM     20  C   UNL     1       8.668   9.516  18.893  0.00  0.00    +0.000 C 
BRANCH  20  21
ATOM     21  O   UNL     1       8.971  10.597  18.005  0.00  0.00    +0.000 OA
BRANCH  21  22
ATOM     22  C   UNL     1       9.817  11.550  18.499  0.00  0.00    +0.000 A 
ATOM     23  C   UNL     1      10.600  11.413  19.650  0.00  0.00    +0.000 A 
ATOM     24  C   UNL     1      11.448  12.448  20.047  0.00  0.00    +0.000 A 
ATOM     25  C   UNL     1      11.517  13.609  19.289  0.00  0.00    +0.000 A 
ATOM     26  F   UNL     1      12.333  14.598  19.675  0.00  0.00    +0.000 F 
ATOM     27  C   UNL     1      10.759  13.755  18.136  0.00  0.00    +0.000 A 
ATOM     28  C   UNL     1       9.912  12.718  17.736  0.00  0.00    +0.000 A 
ENDBRANCH  21  22
ENDBRANCH  20  21
ENDBRANCH  17  20
ENDBRANCH   3  15
TORSDOF 5
ENDMDL
MODEL 7
REMARK VINA RESULT:      -8.8      1.554      1.863
REMARK  Name = 
REMARK  6 active torsions:
REMARK  status: ('A' for Active; 'I' for Inactive)
REMARK    1  A    between atoms: C_1  and  C_2
REMARK    2  A    between atoms: C_4  and  N_5
REMARK    3  A    between atoms: C_7  and  C_8
REMARK    4  A    between atoms: C_10  and  C_11
REMARK    5  A    between atoms: C_11  and  O_12
REMARK    6  A    between atoms: O_12  and  C_13
REMARK                            x       y       z     vdW  Elec       q    Type
REMARK                         _______ _______ _______ _____ _____    ______ ____
ROOT
ATOM      1  N   UNL     1       3.799   5.721  17.634  0.00  0.00    +0.000 N 
ATOM      2  C   UNL     1       4.904   5.122  16.920  0.00  0.00    +0.000 C 
ATOM      3  C   UNL     1       5.641   6.303  16.307  0.00  0.00    +0.000 C 
ATOM      4  C   UNL     1       4.534   7.315  16.059  0.00  0.00    +0.000 C 
ATOM      5  C   UNL     1       3.531   7.009  17.148  0.00  0.00    +0.000 C 
ATOM      6  O   UNL     1       2.627   7.776  17.441  0.00  0.00    +0.000 OA
ENDROOT
BRANCH   1  10
ATOM      7  C   UNL     1       0.594   2.111  18.862  0.00  0.00    +0.000 C 
ATOM      8  C   UNL     1       1.477   3.258  19.248  0.00  0.00    +0.000 A 
ATOM      9  C   UNL     1       2.211   3.957  18.278  0.00  0.00    +0.000 A 
ATOM     10  C   UNL     1       3.053   5.026  18.621  0.00  0.00    +0.000 A 
ATOM     11  C   UNL     1       3.131   5.395  19.973  0.00  0.00    +0.000 A 
ATOM     12  C   UNL     1       2.402   4.708  20.949  0.00  0.00    +0.000 A 
ATOM     13  C   UNL     1       1.584   3.648  20.579  0.00  0.00    +0.000 A 
ATOM     14  F   UNL     1       0.893   3.000  21.527  0.00  0.00    +0.000 F 
ENDBRANCH   1  10
BRANCH   3  15
ATOM     15  C   UNL     1       6.700   6.805  17.224  0.00  0.00    +0.000 A 
ATOM     16  N   UNL     1       7.201   8.015  17.302  0.00  0.00    +0.000 NA
ATOM     17  C   UNL     1       8.102   7.887  18.334  0.00  0.00    +0.000 A 
ATOM     18  N   UNL     1       8.191   6.655  18.852  0.00  0.00    +0.000 NA
ATOM     19  O   UNL     1       7.259   5.930  18.112  0.00  0.00    +0.000 OA
BRANCH  17  20
ATOM     20  C   UNL     1       8.936   9.025  18.801  0.00  0.00    +0.000 C 
BRANCH  20  21
ATOM     21  O   UNL     1       8.585  10.238  18.126  0.00  0.00    +0.000 OA
BRANCH  21  22
ATOM     22  C   UNL     1       9.462  11.275  18.277  0.00  0.00    +0.000 A 
ATOM     23  C   UNL     1      10.704  11.193  18.916  0.00  0.00    +0.000 A 
ATOM     24  C   UNL     1      11.529  12.317  18.990  0.00  0.00    +0.000 A 
ATOM     25  C   UNL     1      11.114  13.512  18.419  0.00  0.00    +0.000 A 
ATOM     26  F   UNL     1      11.911  14.587  18.494  0.00  0.00    +0.000 F 
ATOM     27  C   UNL     1       9.892  13.607  17.768  0.00  0.00    +0.000 A 
ATOM     28  C   UNL     1       9.067  12.482  17.691  0.00  0.00    +0.000 A 
ENDBRANCH  21  22
ENDBRANCH  20  21
ENDBRANCH  17  20
ENDBRANCH   3  15
TORSDOF 5
ENDMDL
MODEL 8
REMARK VINA RESULT:      -8.8      1.066      1.320
REMARK  Name = 
REMARK  6 active torsions:
REMARK  status: ('A' for Active; 'I' for Inactive)
REMARK    1  A    between atoms: C_1  and  C_2
REMARK    2  A    between atoms: C_4  and  N_5
REMARK    3  A    between atoms: C_7  and  C_8
REMARK    4  A    between atoms: C_10  and  C_11
REMARK    5  A    between atoms: C_11  and  O_12
REMARK    6  A    between atoms: O_12  and  C_13
REMARK                            x       y       z     vdW  Elec       q    Type
REMARK                         _______ _______ _______ _____ _____    ______ ____
ROOT
ATOM      1  N   UNL     1       5.332   4.413  17.889  0.00  0.00    +0.000 N 
ATOM      2  C   UNL     1       6.536   4.505  18.683  0.00  0.00    +0.000 C 
ATOM      3  C   UNL     1       7.587   5.028  17.717  0.00  0.00    +0.000 C 
ATOM      4  C   UNL     1       7.141   4.465  16.377  0.00  0.00    +0.000 C 
ATOM      5  C   UNL     1       5.640   4.369  16.520  0.00  0.00    +0.000 C 
ATOM      6  O   UNL     1       4.898   4.205  15.564  0.00  0.00    +0.000 OA
ENDROOT
BRANCH   1  10
ATOM      7  C   UNL     1       2.387   2.815  21.574  0.00  0.00    +0.000 C 
ATOM      8  C   UNL     1       2.572   3.513  20.262  0.00  0.00    +0.000 A 
ATOM      9  C   UNL     1       3.844   3.631  19.683  0.00  0.00    +0.000 A 
ATOM     10  C   UNL     1       4.039   4.292  18.461  0.00  0.00    +0.000 A 
ATOM     11  C   UNL     1       2.913   4.825  17.813  0.00  0.00    +0.000 A 
ATOM     12  C   UNL     1       1.639   4.712  18.379  0.00  0.00    +0.000 A 
ATOM     13  C   UNL     1       1.480   4.060  19.595  0.00  0.00    +0.000 A 
ATOM     14  F   UNL     1       0.252   3.961  20.122  0.00  0.00    +0.000 F 
ENDBRANCH   1  10
BRANCH   3  15
ATOM     15  C   UNL     1       7.637   6.516  17.740  0.00  0.00    +0.000 A 
ATOM     16  N   UNL     1       8.361   7.292  18.511  0.00  0.00    +0.000 NA
ATOM     17  C   UNL     1       8.016   8.546  18.060  0.00  0.00    +0.000 A 
ATOM     18  N   UNL     1       7.097   8.559  17.086  0.00  0.00    +0.000 NA
ATOM     19  O   UNL     1       6.839   7.207  16.871  0.00  0.00    +0.000 OA
BRANCH  17  20
ATOM     20  C   UNL     1       8.593   9.784  18.646  0.00  0.00    +0.000 C 
BRANCH  20  21
ATOM     21  O   UNL     1       9.641  10.309  17.823  0.00  0.00    +0.000 OA
BRANCH  21  22
ATOM     22  C   UNL     1       9.858  11.654  17.927  0.00  0.00    +0.000 A 
ATOM     23  C   UNL     1      11.116  12.267  17.959  0.00  0.00    +0.000 A 
ATOM     24  C   UNL     1      11.215  13.657  18.043  0.00  0.00    +0.000 A 
ATOM     25  C   UNL     1      10.061  14.426  18.089  0.00  0.00    +0.000 A 
ATOM     26  F   UNL     1      10.164  15.760  18.171  0.00  0.00    +0.000 F 
ATOM     27  C   UNL     1       8.806  13.836  18.043  0.00  0.00    +0.000 A 
ATOM     28  C   UNL     1       8.705  12.446  17.955  0.00  0.00    +0.000 A 
ENDBRANCH  21  22
ENDBRANCH  20  21
ENDBRANCH  17  20
ENDBRANCH   3  15
TORSDOF 5
ENDMDL
MODEL 9
REMARK VINA RESULT:      -8.7      5.690      7.974
REMARK  Name = 
REMARK  6 active torsions:
REMARK  status: ('A' for Active; 'I' for Inactive)
REMARK    1  A    between atoms: C_1  and  C_2
REMARK    2  A    between atoms: C_4  and  N_5
REMARK    3  A    between atoms: C_7  and  C_8
REMARK    4  A    between atoms: C_10  and  C_11
REMARK    5  A    between atoms: C_11  and  O_12
REMARK    6  A    between atoms: O_12  and  C_13
REMARK                            x       y       z     vdW  Elec       q    Type
REMARK                         _______ _______ _______ _____ _____    ______ ____
ROOT
ATOM      1  N   UNL     1       2.987   5.531  18.940  0.00  0.00    +0.000 N 
ATOM      2  C   UNL     1       4.133   5.106  19.712  0.00  0.00    +0.000 C 
ATOM      3  C   UNL     1       4.626   3.857  18.998  0.00  0.00    +0.000 C 
ATOM      4  C   UNL     1       3.355   3.262  18.416  0.00  0.00    +0.000 C 
ATOM      5  C   UNL     1       2.482   4.471  18.172  0.00  0.00    +0.000 C 
ATOM      6  O   UNL     1       1.482   4.429  17.473  0.00  0.00    +0.000 OA
ENDROOT
BRANCH   1  10
ATOM      7  C   UNL     1       0.681   9.015  21.652  0.00  0.00    +0.000 C 
ATOM      8  C   UNL     1       1.290   8.558  20.363  0.00  0.00    +0.000 A 
ATOM      9  C   UNL     1       1.840   7.272  20.244  0.00  0.00    +0.000 A 
ATOM     10  C   UNL     1       2.426   6.830  19.048  0.00  0.00    +0.000 A 
ATOM     11  C   UNL     1       2.434   7.710  17.953  0.00  0.00    +0.000 A 
ATOM     12  C   UNL     1       1.887   8.993  18.059  0.00  0.00    +0.000 A 
ATOM     13  C   UNL     1       1.322   9.404  19.259  0.00  0.00    +0.000 A 
ATOM     14  F   UNL     1       0.803  10.637  19.343  0.00  0.00    +0.000 F 
ENDBRANCH   1  10
BRANCH   3  15
ATOM     15  C   UNL     1       5.639   4.201  17.963  0.00  0.00    +0.000 A 
ATOM     16  N   UNL     1       5.448   4.447  16.688  0.00  0.00    +0.000 NA
ATOM     17  C   UNL     1       6.723   4.729  16.256  0.00  0.00    +0.000 A 
ATOM     18  N   UNL     1       7.670   4.629  17.197  0.00  0.00    +0.000 NA
ATOM     19  O   UNL     1       6.951   4.274  18.337  0.00  0.00    +0.000 OA
BRANCH  17  20
ATOM     20  C   UNL     1       7.020   5.076  14.841  0.00  0.00    +0.000 C 
BRANCH  20  21
ATOM     21  O   UNL     1       5.855   4.943  14.018  0.00  0.00    +0.000 OA
BRANCH  21  22
ATOM     22  C   UNL     1       5.906   3.956  13.074  0.00  0.00    +0.000 A 
ATOM     23  C   UNL     1       4.793   3.333  12.500  0.00  0.00    +0.000 A 
ATOM     24  C   UNL     1       4.967   2.350  11.524  0.00  0.00    +0.000 A 
ATOM     25  C   UNL     1       6.249   2.001  11.122  0.00  0.00    +0.000 A 
ATOM     26  F   UNL     1       6.409   1.057  10.185  0.00  0.00    +0.000 F 
ATOM     27  C   UNL     1       7.363   2.620  11.671  0.00  0.00    +0.000 A 
ATOM     28  C   UNL     1       7.190   3.606  12.645  0.00  0.00    +0.000 A 
ENDBRANCH  21  22
ENDBRANCH  20  21
ENDBRANCH  17  20
ENDBRANCH   3  15
TORSDOF 5
ENDMDL
