MODEL 1
REMARK VINA RESULT:      -8.9      0.000      0.000
REMARK  Name = 
REMARK  5 active torsions:
REMARK  status: ('A' for Active; 'I' for Inactive)
REMARK    1  A    between atoms: C_1  and  C_2
REMARK    2  A    between atoms: C_7  and  C_8
REMARK    3  A    between atoms: C_8  and  N_9
REMARK    4  A    between atoms: N_9  and  C_10
REMARK    5  A    between atoms: N_18  and  C_19
REMARK                            x       y       z     vdW  Elec       q    Type
REMARK                         _______ _______ _______ _____ _____    ______ ____
ROOT
ATOM      1  N   UNL     1       8.679   9.965  18.914  0.00  0.00    +0.000 N 
ATOM      2  H   UNL     1       8.645   9.315  19.699  0.00  0.00    +0.000 HD
ENDROOT
BRANCH   1   3
ATOM      3  C   UNL     1       9.721  10.885  19.078  0.00  0.00    +0.000 A 
ATOM      4  C   UNL     1      10.246  11.259  20.337  0.00  0.00    +0.000 A 
ATOM      5  C   UNL     1      11.108  12.361  20.473  0.00  0.00    +0.000 A 
ATOM      6  C   UNL     1      11.460  13.020  19.316  0.00  0.00    +0.000 A 
ATOM      7  C   UNL     1      11.137  12.507  18.077  0.00  0.00    +0.000 A 
ATOM      8  C   UNL     1      10.285  11.437  17.924  0.00  0.00    +0.000 A 
ATOM      9  C   UNL     1      11.507  13.479  17.065  0.00  0.00    +0.000 C 
ATOM     10  O   UNL     1      11.459  13.277  15.868  0.00  0.00    +0.000 OA
ATOM     11  N   UNL     1      11.805  14.624  17.742  0.00  0.00    +0.000 N 
ATOM     12  C   UNL     1      11.627  15.907  17.102  0.00  0.00    +0.000 C 
ATOM     13  C   UNL     1      11.872  14.416  19.098  0.00  0.00    +0.000 C 
ATOM     14  O   UNL     1      12.074  15.214  19.995  0.00  0.00    +0.000 OA
ENDBRANCH   1   3
BRANCH   1  15
ATOM     15  C   UNL     1       8.574   9.242  17.644  0.00  0.00    +0.000 C 
BRANCH  15  22
ATOM     16  C   UNL     1       3.985   2.814  17.636  0.00  0.00    +0.000 C 
ATOM     17  C   UNL     1       4.781   4.081  17.504  0.00  0.00    +0.000 A 
ATOM     18  C   UNL     1       4.476   4.969  16.392  0.00  0.00    +0.000 A 
ATOM     19  C   UNL     1       5.156   6.111  16.232  0.00  0.00    +0.000 A 
ATOM     20  C   UNL     1       6.233   6.477  17.191  0.00  0.00    +0.000 A 
ATOM     21  N   UNL     1       6.875   7.588  17.007  0.00  0.00    +0.000 NA
ATOM     22  C   UNL     1       7.864   7.919  17.900  0.00  0.00    +0.000 A 
ATOM     23  C   UNL     1       8.206   7.136  18.930  0.00  0.00    +0.000 A 
ATOM     24  C   UNL     1       7.478   5.876  19.150  0.00  0.00    +0.000 A 
ATOM     25  O   UNL     1       7.789   5.174  20.112  0.00  0.00    +0.000 OA
ATOM     26  N   UNL     1       6.483   5.592  18.228  0.00  0.00    +0.000 N 
ATOM     27  C   UNL     1       5.761   4.417  18.360  0.00  0.00    +0.000 A 
ENDBRANCH  15  22
ENDBRANCH   1  15
TORSDOF 3
ENDMDL
MODEL 2
REMARK VINA RESULT:      -8.7      7.419      9.004
REMARK  Name = 
REMARK  5 active torsions:
REMARK  status: ('A' for Active; 'I' for Inactive)
REMARK    1  A    between atoms: C_1  and  C_2
REMARK    2  A    between atoms: C_7  and  C_8
REMARK    3  A    between atoms: C_8  and  N_9
REMARK    4  A    between atoms: N_9  and  C_10
REMARK    5  A    between atoms: N_18  and  C_19
REMARK                            x       y       z     vdW  Elec       q    Type
REMARK                         _______ _______ _______ _____ _____    ______ ____
ROOT
ATOM      1  N   UNL     1       2.257   7.517  20.551  0.00  0.00    +0.000 N 
ATOM      2  H   UNL     1       3.084   7.657  19.972  0.00  0.00    +0.000 HD
ENDROOT
BRANCH   1   3
ATOM      3  C   UNL     1       1.319   8.531  20.328  0.00  0.00    +0.000 A 
ATOM      4  C   UNL     1       1.107   9.140  19.068  0.00  0.00    +0.000 A 
ATOM      5  C   UNL     1       0.346  10.315  18.941  0.00  0.00    +0.000 A 
ATOM      6  C   UNL     1      -0.229  10.809  20.091  0.00  0.00    +0.000 A 
ATOM      7  C   UNL     1      -0.215  10.083  21.264  0.00  0.00    +0.000 A 
ATOM      8  C   UNL     1       0.535   8.938  21.410  0.00  0.00    +0.000 A 
ATOM      9  C   UNL     1      -0.760  10.911  22.324  0.00  0.00    +0.000 C 
ATOM     10  O   UNL     1      -0.992  10.519  23.451  0.00  0.00    +0.000 OA
ATOM     11  N   UNL     1      -0.850  12.168  21.805  0.00  0.00    +0.000 N 
ATOM     12  C   UNL     1      -0.765  13.315  22.678  0.00  0.00    +0.000 C 
ATOM     13  C   UNL     1      -0.619  12.182  20.451  0.00  0.00    +0.000 C 
ATOM     14  O   UNL     1      -0.579  13.124  19.681  0.00  0.00    +0.000 OA
ENDBRANCH   1   3
BRANCH   1  15
ATOM     15  C   UNL     1       1.812   6.123  20.482  0.00  0.00    +0.000 C 
BRANCH  15  22
ATOM     16  C   UNL     1       6.230   4.062  14.268  0.00  0.00    +0.000 C 
ATOM     17  C   UNL     1       5.431   4.605  15.418  0.00  0.00    +0.000 A 
ATOM     18  C   UNL     1       5.417   6.046  15.622  0.00  0.00    +0.000 A 
ATOM     19  C   UNL     1       4.719   6.580  16.632  0.00  0.00    +0.000 A 
ATOM     20  C   UNL     1       3.955   5.699  17.556  0.00  0.00    +0.000 A 
ATOM     21  N   UNL     1       3.291   6.246  18.526  0.00  0.00    +0.000 NA
ATOM     22  C   UNL     1       2.585   5.425  19.370  0.00  0.00    +0.000 A 
ATOM     23  C   UNL     1       2.574   4.092  19.249  0.00  0.00    +0.000 A 
ATOM     24  C   UNL     1       3.320   3.464  18.147  0.00  0.00    +0.000 A 
ATOM     25  O   UNL     1       3.287   2.239  18.034  0.00  0.00    +0.000 OA
ATOM     26  N   UNL     1       4.008   4.335  17.317  0.00  0.00    +0.000 N 
ATOM     27  C   UNL     1       4.744   3.818  16.264  0.00  0.00    +0.000 A 
ENDBRANCH  15  22
ENDBRANCH   1  15
TORSDOF 3
ENDMDL
MODEL 3
REMARK VINA RESULT:      -8.6      7.155     10.291
REMARK  Name = 
REMARK  5 active torsions:
REMARK  status: ('A' for Active; 'I' for Inactive)
REMARK    1  A    between atoms: C_1  and  C_2
REMARK    2  A    between atoms: C_7  and  C_8
REMARK    3  A    between atoms: C_8  and  N_9
REMARK    4  A    between atoms: N_9  and  C_10
REMARK    5  A    between atoms: N_18  and  C_19
REMARK                            x       y       z     vdW  Elec       q    Type
REMARK                         _______ _______ _______ _____ _____    ______ ____
ROOT
ATOM      1  N   UNL     1       1.725   8.619  19.372  0.00  0.00    +0.000 N 
ATOM      2  H   UNL     1       0.885   8.506  19.937  0.00  0.00    +0.000 HD
ENDROOT
BRANCH   1   3
ATOM      3  C   UNL     1       2.331   7.381  19.131  0.00  0.00    +0.000 A 
ATOM      4  C   UNL     1       2.163   6.250  19.965  0.00  0.00    +0.000 A 
ATOM      5  C   UNL     1       2.980   5.114  19.832  0.00  0.00    +0.000 A 
ATOM      6  C   UNL     1       3.909   5.133  18.815  0.00  0.00    +0.000 A 
ATOM      7  C   UNL     1       3.904   6.132  17.863  0.00  0.00    +0.000 A 
ATOM      8  C   UNL     1       3.120   7.257  17.984  0.00  0.00    +0.000 A 
ATOM      9  C   UNL     1       5.071   5.967  17.017  0.00  0.00    +0.000 C 
ATOM     10  O   UNL     1       5.289   6.618  16.014  0.00  0.00    +0.000 OA
ATOM     11  N   UNL     1       5.851   5.038  17.638  0.00  0.00    +0.000 N 
ATOM     12  C   UNL     1       7.283   5.057  17.448  0.00  0.00    +0.000 C 
ATOM     13  C   UNL     1       5.197   4.434  18.684  0.00  0.00    +0.000 C 
ATOM     14  O   UNL     1       5.601   3.598  19.471  0.00  0.00    +0.000 OA
ENDBRANCH   1   3
BRANCH   1  15
ATOM     15  C   UNL     1       1.461   9.504  18.234  0.00  0.00    +0.000 C 
BRANCH  15  22
ATOM     16  C   UNL     1      -5.950  12.184  17.712  0.00  0.00    +0.000 C 
ATOM     17  C   UNL     1      -4.565  11.605  17.669  0.00  0.00    +0.000 A 
ATOM     18  C   UNL     1      -4.184  10.826  16.500  0.00  0.00    +0.000 A 
ATOM     19  C   UNL     1      -2.961  10.290  16.413  0.00  0.00    +0.000 A 
ATOM     20  C   UNL     1      -1.982  10.485  17.518  0.00  0.00    +0.000 A 
ATOM     21  N   UNL     1      -0.806   9.951  17.405  0.00  0.00    +0.000 NA
ATOM     22  C   UNL     1       0.091  10.141  18.426  0.00  0.00    +0.000 A 
ATOM     23  C   UNL     1      -0.204  10.829  19.535  0.00  0.00    +0.000 A 
ATOM     24  C   UNL     1      -1.534  11.444  19.668  0.00  0.00    +0.000 A 
ATOM     25  O   UNL     1      -1.788  12.091  20.685  0.00  0.00    +0.000 OA
ATOM     26  N   UNL     1      -2.400  11.232  18.607  0.00  0.00    +0.000 N 
ATOM     27  C   UNL     1      -3.676  11.769  18.664  0.00  0.00    +0.000 A 
ENDBRANCH  15  22
ENDBRANCH   1  15
TORSDOF 3
ENDMDL
MODEL 4
REMARK VINA RESULT:      -8.3      7.587     10.928
REMARK  Name = 
REMARK  5 active torsions:
REMARK  status: ('A' for Active; 'I' for Inactive)
REMARK    1  A    between atoms: C_1  and  C_2
REMARK    2  A    between atoms: C_7  and  C_8
REMARK    3  A    between atoms: C_8  and  N_9
REMARK    4  A    between atoms: N_9  and  C_10
REMARK    5  A    between atoms: N_18  and  C_19
REMARK                            x       y       z     vdW  Elec       q    Type
REMARK                         _______ _______ _______ _____ _____    ______ ____
ROOT
ATOM      1  N   UNL     1       1.192   8.940  18.361  0.00  0.00    +0.000 N 
ATOM      2  H   UNL     1       0.778   8.944  17.430  0.00  0.00    +0.000 HD
ENDROOT
BRANCH   1   3
ATOM      3  C   UNL     1       2.231   8.005  18.438  0.00  0.00    +0.000 A 
ATOM      4  C   UNL     1       3.307   7.953  17.521  0.00  0.00    +0.000 A 
ATOM      5  C   UNL     1       4.184   6.855  17.482  0.00  0.00    +0.000 A 
ATOM      6  C   UNL     1       3.979   5.864  18.416  0.00  0.00    +0.000 A 
ATOM      7  C   UNL     1       3.083   6.034  19.452  0.00  0.00    +0.000 A 
ATOM      8  C   UNL     1       2.209   7.097  19.499  0.00  0.00    +0.000 A 
ATOM      9  C   UNL     1       2.978   4.784  20.180  0.00  0.00    +0.000 C 
ATOM     10  O   UNL     1       2.359   4.643  21.217  0.00  0.00    +0.000 OA
ATOM     11  N   UNL     1       3.617   3.854  19.415  0.00  0.00    +0.000 N 
ATOM     12  C   UNL     1       3.220   2.467  19.487  0.00  0.00    +0.000 C 
ATOM     13  C   UNL     1       4.307   4.430  18.377  0.00  0.00    +0.000 C 
ATOM     14  O   UNL     1       4.948   3.903  17.486  0.00  0.00    +0.000 OA
ENDBRANCH   1   3
BRANCH   1  15
ATOM     15  C   UNL     1       1.446  10.310  18.816  0.00  0.00    +0.000 C 
BRANCH  15  22
ATOM     16  C   UNL     1      -3.881  12.665  24.151  0.00  0.00    +0.000 C 
ATOM     17  C   UNL     1      -2.951  12.302  23.029  0.00  0.00    +0.000 A 
ATOM     18  C   UNL     1      -3.221  12.854  21.709  0.00  0.00    +0.000 A 
ATOM     19  C   UNL     1      -2.421  12.562  20.677  0.00  0.00    +0.000 A 
ATOM     20  C   UNL     1      -1.250  11.665  20.873  0.00  0.00    +0.000 A 
ATOM     21  N   UNL     1      -0.495  11.399  19.853  0.00  0.00    +0.000 NA
ATOM     22  C   UNL     1       0.586  10.575  20.046  0.00  0.00    +0.000 A 
ATOM     23  C   UNL     1       0.877  10.020  21.228  0.00  0.00    +0.000 A 
ATOM     24  C   UNL     1       0.029  10.322  22.393  0.00  0.00    +0.000 A 
ATOM     25  O   UNL     1       0.318   9.821  23.479  0.00  0.00    +0.000 OA
ATOM     26  N   UNL     1      -1.043  11.166  22.149  0.00  0.00    +0.000 N 
ATOM     27  C   UNL     1      -1.895  11.487  23.193  0.00  0.00    +0.000 A 
ENDBRANCH  15  22
ENDBRANCH   1  15
TORSDOF 3
ENDMDL
MODEL 5
REMARK VINA RESULT:      -8.3      7.413      9.477
REMARK  Name = 
REMARK  5 active torsions:
REMARK  status: ('A' for Active; 'I' for Inactive)
REMARK    1  A    between atoms: C_1  and  C_2
REMARK    2  A    between atoms: C_7  and  C_8
REMARK    3  A    between atoms: C_8  and  N_9
REMARK    4  A    between atoms: N_9  and  C_10
REMARK    5  A    between atoms: N_18  and  C_19
REMARK                            x       y       z     vdW  Elec       q    Type
REMARK                         _______ _______ _______ _____ _____    ______ ____
ROOT
ATOM      1  N   UNL     1       1.497   8.334  20.429  0.00  0.00    +0.000 N 
ATOM      2  H   UNL     1       1.238   8.405  19.445  0.00  0.00    +0.000 HD
ENDROOT
BRANCH   1   3
ATOM      3  C   UNL     1       0.826   9.299  21.189  0.00  0.00    +0.000 A 
ATOM      4  C   UNL     1       0.485   9.126  22.551  0.00  0.00    +0.000 A 
ATOM      5  C   UNL     1      -0.400  10.002  23.202  0.00  0.00    +0.000 A 
ATOM      6  C   UNL     1      -0.873  11.066  22.466  0.00  0.00    +0.000 A 
ATOM      7  C   UNL     1      -0.353  11.360  21.222  0.00  0.00    +0.000 A 
ATOM      8  C   UNL     1       0.505  10.507  20.565  0.00  0.00    +0.000 A 
ATOM      9  C   UNL     1      -1.137  12.431  20.637  0.00  0.00    +0.000 C 
ATOM     10  O   UNL     1      -0.860  12.996  19.597  0.00  0.00    +0.000 OA
ATOM     11  N   UNL     1      -2.233  12.568  21.436  0.00  0.00    +0.000 N 
ATOM     12  C   UNL     1      -3.470  13.067  20.882  0.00  0.00    +0.000 C 
ATOM     13  C   UNL     1      -2.119  11.839  22.594  0.00  0.00    +0.000 C 
ATOM     14  O   UNL     1      -2.916  11.698  23.503  0.00  0.00    +0.000 OA
ENDBRANCH   1   3
BRANCH   1  15
ATOM     15  C   UNL     1       1.452   6.937  20.871  0.00  0.00    +0.000 C 
BRANCH  15  22
ATOM     16  C   UNL     1       5.939   4.032  15.056  0.00  0.00    +0.000 C 
ATOM     17  C   UNL     1       5.131   4.730  16.112  0.00  0.00    +0.000 A 
ATOM     18  C   UNL     1       5.141   6.185  16.132  0.00  0.00    +0.000 A 
ATOM     19  C   UNL     1       4.435   6.854  17.052  0.00  0.00    +0.000 A 
ATOM     20  C   UNL     1       3.638   6.110  18.065  0.00  0.00    +0.000 A 
ATOM     21  N   UNL     1       2.968   6.787  18.945  0.00  0.00    +0.000 NA
ATOM     22  C   UNL     1       2.231   6.091  19.872  0.00  0.00    +0.000 A 
ATOM     23  C   UNL     1       2.197   4.755  19.919  0.00  0.00    +0.000 A 
ATOM     24  C   UNL     1       2.950   3.979  18.920  0.00  0.00    +0.000 A 
ATOM     25  O   UNL     1       2.895   2.750  18.962  0.00  0.00    +0.000 OA
ATOM     26  N   UNL     1       3.669   4.727  18.001  0.00  0.00    +0.000 N 
ATOM     27  C   UNL     1       4.413   4.068  17.036  0.00  0.00    +0.000 A 
ENDBRANCH  15  22
ENDBRANCH   1  15
TORSDOF 3
ENDMDL
MODEL 6
REMARK VINA RESULT:      -8.3      1.590      1.671
REMARK  Name = 
REMARK  5 active torsions:
REMARK  status: ('A' for Active; 'I' for Inactive)
REMARK    1  A    between atoms: C_1  and  C_2
REMARK    2  A    between atoms: C_7  and  C_8
REMARK    3  A    between atoms: C_8  and  N_9
REMARK    4  A    between atoms: N_9  and  C_10
REMARK    5  A    between atoms: N_18  and  C_19
REMARK                            x       y       z     vdW  Elec       q    Type
REMARK                         _______ _______ _______ _____ _____    ______ ____
ROOT
ATOM      1  N   UNL     1       8.586   9.811  18.484  0.00  0.00    +0.000 N 
ATOM      2  H   UNL     1       8.971   9.246  19.240  0.00  0.00    +0.000 HD
ENDROOT
BRANCH   1   3
ATOM      3  C   UNL     1       9.320  10.992  18.324  0.00  0.00    +0.000 A 
ATOM      4  C   UNL     1      10.722  11.072  18.495  0.00  0.00    +0.000 A 
ATOM      5  C   UNL     1      11.381  12.311  18.575  0.00  0.00    +0.000 A 
ATOM      6  C   UNL     1      10.604  13.438  18.420  0.00  0.00    +0.000 A 
ATOM      7  C   UNL     1       9.287  13.347  18.019  0.00  0.00    +0.000 A 
ATOM      8  C   UNL     1       8.623  12.143  17.948  0.00  0.00    +0.000 A 
ATOM      9  C   UNL     1       8.694  14.669  18.084  0.00  0.00    +0.000 C 
ATOM     10  O   UNL     1       7.579  14.942  17.682  0.00  0.00    +0.000 OA
ATOM     11  N   UNL     1       9.593  15.448  18.748  0.00  0.00    +0.000 N 
ATOM     12  C   UNL     1       9.136  16.588  19.508  0.00  0.00    +0.000 C 
ATOM     13  C   UNL     1      10.796  14.808  18.923  0.00  0.00    +0.000 C 
ATOM     14  O   UNL     1      11.798  15.186  19.501  0.00  0.00    +0.000 OA
ENDBRANCH   1   3
BRANCH   1  15
ATOM     15  C   UNL     1       8.326   8.982  17.304  0.00  0.00    +0.000 C 
BRANCH  15  22
ATOM     16  C   UNL     1       3.754   2.633  18.385  0.00  0.00    +0.000 C 
ATOM     17  C   UNL     1       4.533   3.873  18.051  0.00  0.00    +0.000 A 
ATOM     18  C   UNL     1       4.119   4.651  16.893  0.00  0.00    +0.000 A 
ATOM     19  C   UNL     1       4.781   5.764  16.554  0.00  0.00    +0.000 A 
ATOM     20  C   UNL     1       5.949   6.211  17.360  0.00  0.00    +0.000 A 
ATOM     21  N   UNL     1       6.571   7.291  17.005  0.00  0.00    +0.000 NA
ATOM     22  C   UNL     1       7.644   7.698  17.758  0.00  0.00    +0.000 A 
ATOM     23  C   UNL     1       8.087   7.016  18.821  0.00  0.00    +0.000 A 
ATOM     24  C   UNL     1       7.384   5.791  19.235  0.00  0.00    +0.000 A 
ATOM     25  O   UNL     1       7.788   5.184  20.226  0.00  0.00    +0.000 OA
ATOM     26  N   UNL     1       6.301   5.429  18.449  0.00  0.00    +0.000 N 
ATOM     27  C   UNL     1       5.595   4.281  18.767  0.00  0.00    +0.000 A 
ENDBRANCH  15  22
ENDBRANCH   1  15
TORSDOF 3
ENDMDL
MODEL 7
REMARK VINA RESULT:      -8.3      7.119      9.552
REMARK  Name = 
REMARK  5 active torsions:
REMARK  status: ('A' for Active; 'I' for Inactive)
REMARK    1  A    between atoms: C_1  and  C_2
REMARK    2  A    between atoms: C_7  and  C_8
REMARK    3  A    between atoms: C_8  and  N_9
REMARK    4  A    between atoms: N_9  and  C_10
REMARK    5  A    between atoms: N_18  and  C_19
REMARK                            x       y       z     vdW  Elec       q    Type
REMARK                         _______ _______ _______ _____ _____    ______ ____
ROOT
ATOM      1  N   UNL     1       2.513   6.808  18.810  0.00  0.00    +0.000 N 
ATOM      2  H   UNL     1       1.627   6.305  18.780  0.00  0.00    +0.000 HD
ENDROOT
BRANCH   1   3
ATOM      3  C   UNL     1       3.582   5.946  18.541  0.00  0.00    +0.000 A 
ATOM      4  C   UNL     1       4.545   5.565  19.505  0.00  0.00    +0.000 A 
ATOM      5  C   UNL     1       5.731   4.908  19.136  0.00  0.00    +0.000 A 
ATOM      6  C   UNL     1       5.882   4.603  17.801  0.00  0.00    +0.000 A 
ATOM      7  C   UNL     1       4.840   4.763  16.911  0.00  0.00    +0.000 A 
ATOM      8  C   UNL     1       3.676   5.414  17.252  0.00  0.00    +0.000 A 
ATOM      9  C   UNL     1       5.334   4.501  15.572  0.00  0.00    +0.000 C 
ATOM     10  O   UNL     1       4.633   4.444  14.580  0.00  0.00    +0.000 OA
ATOM     11  N   UNL     1       6.691   4.437  15.683  0.00  0.00    +0.000 N 
ATOM     12  C   UNL     1       7.523   4.789  14.556  0.00  0.00    +0.000 C 
ATOM     13  C   UNL     1       7.098   4.417  16.995  0.00  0.00    +0.000 C 
ATOM     14  O   UNL     1       8.225   4.405  17.455  0.00  0.00    +0.000 OA
ENDBRANCH   1   3
BRANCH   1  15
ATOM     15  C   UNL     1       2.417   8.063  18.059  0.00  0.00    +0.000 C 
BRANCH  15  22
ATOM     16  C   UNL     1      -1.948  11.967  23.358  0.00  0.00    +0.000 C 
ATOM     17  C   UNL     1      -1.085  11.120  22.467  0.00  0.00    +0.000 A 
ATOM     18  C   UNL     1      -0.480   9.924  23.035  0.00  0.00    +0.000 A 
ATOM     19  C   UNL     1       0.296   9.136  22.282  0.00  0.00    +0.000 A 
ATOM     20  C   UNL     1       0.549   9.482  20.857  0.00  0.00    +0.000 A 
ATOM     21  N   UNL     1       1.308   8.700  20.155  0.00  0.00    +0.000 NA
ATOM     22  C   UNL     1       1.531   9.025  18.839  0.00  0.00    +0.000 A 
ATOM     23  C   UNL     1       1.022  10.120  18.264  0.00  0.00    +0.000 A 
ATOM     24  C   UNL     1       0.154  11.010  19.053  0.00  0.00    +0.000 A 
ATOM     25  O   UNL     1      -0.324  12.004  18.507  0.00  0.00    +0.000 OA
ATOM     26  N   UNL     1      -0.048  10.634  20.371  0.00  0.00    +0.000 N 
ATOM     27  C   UNL     1      -0.843  11.428  21.181  0.00  0.00    +0.000 A 
ENDBRANCH  15  22
ENDBRANCH   1  15
TORSDOF 3
ENDMDL
MODEL 8
REMARK VINA RESULT:      -8.3      1.583      2.102
REMARK  Name = 
REMARK  5 active torsions:
REMARK  status: ('A' for Active; 'I' for Inactive)
REMARK    1  A    between atoms: C_1  and  C_2
REMARK    2  A    between atoms: C_7  and  C_8
REMARK    3  A    between atoms: C_8  and  N_9
REMARK    4  A    between atoms: N_9  and  C_10
REMARK    5  A    between atoms: N_18  and  C_19
REMARK                            x       y       z     vdW  Elec       q    Type
REMARK                         _______ _______ _______ _____ _____    ______ ____
ROOT
ATOM      1  N   UNL     1       8.231   9.241  18.225  0.00  0.00    +0.000 N 
ATOM      2  H   UNL     1       7.263   9.471  18.444  0.00  0.00    +0.000 HD
ENDROOT
BRANCH   1   3
ATOM      3  C   UNL     1       9.101  10.199  18.757  0.00  0.00    +0.000 A 
ATOM      4  C   UNL     1       9.285  10.407  20.145  0.00  0.00    +0.000 A 
ATOM      5  C   UNL     1       9.967  11.535  20.632  0.00  0.00    +0.000 A 
ATOM      6  C   UNL     1      10.495  12.395  19.695  0.00  0.00    +0.000 A 
ATOM      7  C   UNL     1      10.517  12.063  18.356  0.00  0.00    +0.000 A 
ATOM      8  C   UNL     1       9.845  10.969  17.859  0.00  0.00    +0.000 A 
ATOM      9  C   UNL     1      10.994  13.209  17.605  0.00  0.00    +0.000 C 
ATOM     10  O   UNL     1      11.239  13.197  16.415  0.00  0.00    +0.000 OA
ATOM     11  N   UNL     1      11.005  14.250  18.485  0.00  0.00    +0.000 N 
ATOM     12  C   UNL     1      10.833  15.601  18.003  0.00  0.00    +0.000 C 
ATOM     13  C   UNL     1      10.788  13.834  19.775  0.00  0.00    +0.000 C 
ATOM     14  O   UNL     1      10.693  14.492  20.796  0.00  0.00    +0.000 OA
ENDBRANCH   1   3
BRANCH   1  15
ATOM     15  C   UNL     1       8.496   7.825  18.497  0.00  0.00    +0.000 C 
BRANCH  15  22
ATOM     16  C   UNL     1       2.530   2.769  17.388  0.00  0.00    +0.000 C 
ATOM     17  C   UNL     1       3.686   3.661  17.742  0.00  0.00    +0.000 A 
ATOM     18  C   UNL     1       4.340   3.458  19.026  0.00  0.00    +0.000 A 
ATOM     19  C   UNL     1       5.375   4.226  19.387  0.00  0.00    +0.000 A 
ATOM     20  C   UNL     1       5.860   5.298  18.476  0.00  0.00    +0.000 A 
ATOM     21  N   UNL     1       6.862   6.027  18.856  0.00  0.00    +0.000 NA
ATOM     22  C   UNL     1       7.306   7.010  18.006  0.00  0.00    +0.000 A 
ATOM     23  C   UNL     1       6.735   7.261  16.823  0.00  0.00    +0.000 A 
ATOM     24  C   UNL     1       5.600   6.434  16.381  0.00  0.00    +0.000 A 
ATOM     25  O   UNL     1       5.096   6.661  15.282  0.00  0.00    +0.000 OA
ATOM     26  N   UNL     1       5.197   5.449  17.269  0.00  0.00    +0.000 N 
ATOM     27  C   UNL     1       4.127   4.637  16.930  0.00  0.00    +0.000 A 
ENDBRANCH  15  22
ENDBRANCH   1  15
TORSDOF 3
ENDMDL
MODEL 9
REMARK VINA RESULT:      -8.3      7.594     11.027
REMARK  Name = 
REMARK  5 active torsions:
REMARK  status: ('A' for Active; 'I' for Inactive)
REMARK    1  A    between atoms: C_1  and  C_2
REMARK    2  A    between atoms: C_7  and  C_8
REMARK    3  A    between atoms: C_8  and  N_9
REMARK    4  A    between atoms: N_9  and  C_10
REMARK    5  A    between atoms: N_18  and  C_19
REMARK                            x       y       z     vdW  Elec       q    Type
REMARK                         _______ _______ _______ _____ _____    ______ ____
ROOT
ATOM      1  N   UNL     1       1.553   8.358  19.145  0.00  0.00    +0.000 N 
ATOM      2  H   UNL     1       0.628   7.929  19.165  0.00  0.00    +0.000 HD
ENDROOT
BRANCH   1   3
ATOM      3  C   UNL     1       2.532   7.411  18.826  0.00  0.00    +0.000 A 
ATOM      4  C   UNL     1       3.452   7.562  17.762  0.00  0.00    +0.000 A 
ATOM      5  C   UNL     1       4.244   6.488  17.320  0.00  0.00    +0.000 A 
ATOM      6  C   UNL     1       4.122   5.302  18.010  0.00  0.00    +0.000 A 
ATOM      7  C   UNL     1       3.406   5.232  19.187  0.00  0.00    +0.000 A 
ATOM      8  C   UNL     1       2.615   6.269  19.628  0.00  0.00    +0.000 A 
ATOM      9  C   UNL     1       3.336   3.843  19.602  0.00  0.00    +0.000 C 
ATOM     10  O   UNL     1       2.873   3.465  20.660  0.00  0.00    +0.000 OA
ATOM     11  N   UNL     1       3.794   3.117  18.543  0.00  0.00    +0.000 N 
ATOM     12  C   UNL     1       3.328   1.764  18.343  0.00  0.00    +0.000 C 
ATOM     13  C   UNL     1       4.352   3.915  17.575  0.00  0.00    +0.000 C 
ATOM     14  O   UNL     1       4.817   3.610  16.493  0.00  0.00    +0.000 OA
ENDBRANCH   1   3
BRANCH   1  15
ATOM     15  C   UNL     1       1.520   9.614  18.391  0.00  0.00    +0.000 C 
BRANCH  15  22
ATOM     16  C   UNL     1      -5.937  12.078  17.552  0.00  0.00    +0.000 C 
ATOM     17  C   UNL     1      -4.537  11.536  17.570  0.00  0.00    +0.000 A 
ATOM     18  C   UNL     1      -4.094  10.742  16.433  0.00  0.00    +0.000 A 
ATOM     19  C   UNL     1      -2.855  10.238  16.401  0.00  0.00    +0.000 A 
ATOM     20  C   UNL     1      -1.921  10.484  17.534  0.00  0.00    +0.000 A 
ATOM     21  N   UNL     1      -0.728   9.980  17.474  0.00  0.00    +0.000 NA
ATOM     22  C   UNL     1       0.127  10.218  18.522  0.00  0.00    +0.000 A 
ATOM     23  C   UNL     1      -0.225  10.921  19.604  0.00  0.00    +0.000 A 
ATOM     24  C   UNL     1      -1.576  11.502  19.676  0.00  0.00    +0.000 A 
ATOM     25  O   UNL     1      -1.882  12.164  20.668  0.00  0.00    +0.000 OA
ATOM     26  N   UNL     1      -2.397  11.243  18.591  0.00  0.00    +0.000 N 
ATOM     27  C   UNL     1      -3.688  11.746  18.591  0.00  0.00    +0.000 A 
ENDBRANCH  15  22
ENDBRANCH   1  15
TORSDOF 3
ENDMDL
