MODEL 1
REMARK VINA RESULT:      -8.8      0.000      0.000
REMARK  Name = 
REMARK  5 active torsions:
REMARK  status: ('A' for Active; 'I' for Inactive)
REMARK    1  A    between atoms: C_1  and  C_2
REMARK    2  A    between atoms: N_4  and  C_5
REMARK    3  A    between atoms: C_5  and  C_6
REMARK    4  A    between atoms: C_10  and  C_11
REMARK    5  A    between atoms: N_17  and  C_18
REMARK                            x       y       z     vdW  Elec       q    Type
REMARK                         _______ _______ _______ _____ _____    ______ ____
ROOT
ATOM      1  C   UNL     1      -0.009  11.127  19.158  0.00  0.00    +0.000 A 
ATOM      2  C   UNL     1       0.855  10.250  18.496  0.00  0.00    +0.000 A 
ATOM      3  C   UNL     1       1.303   9.141  19.186  0.00  0.00    +0.000 A 
ATOM      4  C   UNL     1       0.971   8.871  20.508  0.00  0.00    +0.000 A 
ATOM      5  C   UNL     1       0.169   9.762  21.219  0.00  0.00    +0.000 A 
ATOM      6  C   UNL     1      -0.335  10.880  20.515  0.00  0.00    +0.000 A 
ATOM      7  C   UNL     1       1.568   7.556  20.904  0.00  0.00    +0.000 C 
ATOM      8  N   UNL     1       2.267   7.119  19.698  0.00  0.00    +0.000 N 
ATOM      9  C   UNL     1       2.124   8.047  18.667  0.00  0.00    +0.000 C 
ATOM     10  O   UNL     1       2.536   8.057  17.521  0.00  0.00    +0.000 OA
ENDROOT
BRANCH   8  11
ATOM     11  C   UNL     1       2.966   5.886  19.611  0.00  0.00    +0.000 A 
ATOM     12  C   UNL     1       4.314   5.835  19.218  0.00  0.00    +0.000 A 
ATOM     13  C   UNL     1       5.011   4.624  19.135  0.00  0.00    +0.000 A 
ATOM     14  C   UNL     1       4.366   3.434  19.438  0.00  0.00    +0.000 A 
ATOM     15  C   UNL     1       3.034   3.470  19.822  0.00  0.00    +0.000 A 
ATOM     16  F   UNL     1       2.402   2.323  20.106  0.00  0.00    +0.000 F 
ATOM     17  C   UNL     1       2.333   4.673  19.916  0.00  0.00    +0.000 A 
ENDBRANCH   8  11
BRANCH   5  18
ATOM     18  C   UNL     1      -0.170   9.569  22.673  0.00  0.00    +0.000 C 
ATOM     19  F   UNL     1       0.924   9.389  23.465  0.00  0.00    +0.000 F 
ATOM     20  F   UNL     1      -0.831  10.637  23.196  0.00  0.00    +0.000 F 
ATOM     21  F   UNL     1      -0.965   8.487  22.890  0.00  0.00    +0.000 F 
ENDBRANCH   5  18
BRANCH   1  22
ATOM     22  C   UNL     1      -0.640  12.273  18.398  0.00  0.00    +0.000 C 
BRANCH  22  26
ATOM     23  C   UNL     1      -5.382  12.072  19.439  0.00  0.00    +0.000 C 
ATOM     24  C   UNL     1      -4.182  11.639  18.656  0.00  0.00    +0.000 C 
ATOM     25  N   UNL     1      -3.042  12.247  18.793  0.00  0.00    +0.000 NA
ATOM     26  N   UNL     1      -2.005  11.960  17.974  0.00  0.00    +0.000 N 
ATOM     27  C   UNL     1      -2.157  11.401  16.636  0.00  0.00    +0.000 C 
ATOM     28  C   UNL     1      -2.442   9.909  16.695  0.00  0.00    +0.000 C 
ATOM     29  C   UNL     1      -3.483   9.564  17.746  0.00  0.00    +0.000 C 
ATOM     30  O   UNL     1      -4.489  10.579  17.857  0.00  0.00    +0.000 OA
ENDBRANCH  22  26
ENDBRANCH   1  22
TORSDOF 4
ENDMDL
MODEL 2
REMARK VINA RESULT:      -8.7      0.868      1.231
REMARK  Name = 
REMARK  5 active torsions:
REMARK  status: ('A' for Active; 'I' for Inactive)
REMARK    1  A    between atoms: C_1  and  C_2
REMARK    2  A    between atoms: N_4  and  C_5
REMARK    3  A    between atoms: C_5  and  C_6
REMARK    4  A    between atoms: C_10  and  C_11
REMARK    5  A    between atoms: N_17  and  C_18
REMARK                            x       y       z     vdW  Elec       q    Type
REMARK                         _______ _______ _______ _____ _____    ______ ____
ROOT
ATOM      1  C   UNL     1      -0.051  11.157  19.174  0.00  0.00    +0.000 A 
ATOM      2  C   UNL     1       0.811  10.290  18.496  0.00  0.00    +0.000 A 
ATOM      3  C   UNL     1       1.273   9.180  19.175  0.00  0.00    +0.000 A 
ATOM      4  C   UNL     1       0.958   8.900  20.498  0.00  0.00    +0.000 A 
ATOM      5  C   UNL     1       0.157   9.781  21.224  0.00  0.00    +0.000 A 
ATOM      6  C   UNL     1      -0.361  10.900  20.532  0.00  0.00    +0.000 A 
ATOM      7  C   UNL     1       1.567   7.586  20.879  0.00  0.00    +0.000 C 
ATOM      8  N   UNL     1       2.256   7.162  19.663  0.00  0.00    +0.000 N 
ATOM      9  C   UNL     1       2.096   8.095  18.639  0.00  0.00    +0.000 C 
ATOM     10  O   UNL     1       2.495   8.115  17.490  0.00  0.00    +0.000 OA
ENDROOT
BRANCH   8  11
ATOM     11  C   UNL     1       2.962   5.933  19.561  0.00  0.00    +0.000 A 
ATOM     12  C   UNL     1       2.318   4.700  19.762  0.00  0.00    +0.000 A 
ATOM     13  C   UNL     1       3.006   3.486  19.659  0.00  0.00    +0.000 A 
ATOM     14  C   UNL     1       4.361   3.483  19.360  0.00  0.00    +0.000 A 
ATOM     15  C   UNL     1       5.010   4.693  19.165  0.00  0.00    +0.000 A 
ATOM     16  F   UNL     1       6.320   4.698  18.886  0.00  0.00    +0.000 F 
ATOM     17  C   UNL     1       4.330   5.909  19.257  0.00  0.00    +0.000 A 
ENDBRANCH   8  11
BRANCH   5  18
ATOM     18  C   UNL     1      -0.164   9.577  22.680  0.00  0.00    +0.000 C 
ATOM     19  F   UNL     1       0.939   9.387  23.457  0.00  0.00    +0.000 F 
ATOM     20  F   UNL     1      -0.815  10.642  23.220  0.00  0.00    +0.000 F 
ATOM     21  F   UNL     1      -0.960   8.495  22.898  0.00  0.00    +0.000 F 
ENDBRANCH   5  18
BRANCH   1  22
ATOM     22  C   UNL     1      -0.699  12.304  18.428  0.00  0.00    +0.000 C 
BRANCH  22  26
ATOM     23  C   UNL     1      -5.450  12.048  19.412  0.00  0.00    +0.000 C 
ATOM     24  C   UNL     1      -4.235  11.627  18.646  0.00  0.00    +0.000 C 
ATOM     25  N   UNL     1      -3.105  12.250  18.794  0.00  0.00    +0.000 NA
ATOM     26  N   UNL     1      -2.054  11.973  17.988  0.00  0.00    +0.000 N 
ATOM     27  C   UNL     1      -2.184  11.409  16.650  0.00  0.00    +0.000 C 
ATOM     28  C   UNL     1      -2.450   9.913  16.711  0.00  0.00    +0.000 C 
ATOM     29  C   UNL     1      -3.500   9.559  17.750  0.00  0.00    +0.000 C 
ATOM     30  O   UNL     1      -4.519  10.561  17.845  0.00  0.00    +0.000 OA
ENDBRANCH  22  26
ENDBRANCH   1  22
TORSDOF 4
ENDMDL
MODEL 3
REMARK VINA RESULT:      -8.6      3.111      8.396
REMARK  Name = 
REMARK  5 active torsions:
REMARK  status: ('A' for Active; 'I' for Inactive)
REMARK    1  A    between atoms: C_1  and  C_2
REMARK    2  A    between atoms: N_4  and  C_5
REMARK    3  A    between atoms: C_5  and  C_6
REMARK    4  A    between atoms: C_10  and  C_11
REMARK    5  A    between atoms: N_17  and  C_18
REMARK                            x       y       z     vdW  Elec       q    Type
REMARK                         _______ _______ _______ _____ _____    ______ ____
ROOT
ATOM      1  C   UNL     1       3.707   4.137  18.010  0.00  0.00    +0.000 A 
ATOM      2  C   UNL     1       3.337   5.476  17.857  0.00  0.00    +0.000 A 
ATOM      3  C   UNL     1       2.578   6.054  18.855  0.00  0.00    +0.000 A 
ATOM      4  C   UNL     1       2.136   5.370  19.980  0.00  0.00    +0.000 A 
ATOM      5  C   UNL     1       2.428   4.016  20.129  0.00  0.00    +0.000 A 
ATOM      6  C   UNL     1       3.241   3.419  19.139  0.00  0.00    +0.000 A 
ATOM      7  C   UNL     1       1.411   6.324  20.879  0.00  0.00    +0.000 C 
ATOM      8  N   UNL     1       1.477   7.593  20.158  0.00  0.00    +0.000 N 
ATOM      9  C   UNL     1       2.163   7.454  18.953  0.00  0.00    +0.000 C 
ATOM     10  O   UNL     1       2.441   8.257  18.081  0.00  0.00    +0.000 OA
ENDROOT
BRANCH   8  11
ATOM     11  C   UNL     1       0.928   8.801  20.666  0.00  0.00    +0.000 A 
ATOM     12  C   UNL     1       0.895   9.972  19.890  0.00  0.00    +0.000 A 
ATOM     13  C   UNL     1       0.352  11.164  20.381  0.00  0.00    +0.000 A 
ATOM     14  C   UNL     1      -0.162  11.211  21.668  0.00  0.00    +0.000 A 
ATOM     15  C   UNL     1      -0.130  10.063  22.448  0.00  0.00    +0.000 A 
ATOM     16  F   UNL     1      -0.616  10.104  23.695  0.00  0.00    +0.000 F 
ATOM     17  C   UNL     1       0.401   8.867  21.963  0.00  0.00    +0.000 A 
ENDBRANCH   8  11
BRANCH   5  18
ATOM     18  C   UNL     1       1.920   3.197  21.286  0.00  0.00    +0.000 C 
ATOM     19  F   UNL     1       0.564   3.071  21.307  0.00  0.00    +0.000 F 
ATOM     20  F   UNL     1       2.408   1.927  21.273  0.00  0.00    +0.000 F 
ATOM     21  F   UNL     1       2.262   3.722  22.494  0.00  0.00    +0.000 F 
ENDBRANCH   5  18
BRANCH   1  22
ATOM     22  C   UNL     1       4.658   3.504  17.018  0.00  0.00    +0.000 C 
BRANCH  22  26
ATOM     23  C   UNL     1       8.249   5.574  19.554  0.00  0.00    +0.000 C 
ATOM     24  C   UNL     1       7.481   5.357  18.288  0.00  0.00    +0.000 C 
ATOM     25  N   UNL     1       6.553   4.451  18.218  0.00  0.00    +0.000 NA
ATOM     26  N   UNL     1       5.972   4.147  17.035  0.00  0.00    +0.000 N 
ATOM     27  C   UNL     1       6.605   4.366  15.741  0.00  0.00    +0.000 C 
ATOM     28  C   UNL     1       6.526   5.829  15.333  0.00  0.00    +0.000 C 
ATOM     29  C   UNL     1       6.878   6.764  16.478  0.00  0.00    +0.000 C 
ATOM     30  O   UNL     1       7.901   6.219  17.319  0.00  0.00    +0.000 OA
ENDBRANCH  22  26
ENDBRANCH   1  22
TORSDOF 4
ENDMDL
MODEL 4
REMARK VINA RESULT:      -8.6      3.251      8.431
REMARK  Name = 
REMARK  5 active torsions:
REMARK  status: ('A' for Active; 'I' for Inactive)
REMARK    1  A    between atoms: C_1  and  C_2
REMARK    2  A    between atoms: N_4  and  C_5
REMARK    3  A    between atoms: C_5  and  C_6
REMARK    4  A    between atoms: C_10  and  C_11
REMARK    5  A    between atoms: N_17  and  C_18
REMARK                            x       y       z     vdW  Elec       q    Type
REMARK                         _______ _______ _______ _____ _____    ______ ____
ROOT
ATOM      1  C   UNL     1       3.920   4.568  18.076  0.00  0.00    +0.000 A 
ATOM      2  C   UNL     1       3.496   5.898  18.010  0.00  0.00    +0.000 A 
ATOM      3  C   UNL     1       2.630   6.348  18.987  0.00  0.00    +0.000 A 
ATOM      4  C   UNL     1       2.135   5.545  20.006  0.00  0.00    +0.000 A 
ATOM      5  C   UNL     1       2.482   4.197  20.060  0.00  0.00    +0.000 A 
ATOM      6  C   UNL     1       3.402   3.729  19.093  0.00  0.00    +0.000 A 
ATOM      7  C   UNL     1       1.292   6.379  20.921  0.00  0.00    +0.000 C 
ATOM      8  N   UNL     1       1.351   7.711  20.323  0.00  0.00    +0.000 N 
ATOM      9  C   UNL     1       2.139   7.714  19.173  0.00  0.00    +0.000 C 
ATOM     10  O   UNL     1       2.444   8.605  18.402  0.00  0.00    +0.000 OA
ENDROOT
BRANCH   8  11
ATOM     11  C   UNL     1       0.703   8.842  20.887  0.00  0.00    +0.000 A 
ATOM     12  C   UNL     1       0.564   8.988  22.278  0.00  0.00    +0.000 A 
ATOM     13  C   UNL     1      -0.069  10.102  22.840  0.00  0.00    +0.000 A 
ATOM     14  C   UNL     1      -0.585  11.092  22.018  0.00  0.00    +0.000 A 
ATOM     15  C   UNL     1      -0.460  10.958  20.643  0.00  0.00    +0.000 A 
ATOM     16  F   UNL     1      -0.965  11.905  19.842  0.00  0.00    +0.000 F 
ATOM     17  C   UNL     1       0.177   9.855  20.072  0.00  0.00    +0.000 A 
ENDBRANCH   8  11
BRANCH   5  18
ATOM     18  C   UNL     1       1.925   3.254  21.092  0.00  0.00    +0.000 C 
ATOM     19  F   UNL     1       2.243   3.599  22.371  0.00  0.00    +0.000 F 
ATOM     20  F   UNL     1       0.566   3.191  21.055  0.00  0.00    +0.000 F 
ATOM     21  F   UNL     1       2.367   1.977  20.933  0.00  0.00    +0.000 F 
ENDBRANCH   5  18
BRANCH   1  22
ATOM     22  C   UNL     1       4.979   4.071  17.116  0.00  0.00    +0.000 C 
BRANCH  22  26
ATOM     23  C   UNL     1       8.410   5.442  20.271  0.00  0.00    +0.000 C 
ATOM     24  C   UNL     1       7.703   5.554  18.956  0.00  0.00    +0.000 C 
ATOM     25  N   UNL     1       6.799   4.689  18.610  0.00  0.00    +0.000 NA
ATOM     26  N   UNL     1       6.277   4.699  17.362  0.00  0.00    +0.000 N 
ATOM     27  C   UNL     1       6.961   5.253  16.200  0.00  0.00    +0.000 C 
ATOM     28  C   UNL     1       6.869   6.771  16.183  0.00  0.00    +0.000 C 
ATOM     29  C   UNL     1       7.150   7.379  17.547  0.00  0.00    +0.000 C 
ATOM     30  O   UNL     1       8.147   6.642  18.266  0.00  0.00    +0.000 OA
ENDBRANCH  22  26
ENDBRANCH   1  22
TORSDOF 4
ENDMDL
MODEL 5
REMARK VINA RESULT:      -8.3      2.660      3.996
REMARK  Name = 
REMARK  5 active torsions:
REMARK  status: ('A' for Active; 'I' for Inactive)
REMARK    1  A    between atoms: C_1  and  C_2
REMARK    2  A    between atoms: N_4  and  C_5
REMARK    3  A    between atoms: C_5  and  C_6
REMARK    4  A    between atoms: C_10  and  C_11
REMARK    5  A    between atoms: N_17  and  C_18
REMARK                            x       y       z     vdW  Elec       q    Type
REMARK                         _______ _______ _______ _____ _____    ______ ____
ROOT
ATOM      1  C   UNL     1       0.374  11.495  19.220  0.00  0.00    +0.000 A 
ATOM      2  C   UNL     1       1.178  10.651  18.448  0.00  0.00    +0.000 A 
ATOM      3  C   UNL     1       1.497   9.412  18.966  0.00  0.00    +0.000 A 
ATOM      4  C   UNL     1       1.092   8.974  20.220  0.00  0.00    +0.000 A 
ATOM      5  C   UNL     1       0.348   9.818  21.044  0.00  0.00    +0.000 A 
ATOM      6  C   UNL     1      -0.024  11.074  20.513  0.00  0.00    +0.000 A 
ATOM      7  C   UNL     1       1.551   7.562  20.419  0.00  0.00    +0.000 C 
ATOM      8  N   UNL     1       2.252   7.252  19.176  0.00  0.00    +0.000 N 
ATOM      9  C   UNL     1       2.234   8.337  18.300  0.00  0.00    +0.000 C 
ATOM     10  O   UNL     1       2.688   8.484  17.181  0.00  0.00    +0.000 OA
ENDROOT
BRANCH   8  11
ATOM     11  C   UNL     1       2.839   5.985  18.913  0.00  0.00    +0.000 A 
ATOM     12  C   UNL     1       4.040   5.593  19.528  0.00  0.00    +0.000 A 
ATOM     13  C   UNL     1       4.621   4.346  19.278  0.00  0.00    +0.000 A 
ATOM     14  C   UNL     1       4.013   3.465  18.396  0.00  0.00    +0.000 A 
ATOM     15  C   UNL     1       2.830   3.841  17.777  0.00  0.00    +0.000 A 
ATOM     16  F   UNL     1       2.243   2.999  16.917  0.00  0.00    +0.000 F 
ATOM     17  C   UNL     1       2.238   5.080  18.027  0.00  0.00    +0.000 A 
ENDBRANCH   8  11
BRANCH   5  18
ATOM     18  C   UNL     1      -0.061   9.436  22.442  0.00  0.00    +0.000 C 
ATOM     19  F   UNL     1      -0.875   8.345  22.490  0.00  0.00    +0.000 F 
ATOM     20  F   UNL     1       1.007   9.134  23.228  0.00  0.00    +0.000 F 
ATOM     21  F   UNL     1      -0.735  10.428  23.083  0.00  0.00    +0.000 F 
ENDBRANCH   5  18
BRANCH   1  22
ATOM     22  C   UNL     1      -0.121  12.799  18.635  0.00  0.00    +0.000 C 
BRANCH  22  26
ATOM     23  C   UNL     1       4.066  15.165  17.947  0.00  0.00    +0.000 C 
ATOM     24  C   UNL     1       2.876  14.800  18.778  0.00  0.00    +0.000 C 
ATOM     25  N   UNL     1       1.898  14.110  18.275  0.00  0.00    +0.000 NA
ATOM     26  N   UNL     1       0.757  13.919  18.976  0.00  0.00    +0.000 N 
ATOM     27  C   UNL     1       0.296  14.807  20.035  0.00  0.00    +0.000 C 
ATOM     28  C   UNL     1       1.058  14.558  21.328  0.00  0.00    +0.000 C 
ATOM     29  C   UNL     1       2.553  14.423  21.096  0.00  0.00    +0.000 C 
ATOM     30  O   UNL     1       3.012  15.282  20.046  0.00  0.00    +0.000 OA
ENDBRANCH  22  26
ENDBRANCH   1  22
TORSDOF 4
ENDMDL
MODEL 6
REMARK VINA RESULT:      -8.3      2.821      4.273
REMARK  Name = 
REMARK  5 active torsions:
REMARK  status: ('A' for Active; 'I' for Inactive)
REMARK    1  A    between atoms: C_1  and  C_2
REMARK    2  A    between atoms: N_4  and  C_5
REMARK    3  A    between atoms: C_5  and  C_6
REMARK    4  A    between atoms: C_10  and  C_11
REMARK    5  A    between atoms: N_17  and  C_18
REMARK                            x       y       z     vdW  Elec       q    Type
REMARK                         _______ _______ _______ _____ _____    ______ ____
ROOT
ATOM      1  C   UNL     1       0.610  11.646  19.334  0.00  0.00    +0.000 A 
ATOM      2  C   UNL     1       1.330  10.760  18.528  0.00  0.00    +0.000 A 
ATOM      3  C   UNL     1       1.558   9.487  19.012  0.00  0.00    +0.000 A 
ATOM      4  C   UNL     1       1.142   9.054  20.264  0.00  0.00    +0.000 A 
ATOM      5  C   UNL     1       0.483   9.934  21.121  0.00  0.00    +0.000 A 
ATOM      6  C   UNL     1       0.203  11.228  20.625  0.00  0.00    +0.000 A 
ATOM      7  C   UNL     1       1.490   7.606  20.422  0.00  0.00    +0.000 C 
ATOM      8  N   UNL     1       2.141   7.270  19.158  0.00  0.00    +0.000 N 
ATOM      9  C   UNL     1       2.194   8.373  18.308  0.00  0.00    +0.000 C 
ATOM     10  O   UNL     1       2.638   8.509  17.183  0.00  0.00    +0.000 OA
ENDROOT
BRANCH   8  11
ATOM     11  C   UNL     1       2.620   5.967  18.856  0.00  0.00    +0.000 A 
ATOM     12  C   UNL     1       1.887   5.090  18.038  0.00  0.00    +0.000 A 
ATOM     13  C   UNL     1       2.354   3.807  17.732  0.00  0.00    +0.000 A 
ATOM     14  C   UNL     1       3.565   3.371  18.249  0.00  0.00    +0.000 A 
ATOM     15  C   UNL     1       4.295   4.224  19.063  0.00  0.00    +0.000 A 
ATOM     16  F   UNL     1       5.461   3.806  19.573  0.00  0.00    +0.000 F 
ATOM     17  C   UNL     1       3.842   5.509  19.366  0.00  0.00    +0.000 A 
ENDBRANCH   8  11
BRANCH   5  18
ATOM     18  C   UNL     1       0.070   9.554  22.517  0.00  0.00    +0.000 C 
ATOM     19  F   UNL     1      -0.808   8.514  22.559  0.00  0.00    +0.000 F 
ATOM     20  F   UNL     1       1.128   9.172  23.283  0.00  0.00    +0.000 F 
ATOM     21  F   UNL     1      -0.533  10.574  23.185  0.00  0.00    +0.000 F 
ENDBRANCH   5  18
BRANCH   1  22
ATOM     22  C   UNL     1       0.210  13.000  18.788  0.00  0.00    +0.000 C 
BRANCH  22  26
ATOM     23  C   UNL     1       4.497  15.087  17.854  0.00  0.00    +0.000 C 
ATOM     24  C   UNL     1       3.356  14.764  18.767  0.00  0.00    +0.000 C 
ATOM     25  N   UNL     1       2.288  14.177  18.318  0.00  0.00    +0.000 NA
ATOM     26  N   UNL     1       1.198  14.030  19.106  0.00  0.00    +0.000 N 
ATOM     27  C   UNL     1       0.899  14.888  20.245  0.00  0.00    +0.000 C 
ATOM     28  C   UNL     1       1.745  14.511  21.451  0.00  0.00    +0.000 C 
ATOM     29  C   UNL     1       3.200  14.280  21.083  0.00  0.00    +0.000 C 
ATOM     30  O   UNL     1       3.635  15.161  20.041  0.00  0.00    +0.000 OA
ENDBRANCH  22  26
ENDBRANCH   1  22
TORSDOF 4
ENDMDL
MODEL 7
REMARK VINA RESULT:      -8.1      0.968      1.714
REMARK  Name = 
REMARK  5 active torsions:
REMARK  status: ('A' for Active; 'I' for Inactive)
REMARK    1  A    between atoms: C_1  and  C_2
REMARK    2  A    between atoms: N_4  and  C_5
REMARK    3  A    between atoms: C_5  and  C_6
REMARK    4  A    between atoms: C_10  and  C_11
REMARK    5  A    between atoms: N_17  and  C_18
REMARK                            x       y       z     vdW  Elec       q    Type
REMARK                         _______ _______ _______ _____ _____    ______ ____
ROOT
ATOM      1  C   UNL     1      -0.355  10.769  18.981  0.00  0.00    +0.000 A 
ATOM      2  C   UNL     1       0.517   9.915  18.301  0.00  0.00    +0.000 A 
ATOM      3  C   UNL     1       1.155   8.931  19.029  0.00  0.00    +0.000 A 
ATOM      4  C   UNL     1       1.004   8.767  20.400  0.00  0.00    +0.000 A 
ATOM      5  C   UNL     1       0.196   9.645  21.120  0.00  0.00    +0.000 A 
ATOM      6  C   UNL     1      -0.499  10.632  20.384  0.00  0.00    +0.000 A 
ATOM      7  C   UNL     1       1.778   7.562  20.837  0.00  0.00    +0.000 C 
ATOM      8  N   UNL     1       2.381   7.073  19.600  0.00  0.00    +0.000 N 
ATOM      9  C   UNL     1       2.025   7.873  18.514  0.00  0.00    +0.000 C 
ATOM     10  O   UNL     1       2.303   7.804  17.331  0.00  0.00    +0.000 OA
ENDROOT
BRANCH   8  11
ATOM     11  C   UNL     1       3.193   5.909  19.541  0.00  0.00    +0.000 A 
ATOM     12  C   UNL     1       4.529   5.971  19.110  0.00  0.00    +0.000 A 
ATOM     13  C   UNL     1       5.337   4.830  19.053  0.00  0.00    +0.000 A 
ATOM     14  C   UNL     1       4.819   3.598  19.421  0.00  0.00    +0.000 A 
ATOM     15  C   UNL     1       3.499   3.521  19.843  0.00  0.00    +0.000 A 
ATOM     16  F   UNL     1       2.989   2.332  20.191  0.00  0.00    +0.000 F 
ATOM     17  C   UNL     1       2.688   4.655  19.911  0.00  0.00    +0.000 A 
ENDBRANCH   8  11
BRANCH   5  18
ATOM     18  C   UNL     1       0.046   9.571  22.616  0.00  0.00    +0.000 C 
ATOM     19  F   UNL     1       1.218   9.338  23.268  0.00  0.00    +0.000 F 
ATOM     20  F   UNL     1      -0.446  10.725  23.143  0.00  0.00    +0.000 F 
ATOM     21  F   UNL     1      -0.800   8.582  23.012  0.00  0.00    +0.000 F 
ENDBRANCH   5  18
BRANCH   1  22
ATOM     22  C   UNL     1      -1.187  11.766  18.203  0.00  0.00    +0.000 C 
BRANCH  22  26
ATOM     23  C   UNL     1      -3.389  10.210  14.161  0.00  0.00    +0.000 C 
ATOM     24  C   UNL     1      -3.415  10.690  15.579  0.00  0.00    +0.000 C 
ATOM     25  N   UNL     1      -2.314  10.856  16.247  0.00  0.00    +0.000 NA
ATOM     26  N   UNL     1      -2.345  11.135  17.570  0.00  0.00    +0.000 N 
ATOM     27  C   UNL     1      -3.456  10.787  18.447  0.00  0.00    +0.000 C 
ATOM     28  C   UNL     1      -4.611  11.762  18.278  0.00  0.00    +0.000 C 
ATOM     29  C   UNL     1      -4.907  12.054  16.817  0.00  0.00    +0.000 C 
ATOM     30  O   UNL     1      -4.697  10.905  15.988  0.00  0.00    +0.000 OA
ENDBRANCH  22  26
ENDBRANCH   1  22
TORSDOF 4
ENDMDL
MODEL 8
REMARK VINA RESULT:      -8.0      2.674      3.720
REMARK  Name = 
REMARK  5 active torsions:
REMARK  status: ('A' for Active; 'I' for Inactive)
REMARK    1  A    between atoms: C_1  and  C_2
REMARK    2  A    between atoms: N_4  and  C_5
REMARK    3  A    between atoms: C_5  and  C_6
REMARK    4  A    between atoms: C_10  and  C_11
REMARK    5  A    between atoms: N_17  and  C_18
REMARK                            x       y       z     vdW  Elec       q    Type
REMARK                         _______ _______ _______ _____ _____    ______ ____
ROOT
ATOM      1  C   UNL     1       0.236  11.526  19.269  0.00  0.00    +0.000 A 
ATOM      2  C   UNL     1       1.036  10.696  18.477  0.00  0.00    +0.000 A 
ATOM      3  C   UNL     1       1.405   9.471  18.995  0.00  0.00    +0.000 A 
ATOM      4  C   UNL     1       1.056   9.036  20.267  0.00  0.00    +0.000 A 
ATOM      5  C   UNL     1       0.318   9.867  21.108  0.00  0.00    +0.000 A 
ATOM      6  C   UNL     1      -0.105  11.108  20.579  0.00  0.00    +0.000 A 
ATOM      7  C   UNL     1       1.558   7.639  20.462  0.00  0.00    +0.000 C 
ATOM      8  N   UNL     1       2.225   7.334  19.198  0.00  0.00    +0.000 N 
ATOM      9  C   UNL     1       2.147   8.410  18.314  0.00  0.00    +0.000 C 
ATOM     10  O   UNL     1       2.558   8.557  17.178  0.00  0.00    +0.000 OA
ENDROOT
BRANCH   8  11
ATOM     11  C   UNL     1       2.835   6.081  18.927  0.00  0.00    +0.000 A 
ATOM     12  C   UNL     1       4.058   5.719  19.518  0.00  0.00    +0.000 A 
ATOM     13  C   UNL     1       4.663   4.484  19.259  0.00  0.00    +0.000 A 
ATOM     14  C   UNL     1       4.058   3.587  18.393  0.00  0.00    +0.000 A 
ATOM     15  C   UNL     1       2.854   3.933  17.797  0.00  0.00    +0.000 A 
ATOM     16  F   UNL     1       2.269   3.075  16.951  0.00  0.00    +0.000 F 
ATOM     17  C   UNL     1       2.238   5.159  18.056  0.00  0.00    +0.000 A 
ENDBRANCH   8  11
BRANCH   5  18
ATOM     18  C   UNL     1      -0.032   9.489  22.523  0.00  0.00    +0.000 C 
ATOM     19  F   UNL     1      -0.831   8.390  22.608  0.00  0.00    +0.000 F 
ATOM     20  F   UNL     1       1.070   9.203  23.269  0.00  0.00    +0.000 F 
ATOM     21  F   UNL     1      -0.691  10.478  23.185  0.00  0.00    +0.000 F 
ENDBRANCH   5  18
BRANCH   1  22
ATOM     22  C   UNL     1      -0.314  12.811  18.690  0.00  0.00    +0.000 C 
BRANCH  22  26
ATOM     23  C   UNL     1       3.314  15.474  20.522  0.00  0.00    +0.000 C 
ATOM     24  C   UNL     1       1.890  15.013  20.508  0.00  0.00    +0.000 C 
ATOM     25  N   UNL     1       1.441  14.266  19.546  0.00  0.00    +0.000 NA
ATOM     26  N   UNL     1       0.121  13.983  19.450  0.00  0.00    +0.000 N 
ATOM     27  C   UNL     1      -0.931  14.818  20.015  0.00  0.00    +0.000 C 
ATOM     28  C   UNL     1      -1.057  14.600  21.515  0.00  0.00    +0.000 C 
ATOM     29  C   UNL     1       0.296  14.574  22.207  0.00  0.00    +0.000 C 
ATOM     30  O   UNL     1       1.225  15.481  21.602  0.00  0.00    +0.000 OA
ENDBRANCH  22  26
ENDBRANCH   1  22
TORSDOF 4
ENDMDL
MODEL 9
REMARK VINA RESULT:      -8.0      2.724      4.165
REMARK  Name = 
REMARK  5 active torsions:
REMARK  status: ('A' for Active; 'I' for Inactive)
REMARK    1  A    between atoms: C_1  and  C_2
REMARK    2  A    between atoms: N_4  and  C_5
REMARK    3  A    between atoms: C_5  and  C_6
REMARK    4  A    between atoms: C_10  and  C_11
REMARK    5  A    between atoms: N_17  and  C_18
REMARK                            x       y       z     vdW  Elec       q    Type
REMARK                         _______ _______ _______ _____ _____    ______ ____
ROOT
ATOM      1  C   UNL     1       0.721  11.458  19.275  0.00  0.00    +0.000 A 
ATOM      2  C   UNL     1       1.448  10.486  18.583  0.00  0.00    +0.000 A 
ATOM      3  C   UNL     1       1.602   9.250  19.178  0.00  0.00    +0.000 A 
ATOM      4  C   UNL     1       1.104   8.933  20.435  0.00  0.00    +0.000 A 
ATOM      5  C   UNL     1       0.434   9.901  21.182  0.00  0.00    +0.000 A 
ATOM      6  C   UNL     1       0.230  11.160  20.571  0.00  0.00    +0.000 A 
ATOM      7  C   UNL     1       1.387   7.492  20.726  0.00  0.00    +0.000 C 
ATOM      8  N   UNL     1       2.093   7.033  19.532  0.00  0.00    +0.000 N 
ATOM      9  C   UNL     1       2.232   8.062  18.601  0.00  0.00    +0.000 C 
ATOM     10  O   UNL     1       2.740   8.092  17.495  0.00  0.00    +0.000 OA
ENDROOT
BRANCH   8  11
ATOM     11  C   UNL     1       2.537   5.695  19.360  0.00  0.00    +0.000 A 
ATOM     12  C   UNL     1       2.928   5.209  18.101  0.00  0.00    +0.000 A 
ATOM     13  C   UNL     1       3.370   3.894  17.925  0.00  0.00    +0.000 A 
ATOM     14  C   UNL     1       3.423   3.032  19.011  0.00  0.00    +0.000 A 
ATOM     15  C   UNL     1       3.035   3.497  20.258  0.00  0.00    +0.000 A 
ATOM     16  F   UNL     1       3.073   2.666  21.309  0.00  0.00    +0.000 F 
ATOM     17  C   UNL     1       2.600   4.810  20.445  0.00  0.00    +0.000 A 
ENDBRANCH   8  11
BRANCH   5  18
ATOM     18  C   UNL     1      -0.067   9.649  22.579  0.00  0.00    +0.000 C 
ATOM     19  F   UNL     1      -0.709  10.718  23.126  0.00  0.00    +0.000 F 
ATOM     20  F   UNL     1      -0.956   8.620  22.631  0.00  0.00    +0.000 F 
ATOM     21  F   UNL     1       0.931   9.333  23.447  0.00  0.00    +0.000 F 
ENDBRANCH   5  18
BRANCH   1  22
ATOM     22  C   UNL     1       0.402  12.776  18.603  0.00  0.00    +0.000 C 
BRANCH  22  26
ATOM     23  C   UNL     1       4.806  14.716  17.938  0.00  0.00    +0.000 C 
ATOM     24  C   UNL     1       3.576  14.482  18.758  0.00  0.00    +0.000 C 
ATOM     25  N   UNL     1       2.542  13.881  18.252  0.00  0.00    +0.000 NA
ATOM     26  N   UNL     1       1.379  13.811  18.939  0.00  0.00    +0.000 N 
ATOM     27  C   UNL     1       0.993  14.757  19.978  0.00  0.00    +0.000 C 
ATOM     28  C   UNL     1       1.711  14.457  21.285  0.00  0.00    +0.000 C 
ATOM     29  C   UNL     1       3.189  14.175  21.077  0.00  0.00    +0.000 C 
ATOM     30  O   UNL     1       3.742  14.968  20.020  0.00  0.00    +0.000 OA
ENDBRANCH  22  26
ENDBRANCH   1  22
TORSDOF 4
ENDMDL
