MODEL 1
REMARK VINA RESULT:      -9.2      0.000      0.000
REMARK  Name = 
REMARK  5 active torsions:
REMARK  status: ('A' for Active; 'I' for Inactive)
REMARK    1  A    between atoms: S_2  and  C_4
REMARK    2  A    between atoms: S_2  and  N_11
REMARK    3  A    between atoms: C_4  and  C_5
REMARK    4  A    between atoms: C_18  and  C_19
REMARK    5  A    between atoms: C_22  and  C_23
REMARK                            x       y       z     vdW  Elec       q    Type
REMARK                         _______ _______ _______ _____ _____    ______ ____
ROOT
ATOM      1  N   UNL     1       3.401   3.573  18.555  0.00  0.00    +0.000 NA
ATOM      2  C   UNL     1       4.744   3.521  19.194  0.00  0.00    +0.000 C 
ATOM      3  C   UNL     1       5.447   4.876  19.143  0.00  0.00    +0.000 C 
ATOM      4  C   UNL     1       5.527   5.398  17.717  0.00  0.00    +0.000 C 
ATOM      5  C   UNL     1       4.206   5.318  16.959  0.00  0.00    +0.000 C 
ATOM      6  C   UNL     1       3.536   3.950  17.113  0.00  0.00    +0.000 C 
ATOM      7  C   UNL     1       6.360   6.626  17.477  0.00  0.00    +0.000 C 
ATOM      8  C   UNL     1       6.891   5.277  17.045  0.00  0.00    +0.000 C 
ENDROOT
BRANCH   8   9
ATOM      9  C   UNL     1       7.056   4.992  15.567  0.00  0.00    +0.000 A 
ATOM     10  N   UNL     1       7.853   5.709  14.802  0.00  0.00    +0.000 NA
ATOM     11  N   UNL     1       7.731   5.206  13.526  0.00  0.00    +0.000 NA
ATOM     12  C   UNL     1       6.859   4.221  13.595  0.00  0.00    +0.000 A 
ATOM     13  O   UNL     1       6.396   4.018  14.867  0.00  0.00    +0.000 OA
BRANCH  12  14
ATOM     14  C   UNL     1       6.299   3.396  12.538  0.00  0.00    +0.000 A 
ATOM     15  C   UNL     1       7.054   2.407  11.884  0.00  0.00    +0.000 A 
ATOM     16  C   UNL     1       6.469   1.586  10.915  0.00  0.00    +0.000 A 
ATOM     17  C   UNL     1       5.125   1.750  10.587  0.00  0.00    +0.000 A 
ATOM     18  C   UNL     1       4.383   2.741  11.218  0.00  0.00    +0.000 A 
ATOM     19  F   UNL     1       3.091   2.899  10.900  0.00  0.00    +0.000 F 
ATOM     20  C   UNL     1       4.954   3.564  12.180  0.00  0.00    +0.000 A 
ENDBRANCH  12  14
ENDBRANCH   8   9
BRANCH   1  22
ATOM     21  O   UNL     1       1.665   3.418  20.399  0.00  0.00    +0.000 OA
ATOM     22  S   UNL     1       2.121   4.354  19.391  0.00  0.00    +0.000 S 
ATOM     23  O   UNL     1       1.203   4.881  18.403  0.00  0.00    +0.000 OA
BRANCH  22  24
ATOM     24  C   UNL     1       2.976   5.716  20.194  0.00  0.00    +0.000 C 
BRANCH  24  25
ATOM     25  C   UNL     1       2.355   7.029  19.793  0.00  0.00    +0.000 A 
ATOM     26  C   UNL     1       2.529   7.527  18.496  0.00  0.00    +0.000 A 
ATOM     27  C   UNL     1       1.905   8.713  18.104  0.00  0.00    +0.000 A 
ATOM     28  C   UNL     1       1.103   9.413  18.998  0.00  0.00    +0.000 A 
ATOM     29  C   UNL     1       0.942   8.940  20.300  0.00  0.00    +0.000 A 
ATOM     30  C   UNL     1       1.568   7.759  20.698  0.00  0.00    +0.000 A 
ENDBRANCH  24  25
ENDBRANCH  22  24
ENDBRANCH   1  22
TORSDOF 5
ENDMDL
MODEL 2
REMARK VINA RESULT:      -9.1      0.877      1.508
REMARK  Name = 
REMARK  5 active torsions:
REMARK  status: ('A' for Active; 'I' for Inactive)
REMARK    1  A    between atoms: S_2  and  C_4
REMARK    2  A    between atoms: S_2  and  N_11
REMARK    3  A    between atoms: C_4  and  C_5
REMARK    4  A    between atoms: C_18  and  C_19
REMARK    5  A    between atoms: C_22  and  C_23
REMARK                            x       y       z     vdW  Elec       q    Type
REMARK                         _______ _______ _______ _____ _____    ______ ____
ROOT
ATOM      1  N   UNL     1       3.467   3.763  18.816  0.00  0.00    +0.000 NA
ATOM      2  C   UNL     1       4.849   3.654  19.355  0.00  0.00    +0.000 C 
ATOM      3  C   UNL     1       5.612   4.972  19.224  0.00  0.00    +0.000 C 
ATOM      4  C   UNL     1       5.611   5.465  17.786  0.00  0.00    +0.000 C 
ATOM      5  C   UNL     1       4.235   5.438  17.129  0.00  0.00    +0.000 C 
ATOM      6  C   UNL     1       3.512   4.108  17.360  0.00  0.00    +0.000 C 
ATOM      7  C   UNL     1       6.483   6.644  17.460  0.00  0.00    +0.000 C 
ATOM      8  C   UNL     1       6.914   5.263  17.018  0.00  0.00    +0.000 C 
ENDROOT
BRANCH   8   9
ATOM      9  C   UNL     1       6.954   4.946  15.538  0.00  0.00    +0.000 A 
ATOM     10  N   UNL     1       7.766   5.571  14.710  0.00  0.00    +0.000 NA
ATOM     11  N   UNL     1       7.513   5.067  13.455  0.00  0.00    +0.000 NA
ATOM     12  C   UNL     1       6.555   4.174  13.597  0.00  0.00    +0.000 A 
ATOM     13  O   UNL     1       6.157   4.033  14.899  0.00  0.00    +0.000 OA
BRANCH  12  14
ATOM     14  C   UNL     1       5.849   3.396  12.592  0.00  0.00    +0.000 A 
ATOM     15  C   UNL     1       4.618   3.811  12.056  0.00  0.00    +0.000 A 
ATOM     16  C   UNL     1       3.995   3.074  11.044  0.00  0.00    +0.000 A 
ATOM     17  C   UNL     1       4.593   1.912  10.565  0.00  0.00    +0.000 A 
ATOM     18  C   UNL     1       5.800   1.488  11.108  0.00  0.00    +0.000 A 
ATOM     19  F   UNL     1       6.374   0.370  10.648  0.00  0.00    +0.000 F 
ATOM     20  C   UNL     1       6.427   2.212  12.115  0.00  0.00    +0.000 A 
ENDBRANCH  12  14
ENDBRANCH   8   9
BRANCH   1  22
ATOM     21  O   UNL     1       2.112   3.876  20.957  0.00  0.00    +0.000 OA
ATOM     22  S   UNL     1       2.292   4.621  19.727  0.00  0.00    +0.000 S 
ATOM     23  O   UNL     1       1.168   4.894  18.856  0.00  0.00    +0.000 OA
BRANCH  22  24
ATOM     24  C   UNL     1       3.151   6.158  20.089  0.00  0.00    +0.000 C 
BRANCH  24  25
ATOM     25  C   UNL     1       2.236   7.333  19.858  0.00  0.00    +0.000 A 
ATOM     26  C   UNL     1       1.375   7.768  20.873  0.00  0.00    +0.000 A 
ATOM     27  C   UNL     1       0.570   8.894  20.683  0.00  0.00    +0.000 A 
ATOM     28  C   UNL     1       0.616   9.594  19.483  0.00  0.00    +0.000 A 
ATOM     29  C   UNL     1       1.451   9.157  18.457  0.00  0.00    +0.000 A 
ATOM     30  C   UNL     1       2.252   8.030  18.640  0.00  0.00    +0.000 A 
ENDBRANCH  24  25
ENDBRANCH  22  24
ENDBRANCH   1  22
TORSDOF 5
ENDMDL
MODEL 3
REMARK VINA RESULT:      -9.0      0.670      1.149
REMARK  Name = 
REMARK  5 active torsions:
REMARK  status: ('A' for Active; 'I' for Inactive)
REMARK    1  A    between atoms: S_2  and  C_4
REMARK    2  A    between atoms: S_2  and  N_11
REMARK    3  A    between atoms: C_4  and  C_5
REMARK    4  A    between atoms: C_18  and  C_19
REMARK    5  A    between atoms: C_22  and  C_23
REMARK                            x       y       z     vdW  Elec       q    Type
REMARK                         _______ _______ _______ _____ _____    ______ ____
ROOT
ATOM      1  N   UNL     1       3.396   4.042  18.748  0.00  0.00    +0.000 NA
ATOM      2  C   UNL     1       4.723   3.630  19.279  0.00  0.00    +0.000 C 
ATOM      3  C   UNL     1       5.718   4.789  19.275  0.00  0.00    +0.000 C 
ATOM      4  C   UNL     1       5.838   5.403  17.889  0.00  0.00    +0.000 C 
ATOM      5  C   UNL     1       4.494   5.693  17.229  0.00  0.00    +0.000 C 
ATOM      6  C   UNL     1       3.534   4.505  17.331  0.00  0.00    +0.000 C 
ATOM      7  C   UNL     1       6.919   6.425  17.679  0.00  0.00    +0.000 C 
ATOM      8  C   UNL     1       7.097   5.035  17.109  0.00  0.00    +0.000 C 
ENDROOT
BRANCH   8   9
ATOM      9  C   UNL     1       7.107   4.853  15.606  0.00  0.00    +0.000 A 
ATOM     10  N   UNL     1       7.755   5.675  14.807  0.00  0.00    +0.000 NA
ATOM     11  N   UNL     1       7.522   5.242  13.522  0.00  0.00    +0.000 NA
ATOM     12  C   UNL     1       6.738   4.187  13.621  0.00  0.00    +0.000 A 
ATOM     13  O   UNL     1       6.443   3.872  14.920  0.00  0.00    +0.000 OA
BRANCH  12  14
ATOM     14  C   UNL     1       6.119   3.384  12.579  0.00  0.00    +0.000 A 
ATOM     15  C   UNL     1       6.779   2.293  11.988  0.00  0.00    +0.000 A 
ATOM     16  C   UNL     1       6.134   1.500  11.033  0.00  0.00    +0.000 A 
ATOM     17  C   UNL     1       4.826   1.795  10.658  0.00  0.00    +0.000 A 
ATOM     18  C   UNL     1       4.179   2.886  11.227  0.00  0.00    +0.000 A 
ATOM     19  F   UNL     1       2.922   3.169  10.863  0.00  0.00    +0.000 F 
ATOM     20  C   UNL     1       4.811   3.681  12.174  0.00  0.00    +0.000 A 
ENDBRANCH  12  14
ENDBRANCH   8   9
BRANCH   1  22
ATOM     21  O   UNL     1       2.729   4.704  21.104  0.00  0.00    +0.000 OA
ATOM     22  S   UNL     1       2.381   5.016  19.732  0.00  0.00    +0.000 S 
ATOM     23  O   UNL     1       1.022   4.859  19.260  0.00  0.00    +0.000 OA
BRANCH  22  24
ATOM     24  C   UNL     1       2.960   6.673  19.340  0.00  0.00    +0.000 C 
BRANCH  24  25
ATOM     25  C   UNL     1       1.925   7.693  19.737  0.00  0.00    +0.000 A 
ATOM     26  C   UNL     1       1.292   7.610  20.984  0.00  0.00    +0.000 A 
ATOM     27  C   UNL     1       0.378   8.589  21.379  0.00  0.00    +0.000 A 
ATOM     28  C   UNL     1       0.087   9.657  20.539  0.00  0.00    +0.000 A 
ATOM     29  C   UNL     1       0.692   9.738  19.286  0.00  0.00    +0.000 A 
ATOM     30  C   UNL     1       1.601   8.760  18.884  0.00  0.00    +0.000 A 
ENDBRANCH  24  25
ENDBRANCH  22  24
ENDBRANCH   1  22
TORSDOF 5
ENDMDL
MODEL 4
REMARK VINA RESULT:      -8.6      5.012      7.634
REMARK  Name = 
REMARK  5 active torsions:
REMARK  status: ('A' for Active; 'I' for Inactive)
REMARK    1  A    between atoms: S_2  and  C_4
REMARK    2  A    between atoms: S_2  and  N_11
REMARK    3  A    between atoms: C_4  and  C_5
REMARK    4  A    between atoms: C_18  and  C_19
REMARK    5  A    between atoms: C_22  and  C_23
REMARK                            x       y       z     vdW  Elec       q    Type
REMARK                         _______ _______ _______ _____ _____    ______ ____
ROOT
ATOM      1  N   UNL     1       4.771   4.812  16.340  0.00  0.00    +0.000 NA
ATOM      2  C   UNL     1       6.156   4.276  16.245  0.00  0.00    +0.000 C 
ATOM      3  C   UNL     1       6.826   4.196  17.616  0.00  0.00    +0.000 C 
ATOM      4  C   UNL     1       6.795   5.543  18.320  0.00  0.00    +0.000 C 
ATOM      5  C   UNL     1       5.426   6.216  18.299  0.00  0.00    +0.000 C 
ATOM      6  C   UNL     1       4.797   6.198  16.904  0.00  0.00    +0.000 C 
ATOM      7  C   UNL     1       7.584   5.675  19.591  0.00  0.00    +0.000 C 
ATOM      8  C   UNL     1       8.112   6.315  18.326  0.00  0.00    +0.000 C 
ENDROOT
BRANCH   8   9
ATOM      9  C   UNL     1       8.178   7.825  18.240  0.00  0.00    +0.000 A 
ATOM     10  N   UNL     1       7.531   8.502  17.313  0.00  0.00    +0.000 NA
ATOM     11  N   UNL     1       7.843   9.828  17.504  0.00  0.00    +0.000 NA
ATOM     12  C   UNL     1       8.669   9.874  18.529  0.00  0.00    +0.000 A 
ATOM     13  O   UNL     1       8.918   8.636  19.059  0.00  0.00    +0.000 OA
BRANCH  12  14
ATOM     14  C   UNL     1       9.371  11.005  19.112  0.00  0.00    +0.000 A 
ATOM     15  C   UNL     1       9.632  11.091  20.491  0.00  0.00    +0.000 A 
ATOM     16  C   UNL     1      10.366  12.161  21.013  0.00  0.00    +0.000 A 
ATOM     17  C   UNL     1      10.839  13.157  20.163  0.00  0.00    +0.000 A 
ATOM     18  C   UNL     1      10.564  13.085  18.803  0.00  0.00    +0.000 A 
ATOM     19  F   UNL     1      11.018  14.044  17.986  0.00  0.00    +0.000 F 
ATOM     20  C   UNL     1       9.834  12.027  18.273  0.00  0.00    +0.000 A 
ENDBRANCH  12  14
ENDBRANCH   8   9
BRANCH   1  22
ATOM     21  O   UNL     1       4.205   2.810  17.791  0.00  0.00    +0.000 OA
ATOM     22  S   UNL     1       3.536   3.797  16.968  0.00  0.00    +0.000 S 
ATOM     23  O   UNL     1       2.692   3.391  15.864  0.00  0.00    +0.000 OA
BRANCH  22  24
ATOM     24  C   UNL     1       2.627   4.930  18.027  0.00  0.00    +0.000 C 
BRANCH  24  25
ATOM     25  C   UNL     1       2.201   4.231  19.293  0.00  0.00    +0.000 A 
ATOM     26  C   UNL     1       2.801   4.557  20.516  0.00  0.00    +0.000 A 
ATOM     27  C   UNL     1       2.366   3.955  21.699  0.00  0.00    +0.000 A 
ATOM     28  C   UNL     1       1.332   3.026  21.674  0.00  0.00    +0.000 A 
ATOM     29  C   UNL     1       0.745   2.676  20.460  0.00  0.00    +0.000 A 
ATOM     30  C   UNL     1       1.179   3.270  19.275  0.00  0.00    +0.000 A 
ENDBRANCH  24  25
ENDBRANCH  22  24
ENDBRANCH   1  22
TORSDOF 5
ENDMDL
MODEL 5
REMARK VINA RESULT:      -8.5      3.917      9.431
REMARK  Name = 
REMARK  5 active torsions:
REMARK  status: ('A' for Active; 'I' for Inactive)
REMARK    1  A    between atoms: S_2  and  C_4
REMARK    2  A    between atoms: S_2  and  N_11
REMARK    3  A    between atoms: C_4  and  C_5
REMARK    4  A    between atoms: C_18  and  C_19
REMARK    5  A    between atoms: C_22  and  C_23
REMARK                            x       y       z     vdW  Elec       q    Type
REMARK                         _______ _______ _______ _____ _____    ______ ____
ROOT
ATOM      1  N   UNL     1       6.305   5.744  17.987  0.00  0.00    +0.000 NA
ATOM      2  C   UNL     1       5.947   5.231  19.338  0.00  0.00    +0.000 C 
ATOM      3  C   UNL     1       4.584   4.543  19.338  0.00  0.00    +0.000 C 
ATOM      4  C   UNL     1       3.506   5.462  18.786  0.00  0.00    +0.000 C 
ATOM      5  C   UNL     1       3.893   6.145  17.479  0.00  0.00    +0.000 C 
ATOM      6  C   UNL     1       5.296   6.755  17.540  0.00  0.00    +0.000 C 
ATOM      7  C   UNL     1       2.081   5.000  18.901  0.00  0.00    +0.000 C 
ATOM      8  C   UNL     1       2.580   6.091  19.823  0.00  0.00    +0.000 C 
ENDROOT
BRANCH   8   9
ATOM      9  C   UNL     1       2.016   7.489  19.679  0.00  0.00    +0.000 A 
ATOM     10  N   UNL     1       2.092   8.161  18.548  0.00  0.00    +0.000 NA
ATOM     11  N   UNL     1       1.523   9.391  18.782  0.00  0.00    +0.000 NA
ATOM     12  C   UNL     1       1.145   9.394  20.044  0.00  0.00    +0.000 A 
ATOM     13  O   UNL     1       1.415   8.210  20.676  0.00  0.00    +0.000 OA
BRANCH  12  14
ATOM     14  C   UNL     1       0.562  10.461  20.841  0.00  0.00    +0.000 A 
ATOM     15  C   UNL     1       0.841  11.816  20.592  0.00  0.00    +0.000 A 
ATOM     16  C   UNL     1       0.215  12.822  21.334  0.00  0.00    +0.000 A 
ATOM     17  C   UNL     1      -0.692  12.483  22.335  0.00  0.00    +0.000 A 
ATOM     18  C   UNL     1      -0.954  11.143  22.596  0.00  0.00    +0.000 A 
ATOM     19  F   UNL     1      -1.824  10.818  23.560  0.00  0.00    +0.000 F 
ATOM     20  C   UNL     1      -0.335  10.135  21.866  0.00  0.00    +0.000 A 
ENDBRANCH  12  14
ENDBRANCH   8   9
BRANCH   1  22
ATOM     21  O   UNL     1       5.718   3.648  16.684  0.00  0.00    +0.000 OA
ATOM     22  S   UNL     1       6.787   4.621  16.781  0.00  0.00    +0.000 S 
ATOM     23  O   UNL     1       8.141   4.203  17.081  0.00  0.00    +0.000 OA
BRANCH  22  24
ATOM     24  C   UNL     1       6.794   5.642  15.302  0.00  0.00    +0.000 C 
BRANCH  24  25
ATOM     25  C   UNL     1       6.555   4.791  14.081  0.00  0.00    +0.000 A 
ATOM     26  C   UNL     1       5.334   4.127  13.910  0.00  0.00    +0.000 A 
ATOM     27  C   UNL     1       5.088   3.388  12.751  0.00  0.00    +0.000 A 
ATOM     28  C   UNL     1       6.054   3.304  11.754  0.00  0.00    +0.000 A 
ATOM     29  C   UNL     1       7.282   3.941  11.924  0.00  0.00    +0.000 A 
ATOM     30  C   UNL     1       7.534   4.675  13.082  0.00  0.00    +0.000 A 
ENDBRANCH  24  25
ENDBRANCH  22  24
ENDBRANCH   1  22
TORSDOF 5
ENDMDL
MODEL 6
REMARK VINA RESULT:      -8.5      5.095      7.688
REMARK  Name = 
REMARK  5 active torsions:
REMARK  status: ('A' for Active; 'I' for Inactive)
REMARK    1  A    between atoms: S_2  and  C_4
REMARK    2  A    between atoms: S_2  and  N_11
REMARK    3  A    between atoms: C_4  and  C_5
REMARK    4  A    between atoms: C_18  and  C_19
REMARK    5  A    between atoms: C_22  and  C_23
REMARK                            x       y       z     vdW  Elec       q    Type
REMARK                         _______ _______ _______ _____ _____    ______ ____
ROOT
ATOM      1  N   UNL     1       4.635   4.843  16.388  0.00  0.00    +0.000 NA
ATOM      2  C   UNL     1       6.007   4.297  16.202  0.00  0.00    +0.000 C 
ATOM      3  C   UNL     1       6.745   4.159  17.533  0.00  0.00    +0.000 C 
ATOM      4  C   UNL     1       6.767   5.479  18.287  0.00  0.00    +0.000 C 
ATOM      5  C   UNL     1       5.406   6.165  18.362  0.00  0.00    +0.000 C 
ATOM      6  C   UNL     1       4.706   6.206  17.002  0.00  0.00    +0.000 C 
ATOM      7  C   UNL     1       7.621   5.555  19.520  0.00  0.00    +0.000 C 
ATOM      8  C   UNL     1       8.090   6.237  18.254  0.00  0.00    +0.000 C 
ENDROOT
BRANCH   8   9
ATOM      9  C   UNL     1       8.170   7.749  18.221  0.00  0.00    +0.000 A 
ATOM     10  N   UNL     1       7.498   8.465  17.344  0.00  0.00    +0.000 NA
ATOM     11  N   UNL     1       7.830   9.781  17.572  0.00  0.00    +0.000 NA
ATOM     12  C   UNL     1       8.693   9.780  18.568  0.00  0.00    +0.000 A 
ATOM     13  O   UNL     1       8.948   8.522  19.042  0.00  0.00    +0.000 OA
BRANCH  12  14
ATOM     14  C   UNL     1       9.428  10.883  19.166  0.00  0.00    +0.000 A 
ATOM     15  C   UNL     1      10.265  11.720  18.408  0.00  0.00    +0.000 A 
ATOM     16  C   UNL     1      10.908  12.812  19.000  0.00  0.00    +0.000 A 
ATOM     17  C   UNL     1      10.725  13.073  20.355  0.00  0.00    +0.000 A 
ATOM     18  C   UNL     1       9.914  12.234  21.111  0.00  0.00    +0.000 A 
ATOM     19  F   UNL     1       9.740  12.484  22.414  0.00  0.00    +0.000 F 
ATOM     20  C   UNL     1       9.272  11.145  20.533  0.00  0.00    +0.000 A 
ENDBRANCH  12  14
ENDBRANCH   8   9
BRANCH   1  22
ATOM     21  O   UNL     1       4.119   2.813  17.820  0.00  0.00    +0.000 OA
ATOM     22  S   UNL     1       3.423   3.818  17.042  0.00  0.00    +0.000 S 
ATOM     23  O   UNL     1       2.538   3.434  15.962  0.00  0.00    +0.000 OA
BRANCH  22  24
ATOM     24  C   UNL     1       2.554   4.930  18.155  0.00  0.00    +0.000 C 
BRANCH  24  25
ATOM     25  C   UNL     1       2.143   4.198  19.407  0.00  0.00    +0.000 A 
ATOM     26  C   UNL     1       2.783   4.465  20.623  0.00  0.00    +0.000 A 
ATOM     27  C   UNL     1       2.364   3.832  21.796  0.00  0.00    +0.000 A 
ATOM     28  C   UNL     1       1.305   2.932  21.767  0.00  0.00    +0.000 A 
ATOM     29  C   UNL     1       0.676   2.641  20.558  0.00  0.00    +0.000 A 
ATOM     30  C   UNL     1       1.095   3.265  19.383  0.00  0.00    +0.000 A 
ENDBRANCH  24  25
ENDBRANCH  22  24
ENDBRANCH   1  22
TORSDOF 5
ENDMDL
MODEL 7
REMARK VINA RESULT:      -8.5      5.544      8.561
REMARK  Name = 
REMARK  5 active torsions:
REMARK  status: ('A' for Active; 'I' for Inactive)
REMARK    1  A    between atoms: S_2  and  C_4
REMARK    2  A    between atoms: S_2  and  N_11
REMARK    3  A    between atoms: C_4  and  C_5
REMARK    4  A    between atoms: C_18  and  C_19
REMARK    5  A    between atoms: C_22  and  C_23
REMARK                            x       y       z     vdW  Elec       q    Type
REMARK                         _______ _______ _______ _____ _____    ______ ____
ROOT
ATOM      1  N   UNL     1       0.708  11.486  21.628  0.00  0.00    +0.000 NA
ATOM      2  C   UNL     1       1.339  12.115  20.437  0.00  0.00    +0.000 C 
ATOM      3  C   UNL     1       0.663  11.674  19.140  0.00  0.00    +0.000 C 
ATOM      4  C   UNL     1       0.638  10.158  19.024  0.00  0.00    +0.000 C 
ATOM      5  C   UNL     1       0.153   9.454  20.286  0.00  0.00    +0.000 C 
ATOM      6  C   UNL     1       0.833   9.997  21.546  0.00  0.00    +0.000 C 
ATOM      7  C   UNL     1       0.181   9.574  17.717  0.00  0.00    +0.000 C 
ATOM      8  C   UNL     1       1.655   9.553  18.060  0.00  0.00    +0.000 C 
ENDROOT
BRANCH   8   9
ATOM      9  C   UNL     1       2.331   8.222  18.310  0.00  0.00    +0.000 A 
ATOM     10  N   UNL     1       3.388   7.835  17.626  0.00  0.00    +0.000 NA
ATOM     11  N   UNL     1       3.714   6.578  18.080  0.00  0.00    +0.000 NA
ATOM     12  C   UNL     1       2.827   6.275  19.006  0.00  0.00    +0.000 A 
ATOM     13  O   UNL     1       1.923   7.280  19.217  0.00  0.00    +0.000 OA
BRANCH  12  14
ATOM     14  C   UNL     1       2.649   5.044  19.760  0.00  0.00    +0.000 A 
ATOM     15  C   UNL     1       1.466   4.768  20.468  0.00  0.00    +0.000 A 
ATOM     16  C   UNL     1       1.299   3.548  21.130  0.00  0.00    +0.000 A 
ATOM     17  C   UNL     1       2.315   2.596  21.096  0.00  0.00    +0.000 A 
ATOM     18  C   UNL     1       3.493   2.876  20.414  0.00  0.00    +0.000 A 
ATOM     19  F   UNL     1       4.470   1.961  20.383  0.00  0.00    +0.000 F 
ATOM     20  C   UNL     1       3.670   4.086  19.754  0.00  0.00    +0.000 A 
ENDBRANCH  12  14
ENDBRANCH   8   9
BRANCH   1  22
ATOM     21  O   UNL     1      -1.067  11.453  23.441  0.00  0.00    +0.000 OA
ATOM     22  S   UNL     1      -0.827  12.056  22.145  0.00  0.00    +0.000 S 
ATOM     23  O   UNL     1      -1.761  11.864  21.056  0.00  0.00    +0.000 OA
BRANCH  22  24
ATOM     24  C   UNL     1      -0.518  13.814  22.360  0.00  0.00    +0.000 C 
BRANCH  24  25
ATOM     25  C   UNL     1      -1.529  14.408  23.308  0.00  0.00    +0.000 A 
ATOM     26  C   UNL     1      -2.893  14.379  22.995  0.00  0.00    +0.000 A 
ATOM     27  C   UNL     1      -3.836  14.874  23.899  0.00  0.00    +0.000 A 
ATOM     28  C   UNL     1      -3.429  15.400  25.119  0.00  0.00    +0.000 A 
ATOM     29  C   UNL     1      -2.072  15.457  25.431  0.00  0.00    +0.000 A 
ATOM     30  C   UNL     1      -1.126  14.969  24.530  0.00  0.00    +0.000 A 
ENDBRANCH  24  25
ENDBRANCH  22  24
ENDBRANCH   1  22
TORSDOF 5
ENDMDL
MODEL 8
REMARK VINA RESULT:      -8.5      1.111      1.567
REMARK  Name = 
REMARK  5 active torsions:
REMARK  status: ('A' for Active; 'I' for Inactive)
REMARK    1  A    between atoms: S_2  and  C_4
REMARK    2  A    between atoms: S_2  and  N_11
REMARK    3  A    between atoms: C_4  and  C_5
REMARK    4  A    between atoms: C_18  and  C_19
REMARK    5  A    between atoms: C_22  and  C_23
REMARK                            x       y       z     vdW  Elec       q    Type
REMARK                         _______ _______ _______ _____ _____    ______ ____
ROOT
ATOM      1  N   UNL     1       3.323   4.202  18.810  0.00  0.00    +0.000 NA
ATOM      2  C   UNL     1       4.652   3.795  19.342  0.00  0.00    +0.000 C 
ATOM      3  C   UNL     1       5.658   4.943  19.285  0.00  0.00    +0.000 C 
ATOM      4  C   UNL     1       5.769   5.506  17.877  0.00  0.00    +0.000 C 
ATOM      5  C   UNL     1       4.421   5.785  17.221  0.00  0.00    +0.000 C 
ATOM      6  C   UNL     1       3.450   4.612  17.376  0.00  0.00    +0.000 C 
ATOM      7  C   UNL     1       6.858   6.508  17.618  0.00  0.00    +0.000 C 
ATOM      8  C   UNL     1       7.016   5.096  17.098  0.00  0.00    +0.000 C 
ENDROOT
BRANCH   8   9
ATOM      9  C   UNL     1       7.009   4.860  15.603  0.00  0.00    +0.000 A 
ATOM     10  N   UNL     1       7.748   5.573  14.779  0.00  0.00    +0.000 NA
ATOM     11  N   UNL     1       7.470   5.122  13.509  0.00  0.00    +0.000 NA
ATOM     12  C   UNL     1       6.570   4.169  13.641  0.00  0.00    +0.000 A 
ATOM     13  O   UNL     1       6.237   3.937  14.948  0.00  0.00    +0.000 OA
BRANCH  12  14
ATOM     14  C   UNL     1       5.865   3.405  12.624  0.00  0.00    +0.000 A 
ATOM     15  C   UNL     1       4.634   3.827  12.093  0.00  0.00    +0.000 A 
ATOM     16  C   UNL     1       4.012   3.104  11.071  0.00  0.00    +0.000 A 
ATOM     17  C   UNL     1       4.612   1.950  10.574  0.00  0.00    +0.000 A 
ATOM     18  C   UNL     1       5.819   1.519  11.112  0.00  0.00    +0.000 A 
ATOM     19  F   UNL     1       6.394   0.408  10.636  0.00  0.00    +0.000 F 
ATOM     20  C   UNL     1       6.445   2.229  12.130  0.00  0.00    +0.000 A 
ENDBRANCH  12  14
ENDBRANCH   8   9
BRANCH   1  22
ATOM     21  O   UNL     1       2.988   5.336  21.054  0.00  0.00    +0.000 OA
ATOM     22  S   UNL     1       2.329   5.222  19.769  0.00  0.00    +0.000 S 
ATOM     23  O   UNL     1       0.970   4.730  19.676  0.00  0.00    +0.000 OA
BRANCH  22  24
ATOM     24  C   UNL     1       2.455   6.790  18.899  0.00  0.00    +0.000 C 
BRANCH  24  25
ATOM     25  C   UNL     1       1.752   7.874  19.675  0.00  0.00    +0.000 A 
ATOM     26  C   UNL     1       1.464   9.103  19.070  0.00  0.00    +0.000 A 
ATOM     27  C   UNL     1       0.759  10.087  19.768  0.00  0.00    +0.000 A 
ATOM     28  C   UNL     1       0.336   9.854  21.071  0.00  0.00    +0.000 A 
ATOM     29  C   UNL     1       0.638   8.644  21.692  0.00  0.00    +0.000 A 
ATOM     30  C   UNL     1       1.347   7.661  21.002  0.00  0.00    +0.000 A 
ENDBRANCH  24  25
ENDBRANCH  22  24
ENDBRANCH   1  22
TORSDOF 5
ENDMDL
MODEL 9
REMARK VINA RESULT:      -8.4      5.583      8.409
REMARK  Name = 
REMARK  5 active torsions:
REMARK  status: ('A' for Active; 'I' for Inactive)
REMARK    1  A    between atoms: S_2  and  C_4
REMARK    2  A    between atoms: S_2  and  N_11
REMARK    3  A    between atoms: C_4  and  C_5
REMARK    4  A    between atoms: C_18  and  C_19
REMARK    5  A    between atoms: C_22  and  C_23
REMARK                            x       y       z     vdW  Elec       q    Type
REMARK                         _______ _______ _______ _____ _____    ______ ____
ROOT
ATOM      1  N   UNL     1       0.673  11.457  21.627  0.00  0.00    +0.000 NA
ATOM      2  C   UNL     1       1.290  12.125  20.450  0.00  0.00    +0.000 C 
ATOM      3  C   UNL     1       0.570  11.762  19.152  0.00  0.00    +0.000 C 
ATOM      4  C   UNL     1       0.502  10.254  18.967  0.00  0.00    +0.000 C 
ATOM      5  C   UNL     1       0.031   9.504  20.208  0.00  0.00    +0.000 C 
ATOM      6  C   UNL     1       0.756   9.971  21.473  0.00  0.00    +0.000 C 
ATOM      7  C   UNL     1      -0.003   9.744  17.647  0.00  0.00    +0.000 C 
ATOM      8  C   UNL     1       1.478   9.669  17.950  0.00  0.00    +0.000 C 
ENDROOT
BRANCH   8   9
ATOM      9  C   UNL     1       2.125   8.311  18.121  0.00  0.00    +0.000 A 
ATOM     10  N   UNL     1       3.395   8.102  17.843  0.00  0.00    +0.000 NA
ATOM     11  N   UNL     1       3.634   6.766  18.072  0.00  0.00    +0.000 NA
ATOM     12  C   UNL     1       2.490   6.245  18.465  0.00  0.00    +0.000 A 
ATOM     13  O   UNL     1       1.486   7.172  18.533  0.00  0.00    +0.000 OA
BRANCH  12  14
ATOM     14  C   UNL     1       2.148   4.864  18.765  0.00  0.00    +0.000 A 
ATOM     15  C   UNL     1       2.279   3.840  17.811  0.00  0.00    +0.000 A 
ATOM     16  C   UNL     1       2.003   2.511  18.148  0.00  0.00    +0.000 A 
ATOM     17  C   UNL     1       1.589   2.195  19.440  0.00  0.00    +0.000 A 
ATOM     18  C   UNL     1       1.440   3.209  20.378  0.00  0.00    +0.000 A 
ATOM     19  F   UNL     1       1.040   2.905  21.619  0.00  0.00    +0.000 F 
ATOM     20  C   UNL     1       1.709   4.533  20.053  0.00  0.00    +0.000 A 
ENDBRANCH  12  14
ENDBRANCH   8   9
BRANCH   1  22
ATOM     21  O   UNL     1      -1.060  11.376  23.477  0.00  0.00    +0.000 OA
ATOM     22  S   UNL     1      -0.832  12.041  22.210  0.00  0.00    +0.000 S 
ATOM     23  O   UNL     1      -1.796  11.934  21.135  0.00  0.00    +0.000 OA
BRANCH  22  24
ATOM     24  C   UNL     1      -0.467  13.776  22.512  0.00  0.00    +0.000 C 
BRANCH  24  25
ATOM     25  C   UNL     1      -1.497  14.371  23.437  0.00  0.00    +0.000 A 
ATOM     26  C   UNL     1      -1.101  15.005  24.621  0.00  0.00    +0.000 A 
ATOM     27  C   UNL     1      -2.049  15.611  25.449  0.00  0.00    +0.000 A 
ATOM     28  C   UNL     1      -3.396  15.592  25.106  0.00  0.00    +0.000 A 
ATOM     29  C   UNL     1      -3.804  14.943  23.942  0.00  0.00    +0.000 A 
ATOM     30  C   UNL     1      -2.863  14.331  23.114  0.00  0.00    +0.000 A 
ENDBRANCH  24  25
ENDBRANCH  22  24
ENDBRANCH   1  22
TORSDOF 5
ENDMDL
