MODEL 1
REMARK VINA RESULT:      -8.5      0.000      0.000
REMARK  Name = 
REMARK  6 active torsions:
REMARK  status: ('A' for Active; 'I' for Inactive)
REMARK    1  A    between atoms: C_5  and  C_7
REMARK    2  A    between atoms: C_7  and  O_8
REMARK    3  A    between atoms: O_8  and  C_9
REMARK    4  A    between atoms: C_9  and  C_11
REMARK    5  A    between atoms: C_11  and  C_12
REMARK    6  A    between atoms: C_15  and  C_16
REMARK                            x       y       z     vdW  Elec       q    Type
REMARK                         _______ _______ _______ _____ _____    ______ ____
ROOT
ATOM      1  O   UNL     1       2.601   3.519  19.369  0.00  0.00    +0.000 OA
ENDROOT
BRANCH   1   2
ATOM      2  C   UNL     1       1.937   4.399  20.168  0.00  0.00    +0.000 C 
ATOM      3  O   UNL     1       0.756   4.330  20.477  0.00  0.00    +0.000 OA
BRANCH   2   4
ATOM      4  C   UNL     1       2.765   5.638  20.377  0.00  0.00    +0.000 C 
BRANCH   4   5
ATOM      5  C   UNL     1       2.114   6.942  20.011  0.00  0.00    +0.000 A 
ATOM      6  C   UNL     1       1.433   7.704  20.967  0.00  0.00    +0.000 A 
ATOM      7  C   UNL     1       0.918   8.965  20.637  0.00  0.00    +0.000 A 
ATOM      8  C   UNL     1       1.079   9.513  19.353  0.00  0.00    +0.000 A 
ATOM      9  C   UNL     1       1.747   8.716  18.403  0.00  0.00    +0.000 A 
ATOM     10  C   UNL     1       2.249   7.448  18.718  0.00  0.00    +0.000 A 
BRANCH   8  11
ATOM     11  C   UNL     1       0.611  10.878  19.008  0.00  0.00    +0.000 A 
ATOM     12  C   UNL     1       1.487  11.978  18.980  0.00  0.00    +0.000 A 
ATOM     13  C   UNL     1       1.049  13.247  18.591  0.00  0.00    +0.000 A 
ATOM     14  C   UNL     1      -0.275  13.448  18.214  0.00  0.00    +0.000 A 
ATOM     15  C   UNL     1      -1.167  12.382  18.244  0.00  0.00    +0.000 A 
ATOM     16  C   UNL     1      -0.728  11.120  18.646  0.00  0.00    +0.000 A 
ENDBRANCH   8  11
ENDBRANCH   4   5
ENDBRANCH   2   4
ENDBRANCH   1   2
BRANCH   1  17
ATOM     17  C   UNL     1       3.898   3.937  18.964  0.00  0.00    +0.000 C 
BRANCH  17  22
ATOM     18  O   UNL     1       7.925   6.685  18.571  0.00  0.00    +0.000 OA
ATOM     19  C   UNL     1       7.380   5.951  17.748  0.00  0.00    +0.000 C 
ATOM     20  C   UNL     1       6.595   4.715  18.155  0.00  0.00    +0.000 C 
ATOM     21  N   UNL     1       5.613   4.240  17.162  0.00  0.00    +0.000 N 
ATOM     22  C   UNL     1       4.341   3.742  17.502  0.00  0.00    +0.000 C 
ATOM     23  O   UNL     1       3.564   3.223  16.702  0.00  0.00    +0.000 OA
ATOM     24  C   UNL     1       6.067   4.298  15.800  0.00  0.00    +0.000 A 
ATOM     25  C   UNL     1       5.552   3.485  14.783  0.00  0.00    +0.000 A 
ATOM     26  C   UNL     1       5.964   3.640  13.457  0.00  0.00    +0.000 A 
ATOM     27  C   UNL     1       6.898   4.614  13.124  0.00  0.00    +0.000 A 
ATOM     28  C   UNL     1       7.439   5.423  14.118  0.00  0.00    +0.000 A 
ATOM     29  C   UNL     1       7.040   5.258  15.446  0.00  0.00    +0.000 A 
ATOM     30  N   UNL     1       7.600   6.104  16.411  0.00  0.00    +0.000 N 
ATOM     31  H   UNL     1       8.215   6.862  16.139  0.00  0.00    +0.000 HD
ENDBRANCH  17  22
ENDBRANCH   1  17
TORSDOF 6
ENDMDL
MODEL 2
REMARK VINA RESULT:      -8.4      4.888      7.462
REMARK  Name = 
REMARK  6 active torsions:
REMARK  status: ('A' for Active; 'I' for Inactive)
REMARK    1  A    between atoms: C_5  and  C_7
REMARK    2  A    between atoms: C_7  and  O_8
REMARK    3  A    between atoms: O_8  and  C_9
REMARK    4  A    between atoms: C_9  and  C_11
REMARK    5  A    between atoms: C_11  and  C_12
REMARK    6  A    between atoms: C_15  and  C_16
REMARK                            x       y       z     vdW  Elec       q    Type
REMARK                         _______ _______ _______ _____ _____    ______ ____
ROOT
ATOM      1  O   UNL     1       5.967   7.439  17.732  0.00  0.00    +0.000 OA
ENDROOT
BRANCH   1   2
ATOM      2  C   UNL     1       7.258   7.280  17.331  0.00  0.00    +0.000 C 
ATOM      3  O   UNL     1       7.633   6.597  16.389  0.00  0.00    +0.000 OA
BRANCH   2   4
ATOM      4  C   UNL     1       8.198   7.807  18.382  0.00  0.00    +0.000 C 
BRANCH   4   5
ATOM      5  C   UNL     1       8.461   9.286  18.357  0.00  0.00    +0.000 A 
ATOM      6  C   UNL     1       9.417   9.865  19.199  0.00  0.00    +0.000 A 
ATOM      7  C   UNL     1       9.725  11.228  19.096  0.00  0.00    +0.000 A 
ATOM      8  C   UNL     1       9.105  12.053  18.141  0.00  0.00    +0.000 A 
ATOM      9  C   UNL     1       8.129  11.450  17.323  0.00  0.00    +0.000 A 
ATOM     10  C   UNL     1       7.803  10.094  17.431  0.00  0.00    +0.000 A 
BRANCH   8  11
ATOM     11  C   UNL     1       9.474  13.478  17.964  0.00  0.00    +0.000 A 
ATOM     12  C   UNL     1       8.593  14.521  18.302  0.00  0.00    +0.000 A 
ATOM     13  C   UNL     1       8.975  15.861  18.191  0.00  0.00    +0.000 A 
ATOM     14  C   UNL     1      10.251  16.193  17.745  0.00  0.00    +0.000 A 
ATOM     15  C   UNL     1      11.138  15.183  17.391  0.00  0.00    +0.000 A 
ATOM     16  C   UNL     1      10.748  13.848  17.490  0.00  0.00    +0.000 A 
ENDBRANCH   8  11
ENDBRANCH   4   5
ENDBRANCH   2   4
ENDBRANCH   1   2
BRANCH   1  17
ATOM     17  C   UNL     1       4.999   6.820  16.896  0.00  0.00    +0.000 C 
BRANCH  17  22
ATOM     18  O   UNL     1       1.955   8.326  20.416  0.00  0.00    +0.000 OA
ATOM     19  C   UNL     1       2.126   7.205  19.938  0.00  0.00    +0.000 C 
ATOM     20  C   UNL     1       2.563   6.992  18.499  0.00  0.00    +0.000 C 
ATOM     21  N   UNL     1       3.196   5.689  18.221  0.00  0.00    +0.000 N 
ATOM     22  C   UNL     1       4.301   5.528  17.363  0.00  0.00    +0.000 C 
ATOM     23  O   UNL     1       4.758   4.440  17.019  0.00  0.00    +0.000 OA
ATOM     24  C   UNL     1       2.579   4.572  18.881  0.00  0.00    +0.000 A 
ATOM     25  C   UNL     1       2.669   3.257  18.412  0.00  0.00    +0.000 A 
ATOM     26  C   UNL     1       2.125   2.193  19.136  0.00  0.00    +0.000 A 
ATOM     27  C   UNL     1       1.481   2.428  20.346  0.00  0.00    +0.000 A 
ATOM     28  C   UNL     1       1.362   3.728  20.826  0.00  0.00    +0.000 A 
ATOM     29  C   UNL     1       1.891   4.793  20.094  0.00  0.00    +0.000 A 
ATOM     30  N   UNL     1       1.760   6.083  20.623  0.00  0.00    +0.000 N 
ATOM     31  H   UNL     1       1.364   6.226  21.544  0.00  0.00    +0.000 HD
ENDBRANCH  17  22
ENDBRANCH   1  17
TORSDOF 6
ENDMDL
MODEL 3
REMARK VINA RESULT:      -8.4      3.218      8.992
REMARK  Name = 
REMARK  6 active torsions:
REMARK  status: ('A' for Active; 'I' for Inactive)
REMARK    1  A    between atoms: C_5  and  C_7
REMARK    2  A    between atoms: C_7  and  O_8
REMARK    3  A    between atoms: O_8  and  C_9
REMARK    4  A    between atoms: C_9  and  C_11
REMARK    5  A    between atoms: C_11  and  C_12
REMARK    6  A    between atoms: C_15  and  C_16
REMARK                            x       y       z     vdW  Elec       q    Type
REMARK                         _______ _______ _______ _____ _____    ______ ____
ROOT
ATOM      1  O   UNL     1       2.144   6.155  19.114  0.00  0.00    +0.000 OA
ENDROOT
BRANCH   1   2
ATOM      2  C   UNL     1       2.708   5.270  19.980  0.00  0.00    +0.000 C 
ATOM      3  O   UNL     1       2.166   4.792  20.966  0.00  0.00    +0.000 OA
BRANCH   2   4
ATOM      4  C   UNL     1       4.193   5.185  19.743  0.00  0.00    +0.000 C 
BRANCH   4   5
ATOM      5  C   UNL     1       4.632   5.064  18.312  0.00  0.00    +0.000 A 
ATOM      6  C   UNL     1       5.334   6.097  17.681  0.00  0.00    +0.000 A 
ATOM      7  C   UNL     1       5.827   5.932  16.378  0.00  0.00    +0.000 A 
ATOM      8  C   UNL     1       5.649   4.730  15.672  0.00  0.00    +0.000 A 
ATOM      9  C   UNL     1       4.918   3.715  16.320  0.00  0.00    +0.000 A 
ATOM     10  C   UNL     1       4.408   3.878  17.613  0.00  0.00    +0.000 A 
BRANCH   8  11
ATOM     11  C   UNL     1       6.231   4.508  14.325  0.00  0.00    +0.000 A 
ATOM     12  C   UNL     1       5.688   3.571  13.428  0.00  0.00    +0.000 A 
ATOM     13  C   UNL     1       6.204   3.414  12.138  0.00  0.00    +0.000 A 
ATOM     14  C   UNL     1       7.271   4.198  11.710  0.00  0.00    +0.000 A 
ATOM     15  C   UNL     1       7.836   5.124  12.579  0.00  0.00    +0.000 A 
ATOM     16  C   UNL     1       7.327   5.266  13.870  0.00  0.00    +0.000 A 
ENDBRANCH   8  11
ENDBRANCH   4   5
ENDBRANCH   2   4
ENDBRANCH   1   2
BRANCH   1  17
ATOM     17  C   UNL     1       2.352   7.524  19.436  0.00  0.00    +0.000 C 
BRANCH  17  22
ATOM     18  O   UNL     1       2.287  12.159  17.875  0.00  0.00    +0.000 OA
ATOM     19  C   UNL     1       1.665  11.619  18.789  0.00  0.00    +0.000 C 
ATOM     20  C   UNL     1       1.274  10.152  18.752  0.00  0.00    +0.000 C 
ATOM     21  N   UNL     1       1.002   9.540  20.065  0.00  0.00    +0.000 N 
ATOM     22  C   UNL     1       1.394   8.233  20.412  0.00  0.00    +0.000 C 
ATOM     23  O   UNL     1       1.063   7.663  21.450  0.00  0.00    +0.000 OA
ATOM     24  C   UNL     1       0.273  10.380  20.975  0.00  0.00    +0.000 A 
ATOM     25  C   UNL     1      -0.502   9.881  22.029  0.00  0.00    +0.000 A 
ATOM     26  C   UNL     1      -1.121  10.741  22.939  0.00  0.00    +0.000 A 
ATOM     27  C   UNL     1      -0.976  12.117  22.812  0.00  0.00    +0.000 A 
ATOM     28  C   UNL     1      -0.226  12.640  21.763  0.00  0.00    +0.000 A 
ATOM     29  C   UNL     1       0.379  11.782  20.843  0.00  0.00    +0.000 A 
ATOM     30  N   UNL     1       1.135  12.351  19.811  0.00  0.00    +0.000 N 
ATOM     31  H   UNL     1       1.300  13.351  19.782  0.00  0.00    +0.000 HD
ENDBRANCH  17  22
ENDBRANCH   1  17
TORSDOF 6
ENDMDL
MODEL 4
REMARK VINA RESULT:      -8.3      5.814      9.006
REMARK  Name = 
REMARK  6 active torsions:
REMARK  status: ('A' for Active; 'I' for Inactive)
REMARK    1  A    between atoms: C_5  and  C_7
REMARK    2  A    between atoms: C_7  and  O_8
REMARK    3  A    between atoms: O_8  and  C_9
REMARK    4  A    between atoms: C_9  and  C_11
REMARK    5  A    between atoms: C_11  and  C_12
REMARK    6  A    between atoms: C_15  and  C_16
REMARK                            x       y       z     vdW  Elec       q    Type
REMARK                         _______ _______ _______ _____ _____    ______ ____
ROOT
ATOM      1  O   UNL     1       8.447   9.177  17.839  0.00  0.00    +0.000 OA
ENDROOT
BRANCH   1   2
ATOM      2  C   UNL     1       8.044   7.907  18.114  0.00  0.00    +0.000 C 
ATOM      3  O   UNL     1       8.488   7.195  19.003  0.00  0.00    +0.000 OA
BRANCH   2   4
ATOM      4  C   UNL     1       7.196   7.375  16.989  0.00  0.00    +0.000 C 
BRANCH   4   5
ATOM      5  C   UNL     1       6.029   6.515  17.386  0.00  0.00    +0.000 A 
ATOM      6  C   UNL     1       6.222   5.252  17.957  0.00  0.00    +0.000 A 
ATOM      7  C   UNL     1       5.129   4.503  18.416  0.00  0.00    +0.000 A 
ATOM      8  C   UNL     1       3.815   4.995  18.335  0.00  0.00    +0.000 A 
ATOM      9  C   UNL     1       3.646   6.257  17.734  0.00  0.00    +0.000 A 
ATOM     10  C   UNL     1       4.730   7.004  17.258  0.00  0.00    +0.000 A 
BRANCH   8  11
ATOM     11  C   UNL     1       2.656   4.252  18.886  0.00  0.00    +0.000 A 
ATOM     12  C   UNL     1       1.950   3.304  18.123  0.00  0.00    +0.000 A 
ATOM     13  C   UNL     1       0.899   2.564  18.671  0.00  0.00    +0.000 A 
ATOM     14  C   UNL     1       0.531   2.747  20.001  0.00  0.00    +0.000 A 
ATOM     15  C   UNL     1       1.202   3.686  20.776  0.00  0.00    +0.000 A 
ATOM     16  C   UNL     1       2.240   4.432  20.220  0.00  0.00    +0.000 A 
ENDBRANCH   8  11
ENDBRANCH   4   5
ENDBRANCH   2   4
ENDBRANCH   1   2
BRANCH   1  17
ATOM     17  C   UNL     1       8.908   9.916  18.961  0.00  0.00    +0.000 C 
BRANCH  17  22
ATOM     18  O   UNL     1       8.424  12.569  23.042  0.00  0.00    +0.000 OA
ATOM     19  C   UNL     1       9.161  12.732  22.071  0.00  0.00    +0.000 C 
ATOM     20  C   UNL     1       9.682  11.571  21.241  0.00  0.00    +0.000 C 
ATOM     21  N   UNL     1      10.111  11.918  19.874  0.00  0.00    +0.000 N 
ATOM     22  C   UNL     1       9.869  11.102  18.752  0.00  0.00    +0.000 C 
ATOM     23  O   UNL     1      10.330  11.311  17.631  0.00  0.00    +0.000 OA
ATOM     24  C   UNL     1      10.826  13.160  19.769  0.00  0.00    +0.000 A 
ATOM     25  C   UNL     1      11.722  13.445  18.733  0.00  0.00    +0.000 A 
ATOM     26  C   UNL     1      12.328  14.700  18.627  0.00  0.00    +0.000 A 
ATOM     27  C   UNL     1      12.046  15.693  19.558  0.00  0.00    +0.000 A 
ATOM     28  C   UNL     1      11.173  15.429  20.609  0.00  0.00    +0.000 A 
ATOM     29  C   UNL     1      10.581  14.170  20.724  0.00  0.00    +0.000 A 
ATOM     30  N   UNL     1       9.698  13.954  21.789  0.00  0.00    +0.000 N 
ATOM     31  H   UNL     1       9.439  14.713  22.408  0.00  0.00    +0.000 HD
ENDBRANCH  17  22
ENDBRANCH   1  17
TORSDOF 6
ENDMDL
MODEL 5
REMARK VINA RESULT:      -8.2      5.105     10.476
REMARK  Name = 
REMARK  6 active torsions:
REMARK  status: ('A' for Active; 'I' for Inactive)
REMARK    1  A    between atoms: C_5  and  C_7
REMARK    2  A    between atoms: C_7  and  O_8
REMARK    3  A    between atoms: O_8  and  C_9
REMARK    4  A    between atoms: C_9  and  C_11
REMARK    5  A    between atoms: C_11  and  C_12
REMARK    6  A    between atoms: C_15  and  C_16
REMARK                            x       y       z     vdW  Elec       q    Type
REMARK                         _______ _______ _______ _____ _____    ______ ____
ROOT
ATOM      1  O   UNL     1      -0.555  10.387  19.826  0.00  0.00    +0.000 OA
ENDROOT
BRANCH   1   2
ATOM      2  C   UNL     1       0.243  10.499  20.923  0.00  0.00    +0.000 C 
ATOM      3  O   UNL     1       0.720  11.539  21.354  0.00  0.00    +0.000 OA
BRANCH   2   4
ATOM      4  C   UNL     1       0.716   9.139  21.362  0.00  0.00    +0.000 C 
BRANCH   4   5
ATOM      5  C   UNL     1       1.420   8.312  20.323  0.00  0.00    +0.000 A 
ATOM      6  C   UNL     1       1.784   8.860  19.088  0.00  0.00    +0.000 A 
ATOM      7  C   UNL     1       2.529   8.109  18.168  0.00  0.00    +0.000 A 
ATOM      8  C   UNL     1       2.948   6.798  18.455  0.00  0.00    +0.000 A 
ATOM      9  C   UNL     1       2.547   6.263  19.695  0.00  0.00    +0.000 A 
ATOM     10  C   UNL     1       1.789   6.999  20.612  0.00  0.00    +0.000 A 
BRANCH   8  11
ATOM     11  C   UNL     1       3.803   6.017  17.529  0.00  0.00    +0.000 A 
ATOM     12  C   UNL     1       3.756   4.612  17.482  0.00  0.00    +0.000 A 
ATOM     13  C   UNL     1       4.519   3.889  16.561  0.00  0.00    +0.000 A 
ATOM     14  C   UNL     1       5.343   4.553  15.657  0.00  0.00    +0.000 A 
ATOM     15  C   UNL     1       5.419   5.940  15.688  0.00  0.00    +0.000 A 
ATOM     16  C   UNL     1       4.666   6.657  16.619  0.00  0.00    +0.000 A 
ENDBRANCH   8  11
ENDBRANCH   4   5
ENDBRANCH   2   4
ENDBRANCH   1   2
BRANCH   1  17
ATOM     17  C   UNL     1      -1.061  11.617  19.325  0.00  0.00    +0.000 C 
BRANCH  17  22
ATOM     18  O   UNL     1      -3.488  10.445  15.243  0.00  0.00    +0.000 OA
ATOM     19  C   UNL     1      -3.898  10.906  16.307  0.00  0.00    +0.000 C 
ATOM     20  C   UNL     1      -3.222  10.612  17.636  0.00  0.00    +0.000 C 
ATOM     21  N   UNL     1      -3.490  11.589  18.707  0.00  0.00    +0.000 N 
ATOM     22  C   UNL     1      -2.516  12.023  19.626  0.00  0.00    +0.000 C 
ATOM     23  O   UNL     1      -2.752  12.734  20.601  0.00  0.00    +0.000 OA
ATOM     24  C   UNL     1      -4.848  12.057  18.762  0.00  0.00    +0.000 A 
ATOM     25  C   UNL     1      -5.439  12.565  19.924  0.00  0.00    +0.000 A 
ATOM     26  C   UNL     1      -6.734  13.089  19.906  0.00  0.00    +0.000 A 
ATOM     27  C   UNL     1      -7.462  13.114  18.722  0.00  0.00    +0.000 A 
ATOM     28  C   UNL     1      -6.905  12.598  17.556  0.00  0.00    +0.000 A 
ATOM     29  C   UNL     1      -5.617  12.059  17.577  0.00  0.00    +0.000 A 
ATOM     30  N   UNL     1      -5.091  11.565  16.378  0.00  0.00    +0.000 N 
ATOM     31  H   UNL     1      -5.601  11.668  15.509  0.00  0.00    +0.000 HD
ENDBRANCH  17  22
ENDBRANCH   1  17
TORSDOF 6
ENDMDL
MODEL 6
REMARK VINA RESULT:      -8.2      5.767      9.166
REMARK  Name = 
REMARK  6 active torsions:
REMARK  status: ('A' for Active; 'I' for Inactive)
REMARK    1  A    between atoms: C_5  and  C_7
REMARK    2  A    between atoms: C_7  and  O_8
REMARK    3  A    between atoms: O_8  and  C_9
REMARK    4  A    between atoms: C_9  and  C_11
REMARK    5  A    between atoms: C_11  and  C_12
REMARK    6  A    between atoms: C_15  and  C_16
REMARK                            x       y       z     vdW  Elec       q    Type
REMARK                         _______ _______ _______ _____ _____    ______ ____
ROOT
ATOM      1  O   UNL     1       8.049   9.472  17.991  0.00  0.00    +0.000 OA
ENDROOT
BRANCH   1   2
ATOM      2  C   UNL     1       8.124   8.135  18.232  0.00  0.00    +0.000 C 
ATOM      3  O   UNL     1       8.845   7.600  19.061  0.00  0.00    +0.000 OA
BRANCH   2   4
ATOM      4  C   UNL     1       7.430   7.369  17.138  0.00  0.00    +0.000 C 
BRANCH   4   5
ATOM      5  C   UNL     1       6.281   6.498  17.561  0.00  0.00    +0.000 A 
ATOM      6  C   UNL     1       6.383   5.658  18.675  0.00  0.00    +0.000 A 
ATOM      7  C   UNL     1       5.273   4.926  19.120  0.00  0.00    +0.000 A 
ATOM      8  C   UNL     1       4.025   5.022  18.480  0.00  0.00    +0.000 A 
ATOM      9  C   UNL     1       3.956   5.856  17.347  0.00  0.00    +0.000 A 
ATOM     10  C   UNL     1       5.063   6.576  16.886  0.00  0.00    +0.000 A 
BRANCH   8  11
ATOM     11  C   UNL     1       2.820   4.319  18.983  0.00  0.00    +0.000 A 
ATOM     12  C   UNL     1       1.970   3.596  18.126  0.00  0.00    +0.000 A 
ATOM     13  C   UNL     1       0.873   2.884  18.619  0.00  0.00    +0.000 A 
ATOM     14  C   UNL     1       0.602   2.869  19.984  0.00  0.00    +0.000 A 
ATOM     15  C   UNL     1       1.417   3.585  20.853  0.00  0.00    +0.000 A 
ATOM     16  C   UNL     1       2.501   4.305  20.355  0.00  0.00    +0.000 A 
ENDBRANCH   8  11
ENDBRANCH   4   5
ENDBRANCH   2   4
ENDBRANCH   1   2
BRANCH   1  17
ATOM     17  C   UNL     1       9.221  10.207  18.317  0.00  0.00    +0.000 C 
BRANCH  17  22
ATOM     18  O   UNL     1      11.336  14.228  16.506  0.00  0.00    +0.000 OA
ATOM     19  C   UNL     1      10.835  14.022  17.610  0.00  0.00    +0.000 C 
ATOM     20  C   UNL     1       9.688  13.047  17.814  0.00  0.00    +0.000 C 
ATOM     21  N   UNL     1       9.534  12.537  19.189  0.00  0.00    +0.000 N 
ATOM     22  C   UNL     1       9.193  11.204  19.491  0.00  0.00    +0.000 C 
ATOM     23  O   UNL     1       8.934  10.795  20.621  0.00  0.00    +0.000 OA
ATOM     24  C   UNL     1       9.736  13.521  20.216  0.00  0.00    +0.000 A 
ATOM     25  C   UNL     1       9.184  13.417  21.498  0.00  0.00    +0.000 A 
ATOM     26  C   UNL     1       9.481  14.355  22.490  0.00  0.00    +0.000 A 
ATOM     27  C   UNL     1      10.338  15.415  22.216  0.00  0.00    +0.000 A 
ATOM     28  C   UNL     1      10.886  15.552  20.945  0.00  0.00    +0.000 A 
ATOM     29  C   UNL     1      10.576  14.623  19.948  0.00  0.00    +0.000 A 
ATOM     30  N   UNL     1      11.161  14.792  18.688  0.00  0.00    +0.000 N 
ATOM     31  H   UNL     1      11.848  15.520  18.530  0.00  0.00    +0.000 HD
ENDBRANCH  17  22
ENDBRANCH   1  17
TORSDOF 6
ENDMDL
MODEL 7
REMARK VINA RESULT:      -8.2      3.069      8.955
REMARK  Name = 
REMARK  6 active torsions:
REMARK  status: ('A' for Active; 'I' for Inactive)
REMARK    1  A    between atoms: C_5  and  C_7
REMARK    2  A    between atoms: C_7  and  O_8
REMARK    3  A    between atoms: O_8  and  C_9
REMARK    4  A    between atoms: C_9  and  C_11
REMARK    5  A    between atoms: C_11  and  C_12
REMARK    6  A    between atoms: C_15  and  C_16
REMARK                            x       y       z     vdW  Elec       q    Type
REMARK                         _______ _______ _______ _____ _____    ______ ____
ROOT
ATOM      1  O   UNL     1       1.582   6.055  20.116  0.00  0.00    +0.000 OA
ENDROOT
BRANCH   1   2
ATOM      2  C   UNL     1       2.282   5.048  19.526  0.00  0.00    +0.000 C 
ATOM      3  O   UNL     1       1.842   3.941  19.249  0.00  0.00    +0.000 OA
BRANCH   2   4
ATOM      4  C   UNL     1       3.754   5.363  19.535  0.00  0.00    +0.000 C 
BRANCH   4   5
ATOM      5  C   UNL     1       4.493   5.124  18.248  0.00  0.00    +0.000 A 
ATOM      6  C   UNL     1       4.649   3.833  17.733  0.00  0.00    +0.000 A 
ATOM      7  C   UNL     1       5.251   3.633  16.483  0.00  0.00    +0.000 A 
ATOM      8  C   UNL     1       5.700   4.711  15.701  0.00  0.00    +0.000 A 
ATOM      9  C   UNL     1       5.553   5.998  16.254  0.00  0.00    +0.000 A 
ATOM     10  C   UNL     1       4.969   6.206  17.508  0.00  0.00    +0.000 A 
BRANCH   8  11
ATOM     11  C   UNL     1       6.266   4.525  14.343  0.00  0.00    +0.000 A 
ATOM     12  C   UNL     1       5.705   3.622  13.422  0.00  0.00    +0.000 A 
ATOM     13  C   UNL     1       6.207   3.501  12.123  0.00  0.00    +0.000 A 
ATOM     14  C   UNL     1       7.279   4.285  11.709  0.00  0.00    +0.000 A 
ATOM     15  C   UNL     1       7.863   5.177  12.602  0.00  0.00    +0.000 A 
ATOM     16  C   UNL     1       7.367   5.284  13.901  0.00  0.00    +0.000 A 
ENDBRANCH   8  11
ENDBRANCH   4   5
ENDBRANCH   2   4
ENDBRANCH   1   2
BRANCH   1  17
ATOM     17  C   UNL     1       2.232   7.319  20.112  0.00  0.00    +0.000 C 
BRANCH  17  22
ATOM     18  O   UNL     1       0.138   9.387  24.019  0.00  0.00    +0.000 OA
ATOM     19  C   UNL     1       0.158   9.748  22.843  0.00  0.00    +0.000 C 
ATOM     20  C   UNL     1       1.316   9.429  21.914  0.00  0.00    +0.000 C 
ATOM     21  N   UNL     1       0.997   9.470  20.475  0.00  0.00    +0.000 N 
ATOM     22  C   UNL     1       1.504   8.549  19.538  0.00  0.00    +0.000 C 
ATOM     23  O   UNL     1       1.354   8.645  18.321  0.00  0.00    +0.000 OA
ATOM     24  C   UNL     1       0.135  10.552  20.085  0.00  0.00    +0.000 A 
ATOM     25  C   UNL     1       0.097  11.076  18.788  0.00  0.00    +0.000 A 
ATOM     26  C   UNL     1      -0.821  12.069  18.437  0.00  0.00    +0.000 A 
ATOM     27  C   UNL     1      -1.719  12.556  19.380  0.00  0.00    +0.000 A 
ATOM     28  C   UNL     1      -1.691  12.066  20.681  0.00  0.00    +0.000 A 
ATOM     29  C   UNL     1      -0.763  11.085  21.037  0.00  0.00    +0.000 A 
ATOM     30  N   UNL     1      -0.780  10.610  22.354  0.00  0.00    +0.000 N 
ATOM     31  H   UNL     1      -1.495  10.914  23.003  0.00  0.00    +0.000 HD
ENDBRANCH  17  22
ENDBRANCH   1  17
TORSDOF 6
ENDMDL
MODEL 8
REMARK VINA RESULT:      -8.1      3.344      9.195
REMARK  Name = 
REMARK  6 active torsions:
REMARK  status: ('A' for Active; 'I' for Inactive)
REMARK    1  A    between atoms: C_5  and  C_7
REMARK    2  A    between atoms: C_7  and  O_8
REMARK    3  A    between atoms: O_8  and  C_9
REMARK    4  A    between atoms: C_9  and  C_11
REMARK    5  A    between atoms: C_11  and  C_12
REMARK    6  A    between atoms: C_15  and  C_16
REMARK                            x       y       z     vdW  Elec       q    Type
REMARK                         _______ _______ _______ _____ _____    ______ ____
ROOT
ATOM      1  O   UNL     1       1.823   6.423  20.501  0.00  0.00    +0.000 OA
ENDROOT
BRANCH   1   2
ATOM      2  C   UNL     1       2.331   5.582  19.558  0.00  0.00    +0.000 C 
ATOM      3  O   UNL     1       1.693   4.754  18.924  0.00  0.00    +0.000 OA
BRANCH   2   4
ATOM      4  C   UNL     1       3.835   5.588  19.611  0.00  0.00    +0.000 C 
BRANCH   4   5
ATOM      5  C   UNL     1       4.547   5.273  18.326  0.00  0.00    +0.000 A 
ATOM      6  C   UNL     1       4.394   4.031  17.700  0.00  0.00    +0.000 A 
ATOM      7  C   UNL     1       4.982   3.785  16.451  0.00  0.00    +0.000 A 
ATOM      8  C   UNL     1       5.724   4.772  15.780  0.00  0.00    +0.000 A 
ATOM      9  C   UNL     1       5.883   6.005  16.443  0.00  0.00    +0.000 A 
ATOM     10  C   UNL     1       5.314   6.253  17.697  0.00  0.00    +0.000 A 
BRANCH   8  11
ATOM     11  C   UNL     1       6.286   4.558  14.424  0.00  0.00    +0.000 A 
ATOM     12  C   UNL     1       5.756   3.596  13.545  0.00  0.00    +0.000 A 
ATOM     13  C   UNL     1       6.252   3.446  12.246  0.00  0.00    +0.000 A 
ATOM     14  C   UNL     1       7.285   4.259  11.791  0.00  0.00    +0.000 A 
ATOM     15  C   UNL     1       7.836   5.210  12.642  0.00  0.00    +0.000 A 
ATOM     16  C   UNL     1       7.348   5.346  13.941  0.00  0.00    +0.000 A 
ENDBRANCH   8  11
ENDBRANCH   4   5
ENDBRANCH   2   4
ENDBRANCH   1   2
BRANCH   1  17
ATOM     17  C   UNL     1       1.824   7.798  20.141  0.00  0.00    +0.000 C 
BRANCH  17  22
ATOM     18  O   UNL     1       2.590  12.079  17.903  0.00  0.00    +0.000 OA
ATOM     19  C   UNL     1       1.857  11.796  18.850  0.00  0.00    +0.000 C 
ATOM     20  C   UNL     1       1.226  10.424  19.009  0.00  0.00    +0.000 C 
ATOM     21  N   UNL     1       0.811  10.078  20.381  0.00  0.00    +0.000 N 
ATOM     22  C   UNL     1       0.966   8.796  20.942  0.00  0.00    +0.000 C 
ATOM     23  O   UNL     1       0.510   8.457  22.032  0.00  0.00    +0.000 OA
ATOM     24  C   UNL     1       0.204  11.157  21.111  0.00  0.00    +0.000 A 
ATOM     25  C   UNL     1      -0.678  10.961  22.180  0.00  0.00    +0.000 A 
ATOM     26  C   UNL     1      -1.174  12.042  22.913  0.00  0.00    +0.000 A 
ATOM     27  C   UNL     1      -0.795  13.339  22.590  0.00  0.00    +0.000 A 
ATOM     28  C   UNL     1       0.066  13.563  21.521  0.00  0.00    +0.000 A 
ATOM     29  C   UNL     1       0.549  12.485  20.776  0.00  0.00    +0.000 A 
ATOM     30  N   UNL     1       1.424  12.756  19.718  0.00  0.00    +0.000 N 
ATOM     31  H   UNL     1       1.755  13.699  19.549  0.00  0.00    +0.000 HD
ENDBRANCH  17  22
ENDBRANCH   1  17
TORSDOF 6
ENDMDL
MODEL 9
REMARK VINA RESULT:      -8.0      3.233      9.133
REMARK  Name = 
REMARK  6 active torsions:
REMARK  status: ('A' for Active; 'I' for Inactive)
REMARK    1  A    between atoms: C_5  and  C_7
REMARK    2  A    between atoms: C_7  and  O_8
REMARK    3  A    between atoms: O_8  and  C_9
REMARK    4  A    between atoms: C_9  and  C_11
REMARK    5  A    between atoms: C_11  and  C_12
REMARK    6  A    between atoms: C_15  and  C_16
REMARK                            x       y       z     vdW  Elec       q    Type
REMARK                         _______ _______ _______ _____ _____    ______ ____
ROOT
ATOM      1  O   UNL     1       1.810   7.067  20.205  0.00  0.00    +0.000 OA
ENDROOT
BRANCH   1   2
ATOM      2  C   UNL     1       2.169   5.826  19.778  0.00  0.00    +0.000 C 
ATOM      3  O   UNL     1       1.446   4.840  19.763  0.00  0.00    +0.000 OA
BRANCH   2   4
ATOM      4  C   UNL     1       3.663   5.745  19.612  0.00  0.00    +0.000 C 
BRANCH   4   5
ATOM      5  C   UNL     1       4.164   5.455  18.225  0.00  0.00    +0.000 A 
ATOM      6  C   UNL     1       4.584   6.486  17.378  0.00  0.00    +0.000 A 
ATOM      7  C   UNL     1       5.144   6.195  16.125  0.00  0.00    +0.000 A 
ATOM      8  C   UNL     1       5.315   4.871  15.686  0.00  0.00    +0.000 A 
ATOM      9  C   UNL     1       4.861   3.854  16.547  0.00  0.00    +0.000 A 
ATOM     10  C   UNL     1       4.286   4.135  17.792  0.00  0.00    +0.000 A 
BRANCH   8  11
ATOM     11  C   UNL     1       5.977   4.542  14.400  0.00  0.00    +0.000 A 
ATOM     12  C   UNL     1       5.453   3.576  13.522  0.00  0.00    +0.000 A 
ATOM     13  C   UNL     1       6.048   3.318  12.283  0.00  0.00    +0.000 A 
ATOM     14  C   UNL     1       7.178   4.026  11.888  0.00  0.00    +0.000 A 
ATOM     15  C   UNL     1       7.726   4.978  12.740  0.00  0.00    +0.000 A 
ATOM     16  C   UNL     1       7.137   5.221  13.980  0.00  0.00    +0.000 A 
ENDBRANCH   8  11
ENDBRANCH   4   5
ENDBRANCH   2   4
ENDBRANCH   1   2
BRANCH   1  17
ATOM     17  C   UNL     1       2.197   8.132  19.347  0.00  0.00    +0.000 C 
BRANCH  17  22
ATOM     18  O   UNL     1       0.554   9.447  23.762  0.00  0.00    +0.000 OA
ATOM     19  C   UNL     1       0.310   9.915  22.651  0.00  0.00    +0.000 C 
ATOM     20  C   UNL     1       1.318   9.881  21.515  0.00  0.00    +0.000 C 
ATOM     21  N   UNL     1       0.744  10.004  20.162  0.00  0.00    +0.000 N 
ATOM     22  C   UNL     1       1.205   9.273  19.051  0.00  0.00    +0.000 C 
ATOM     23  O   UNL     1       0.828   9.456  17.896  0.00  0.00    +0.000 OA
ATOM     24  C   UNL     1      -0.324  10.960  20.051  0.00  0.00    +0.000 A 
ATOM     25  C   UNL     1      -0.669  11.590  18.850  0.00  0.00    +0.000 A 
ATOM     26  C   UNL     1      -1.771  12.446  18.775  0.00  0.00    +0.000 A 
ATOM     27  C   UNL     1      -2.548  12.686  19.902  0.00  0.00    +0.000 A 
ATOM     28  C   UNL     1      -2.216  12.087  21.113  0.00  0.00    +0.000 A 
ATOM     29  C   UNL     1      -1.105  11.245  21.193  0.00  0.00    +0.000 A 
ATOM     30  N   UNL     1      -0.816  10.652  22.428  0.00  0.00    +0.000 N 
ATOM     31  H   UNL     1      -1.441  10.771  23.216  0.00  0.00    +0.000 HD
ENDBRANCH  17  22
ENDBRANCH   1  17
TORSDOF 6
ENDMDL
