MODEL 1
REMARK VINA RESULT:      -8.9      0.000      0.000
REMARK  Name = 
REMARK  4 active torsions:
REMARK  status: ('A' for Active; 'I' for Inactive)
REMARK    1  A    between atoms: C_2  and  C_3
REMARK    2  A    between atoms: C_3  and  C_4
REMARK    3  A    between atoms: N_12  and  C_13
REMARK    4  A    between atoms: C_17  and  C_18
REMARK                            x       y       z     vdW  Elec       q    Type
REMARK                         _______ _______ _______ _____ _____    ______ ____
ROOT
ATOM      1  C   UNL     1       2.298   7.723  19.037  0.00  0.00    +0.000 A 
ATOM      2  C   UNL     1       1.984   8.336  17.824  0.00  0.00    +0.000 A 
ATOM      3  C   UNL     1       1.225   9.504  17.788  0.00  0.00    +0.000 A 
ATOM      4  C   UNL     1       0.734  10.048  18.969  0.00  0.00    +0.000 A 
ATOM      5  C   UNL     1       0.919   9.382  20.183  0.00  0.00    +0.000 A 
ATOM      6  C   UNL     1       1.739   8.240  20.217  0.00  0.00    +0.000 A 
ENDROOT
BRANCH   5   7
ATOM      7  C   UNL     1       0.249   9.838  21.411  0.00  0.00    +0.000 A 
ATOM      8  N   UNL     1       0.273   9.223  22.579  0.00  0.00    +0.000 NA
ATOM      9  N   UNL     1      -0.490   9.939  23.464  0.00  0.00    +0.000 NA
ATOM     10  C   UNL     1      -1.005  10.974  22.835  0.00  0.00    +0.000 A 
ATOM     11  N   UNL     1      -0.583  10.939  21.528  0.00  0.00    +0.000 N 
ATOM     12  C   UNL     1      -0.965  11.850  20.465  0.00  0.00    +0.000 C 
ATOM     13  C   UNL     1      -2.412  12.318  20.505  0.00  0.00    +0.000 C 
ATOM     14  C   UNL     1      -2.664  13.450  21.496  0.00  0.00    +0.000 C 
ATOM     15  C   UNL     1      -1.889  13.358  22.810  0.00  0.00    +0.000 C 
ATOM     16  C   UNL     1      -1.932  11.973  23.447  0.00  0.00    +0.000 C 
ENDBRANCH   5   7
BRANCH   1  19
ATOM     17  O   UNL     1       1.614   4.996  19.912  0.00  0.00    +0.000 OA
ATOM     18  C   UNL     1       2.754   5.333  19.599  0.00  0.00    +0.000 C 
ATOM     19  N   UNL     1       3.132   6.582  19.124  0.00  0.00    +0.000 N 
ATOM     20  H   UNL     1       4.047   6.655  18.691  0.00  0.00    +0.000 HD
BRANCH  18  21
ATOM     21  C   UNL     1       3.902   4.349  19.716  0.00  0.00    +0.000 C 
BRANCH  21  22
ATOM     22  C   UNL     1       4.791   4.333  18.498  0.00  0.00    +0.000 A 
ATOM     23  C   UNL     1       6.085   4.851  18.607  0.00  0.00    +0.000 A 
ATOM     24  F   UNL     1       6.495   5.358  19.782  0.00  0.00    +0.000 F 
ATOM     25  C   UNL     1       6.972   4.856  17.533  0.00  0.00    +0.000 A 
ATOM     26  C   UNL     1       6.565   4.351  16.304  0.00  0.00    +0.000 A 
ATOM     27  C   UNL     1       5.272   3.847  16.160  0.00  0.00    +0.000 A 
ATOM     28  C   UNL     1       4.390   3.838  17.249  0.00  0.00    +0.000 A 
ATOM     29 CL   UNL     1       2.817   3.175  16.986  0.00  0.00    +0.000 Cl
ENDBRANCH  21  22
ENDBRANCH  18  21
ENDBRANCH   1  19
TORSDOF 4
ENDMDL
MODEL 2
REMARK VINA RESULT:      -8.8      1.414      1.680
REMARK  Name = 
REMARK  4 active torsions:
REMARK  status: ('A' for Active; 'I' for Inactive)
REMARK    1  A    between atoms: C_2  and  C_3
REMARK    2  A    between atoms: C_3  and  C_4
REMARK    3  A    between atoms: N_12  and  C_13
REMARK    4  A    between atoms: C_17  and  C_18
REMARK                            x       y       z     vdW  Elec       q    Type
REMARK                         _______ _______ _______ _____ _____    ______ ____
ROOT
ATOM      1  C   UNL     1       2.399   7.723  18.907  0.00  0.00    +0.000 A 
ATOM      2  C   UNL     1       2.002   8.296  17.698  0.00  0.00    +0.000 A 
ATOM      3  C   UNL     1       1.176   9.417  17.676  0.00  0.00    +0.000 A 
ATOM      4  C   UNL     1       0.700   9.952  18.867  0.00  0.00    +0.000 A 
ATOM      5  C   UNL     1       0.971   9.318  20.083  0.00  0.00    +0.000 A 
ATOM      6  C   UNL     1       1.858   8.227  20.100  0.00  0.00    +0.000 A 
ENDROOT
BRANCH   5   7
ATOM      7  C   UNL     1       0.325   9.757  21.330  0.00  0.00    +0.000 A 
ATOM      8  N   UNL     1       0.361   9.118  22.485  0.00  0.00    +0.000 NA
ATOM      9  N   UNL     1      -0.382   9.823  23.395  0.00  0.00    +0.000 NA
ATOM     10  C   UNL     1      -0.897  10.875  22.795  0.00  0.00    +0.000 A 
ATOM     11  N   UNL     1      -0.496  10.862  21.481  0.00  0.00    +0.000 N 
ATOM     12  C   UNL     1      -0.886  11.797  20.442  0.00  0.00    +0.000 C 
ATOM     13  C   UNL     1      -2.327  12.277  20.514  0.00  0.00    +0.000 C 
ATOM     14  C   UNL     1      -2.554  13.391  21.532  0.00  0.00    +0.000 C 
ATOM     15  C   UNL     1      -1.759  13.266  22.831  0.00  0.00    +0.000 C 
ATOM     16  C   UNL     1      -1.805  11.870  23.441  0.00  0.00    +0.000 C 
ENDBRANCH   5   7
BRANCH   1  19
ATOM     17  O   UNL     1       1.810   4.843  19.063  0.00  0.00    +0.000 OA
ATOM     18  C   UNL     1       2.951   5.296  19.104  0.00  0.00    +0.000 C 
ATOM     19  N   UNL     1       3.301   6.634  18.977  0.00  0.00    +0.000 N 
ATOM     20  H   UNL     1       4.278   6.843  18.799  0.00  0.00    +0.000 HD
BRANCH  18  21
ATOM     21  C   UNL     1       4.136   4.370  19.307  0.00  0.00    +0.000 C 
BRANCH  21  22
ATOM     22  C   UNL     1       5.093   4.372  18.143  0.00  0.00    +0.000 A 
ATOM     23  C   UNL     1       4.662   3.846  16.921  0.00  0.00    +0.000 A 
ATOM     24  F   UNL     1       3.420   3.344  16.821  0.00  0.00    +0.000 F 
ATOM     25  C   UNL     1       5.482   3.829  15.795  0.00  0.00    +0.000 A 
ATOM     26  C   UNL     1       6.776   4.328  15.879  0.00  0.00    +0.000 A 
ATOM     27  C   UNL     1       7.240   4.839  17.091  0.00  0.00    +0.000 A 
ATOM     28  C   UNL     1       6.405   4.862  18.216  0.00  0.00    +0.000 A 
ATOM     29 CL   UNL     1       7.055   5.533  19.669  0.00  0.00    +0.000 Cl
ENDBRANCH  21  22
ENDBRANCH  18  21
ENDBRANCH   1  19
TORSDOF 4
ENDMDL
MODEL 3
REMARK VINA RESULT:      -8.8      2.621      3.488
REMARK  Name = 
REMARK  4 active torsions:
REMARK  status: ('A' for Active; 'I' for Inactive)
REMARK    1  A    between atoms: C_2  and  C_3
REMARK    2  A    between atoms: C_3  and  C_4
REMARK    3  A    between atoms: N_12  and  C_13
REMARK    4  A    between atoms: C_17  and  C_18
REMARK                            x       y       z     vdW  Elec       q    Type
REMARK                         _______ _______ _______ _____ _____    ______ ____
ROOT
ATOM      1  C   UNL     1       2.086   7.869  19.185  0.00  0.00    +0.000 A 
ATOM      2  C   UNL     1       1.881   7.494  20.514  0.00  0.00    +0.000 A 
ATOM      3  C   UNL     1       0.978   8.184  21.320  0.00  0.00    +0.000 A 
ATOM      4  C   UNL     1       0.302   9.289  20.816  0.00  0.00    +0.000 A 
ATOM      5  C   UNL     1       0.589   9.767  19.534  0.00  0.00    +0.000 A 
ATOM      6  C   UNL     1       1.452   9.026  18.707  0.00  0.00    +0.000 A 
ENDROOT
BRANCH   5   7
ATOM      7  C   UNL     1       0.027  11.039  19.054  0.00  0.00    +0.000 A 
ATOM      8  N   UNL     1      -1.023  11.170  18.264  0.00  0.00    +0.000 NA
ATOM      9  N   UNL     1      -1.218  12.504  18.016  0.00  0.00    +0.000 NA
ATOM     10  C   UNL     1      -0.274  13.188  18.627  0.00  0.00    +0.000 A 
ATOM     11  N   UNL     1       0.550  12.301  19.277  0.00  0.00    +0.000 N 
ATOM     12  C   UNL     1       1.756  12.617  20.020  0.00  0.00    +0.000 C 
ATOM     13  C   UNL     1       2.601  13.736  19.431  0.00  0.00    +0.000 C 
ATOM     14  C   UNL     1       2.089  15.134  19.767  0.00  0.00    +0.000 C 
ATOM     15  C   UNL     1       0.569  15.293  19.777  0.00  0.00    +0.000 C 
ATOM     16  C   UNL     1      -0.115  14.672  18.564  0.00  0.00    +0.000 C 
ENDBRANCH   5   7
BRANCH   1  19
ATOM     17  O   UNL     1       1.863   5.075  18.284  0.00  0.00    +0.000 OA
ATOM     18  C   UNL     1       2.797   5.808  17.968  0.00  0.00    +0.000 C 
ATOM     19  N   UNL     1       2.932   7.147  18.309  0.00  0.00    +0.000 N 
ATOM     20  H   UNL     1       3.622   7.688  17.797  0.00  0.00    +0.000 HD
BRANCH  18  21
ATOM     21  C   UNL     1       3.942   5.271  17.129  0.00  0.00    +0.000 C 
BRANCH  21  22
ATOM     22  C   UNL     1       5.297   5.649  17.669  0.00  0.00    +0.000 A 
ATOM     23  C   UNL     1       6.033   6.635  17.003  0.00  0.00    +0.000 A 
ATOM     24  F   UNL     1       5.521   7.204  15.899  0.00  0.00    +0.000 F 
ATOM     25  C   UNL     1       7.284   7.051  17.450  0.00  0.00    +0.000 A 
ATOM     26  C   UNL     1       7.840   6.464  18.580  0.00  0.00    +0.000 A 
ATOM     27  C   UNL     1       7.138   5.463  19.253  0.00  0.00    +0.000 A 
ATOM     28  C   UNL     1       5.876   5.058  18.801  0.00  0.00    +0.000 A 
ATOM     29 CL   UNL     1       5.069   3.829  19.708  0.00  0.00    +0.000 Cl
ENDBRANCH  21  22
ENDBRANCH  18  21
ENDBRANCH   1  19
TORSDOF 4
ENDMDL
MODEL 4
REMARK VINA RESULT:      -8.7      3.671      4.558
REMARK  Name = 
REMARK  4 active torsions:
REMARK  status: ('A' for Active; 'I' for Inactive)
REMARK    1  A    between atoms: C_2  and  C_3
REMARK    2  A    between atoms: C_3  and  C_4
REMARK    3  A    between atoms: N_12  and  C_13
REMARK    4  A    between atoms: C_17  and  C_18
REMARK                            x       y       z     vdW  Elec       q    Type
REMARK                         _______ _______ _______ _____ _____    ______ ____
ROOT
ATOM      1  C   UNL     1       1.094   9.603  18.140  0.00  0.00    +0.000 A 
ATOM      2  C   UNL     1      -0.289   9.677  17.962  0.00  0.00    +0.000 A 
ATOM      3  C   UNL     1      -1.000  10.807  18.355  0.00  0.00    +0.000 A 
ATOM      4  C   UNL     1      -0.341  11.862  18.975  0.00  0.00    +0.000 A 
ATOM      5  C   UNL     1       1.018  11.758  19.287  0.00  0.00    +0.000 A 
ATOM      6  C   UNL     1       1.739  10.641  18.828  0.00  0.00    +0.000 A 
ENDROOT
BRANCH   5   7
ATOM      7  C   UNL     1       1.689  12.778  20.107  0.00  0.00    +0.000 A 
ATOM      8  N   UNL     1       1.449  13.027  21.381  0.00  0.00    +0.000 NA
ATOM      9  N   UNL     1       2.251  14.064  21.781  0.00  0.00    +0.000 NA
ATOM     10  C   UNL     1       2.960  14.470  20.750  0.00  0.00    +0.000 A 
ATOM     11  N   UNL     1       2.621  13.701  19.663  0.00  0.00    +0.000 N 
ATOM     12  C   UNL     1       3.112  13.849  18.305  0.00  0.00    +0.000 C 
ATOM     13  C   UNL     1       3.322  15.284  17.848  0.00  0.00    +0.000 C 
ATOM     14  C   UNL     1       4.633  15.897  18.333  0.00  0.00    +0.000 C 
ATOM     15  C   UNL     1       5.053  15.512  19.751  0.00  0.00    +0.000 C 
ATOM     16  C   UNL     1       3.923  15.612  20.770  0.00  0.00    +0.000 C 
ENDBRANCH   5   7
BRANCH   1  19
ATOM     17  O   UNL     1       2.244   7.378  19.686  0.00  0.00    +0.000 OA
ATOM     18  C   UNL     1       2.425   7.518  18.479  0.00  0.00    +0.000 C 
ATOM     19  N   UNL     1       1.866   8.508  17.682  0.00  0.00    +0.000 N 
ATOM     20  H   UNL     1       1.911   8.374  16.677  0.00  0.00    +0.000 HD
BRANCH  18  21
ATOM     21  C   UNL     1       3.328   6.561  17.724  0.00  0.00    +0.000 C 
BRANCH  21  22
ATOM     22  C   UNL     1       3.242   5.144  18.230  0.00  0.00    +0.000 A 
ATOM     23  C   UNL     1       2.087   4.405  17.957  0.00  0.00    +0.000 A 
ATOM     24  F   UNL     1       1.086   4.977  17.267  0.00  0.00    +0.000 F 
ATOM     25  C   UNL     1       1.939   3.084  18.376  0.00  0.00    +0.000 A 
ATOM     26  C   UNL     1       2.954   2.477  19.106  0.00  0.00    +0.000 A 
ATOM     27  C   UNL     1       4.109   3.198  19.411  0.00  0.00    +0.000 A 
ATOM     28  C   UNL     1       4.253   4.523  18.977  0.00  0.00    +0.000 A 
ATOM     29 CL   UNL     1       5.724   5.331  19.382  0.00  0.00    +0.000 Cl
ENDBRANCH  21  22
ENDBRANCH  18  21
ENDBRANCH   1  19
TORSDOF 4
ENDMDL
MODEL 5
REMARK VINA RESULT:      -8.7      2.539      3.399
REMARK  Name = 
REMARK  4 active torsions:
REMARK  status: ('A' for Active; 'I' for Inactive)
REMARK    1  A    between atoms: C_2  and  C_3
REMARK    2  A    between atoms: C_3  and  C_4
REMARK    3  A    between atoms: N_12  and  C_13
REMARK    4  A    between atoms: C_17  and  C_18
REMARK                            x       y       z     vdW  Elec       q    Type
REMARK                         _______ _______ _______ _____ _____    ______ ____
ROOT
ATOM      1  C   UNL     1       1.947   7.873  19.359  0.00  0.00    +0.000 A 
ATOM      2  C   UNL     1       1.807   7.598  20.721  0.00  0.00    +0.000 A 
ATOM      3  C   UNL     1       0.994   8.388  21.529  0.00  0.00    +0.000 A 
ATOM      4  C   UNL     1       0.344   9.493  20.991  0.00  0.00    +0.000 A 
ATOM      5  C   UNL     1       0.573   9.869  19.665  0.00  0.00    +0.000 A 
ATOM      6  C   UNL     1       1.344   9.029  18.841  0.00  0.00    +0.000 A 
ENDROOT
BRANCH   5   7
ATOM      7  C   UNL     1       0.047  11.135  19.132  0.00  0.00    +0.000 A 
ATOM      8  N   UNL     1      -0.967  11.259  18.295  0.00  0.00    +0.000 NA
ATOM      9  N   UNL     1      -1.135  12.589  18.010  0.00  0.00    +0.000 NA
ATOM     10  C   UNL     1      -0.210  13.277  18.645  0.00  0.00    +0.000 A 
ATOM     11  N   UNL     1       0.575  12.397  19.350  0.00  0.00    +0.000 N 
ATOM     12  C   UNL     1       1.751  12.717  20.137  0.00  0.00    +0.000 C 
ATOM     13  C   UNL     1       2.633  13.814  19.561  0.00  0.00    +0.000 C 
ATOM     14  C   UNL     1       2.123  15.224  19.844  0.00  0.00    +0.000 C 
ATOM     15  C   UNL     1       0.606  15.399  19.783  0.00  0.00    +0.000 C 
ATOM     16  C   UNL     1      -0.032  14.758  18.556  0.00  0.00    +0.000 C 
ENDBRANCH   5   7
BRANCH   1  19
ATOM     17  O   UNL     1       1.803   4.957  18.986  0.00  0.00    +0.000 OA
ATOM     18  C   UNL     1       2.616   5.667  18.400  0.00  0.00    +0.000 C 
ATOM     19  N   UNL     1       2.699   7.050  18.486  0.00  0.00    +0.000 N 
ATOM     20  H   UNL     1       3.257   7.526  17.784  0.00  0.00    +0.000 HD
BRANCH  18  21
ATOM     21  C   UNL     1       3.654   5.047  17.482  0.00  0.00    +0.000 C 
BRANCH  21  22
ATOM     22  C   UNL     1       5.053   5.538  17.757  0.00  0.00    +0.000 A 
ATOM     23  C   UNL     1       5.679   5.146  18.943  0.00  0.00    +0.000 A 
ATOM     24  F   UNL     1       5.018   4.358  19.808  0.00  0.00    +0.000 F 
ATOM     25  C   UNL     1       6.976   5.543  19.260  0.00  0.00    +0.000 A 
ATOM     26  C   UNL     1       7.673   6.371  18.388  0.00  0.00    +0.000 A 
ATOM     27  C   UNL     1       7.064   6.796  17.207  0.00  0.00    +0.000 A 
ATOM     28  C   UNL     1       5.763   6.383  16.892  0.00  0.00    +0.000 A 
ATOM     29 CL   UNL     1       5.098   6.939  15.399  0.00  0.00    +0.000 Cl
ENDBRANCH  21  22
ENDBRANCH  18  21
ENDBRANCH   1  19
TORSDOF 4
ENDMDL
MODEL 6
REMARK VINA RESULT:      -8.5      3.511      9.011
REMARK  Name = 
REMARK  4 active torsions:
REMARK  status: ('A' for Active; 'I' for Inactive)
REMARK    1  A    between atoms: C_2  and  C_3
REMARK    2  A    between atoms: C_3  and  C_4
REMARK    3  A    between atoms: N_12  and  C_13
REMARK    4  A    between atoms: C_17  and  C_18
REMARK                            x       y       z     vdW  Elec       q    Type
REMARK                         _______ _______ _______ _____ _____    ______ ____
ROOT
ATOM      1  C   UNL     1       2.024   7.344  19.829  0.00  0.00    +0.000 A 
ATOM      2  C   UNL     1       1.201   6.390  20.429  0.00  0.00    +0.000 A 
ATOM      3  C   UNL     1       1.673   5.107  20.698  0.00  0.00    +0.000 A 
ATOM      4  C   UNL     1       2.964   4.751  20.327  0.00  0.00    +0.000 A 
ATOM      5  C   UNL     1       3.762   5.642  19.605  0.00  0.00    +0.000 A 
ATOM      6  C   UNL     1       3.301   6.954  19.395  0.00  0.00    +0.000 A 
ENDROOT
BRANCH   5   7
ATOM      7  C   UNL     1       5.054   5.221  19.041  0.00  0.00    +0.000 A 
ATOM      8  N   UNL     1       6.153   4.974  19.729  0.00  0.00    +0.000 NA
ATOM      9  N   UNL     1       7.150   4.639  18.851  0.00  0.00    +0.000 NA
ATOM     10  C   UNL     1       6.674   4.709  17.626  0.00  0.00    +0.000 A 
ATOM     11  N   UNL     1       5.357   5.096  17.696  0.00  0.00    +0.000 N 
ATOM     12  C   UNL     1       4.468   5.361  16.581  0.00  0.00    +0.000 C 
ATOM     13  C   UNL     1       5.118   6.036  15.383  0.00  0.00    +0.000 C 
ATOM     14  C   UNL     1       5.883   5.076  14.477  0.00  0.00    +0.000 C 
ATOM     15  C   UNL     1       6.648   3.964  15.195  0.00  0.00    +0.000 C 
ATOM     16  C   UNL     1       7.465   4.457  16.384  0.00  0.00    +0.000 C 
ENDBRANCH   5   7
BRANCH   1  19
ATOM     17  O   UNL     1      -0.007   8.911  21.272  0.00  0.00    +0.000 OA
ATOM     18  C   UNL     1       0.604   9.343  20.298  0.00  0.00    +0.000 C 
ATOM     19  N   UNL     1       1.612   8.681  19.610  0.00  0.00    +0.000 N 
ATOM     20  H   UNL     1       2.184   9.234  18.981  0.00  0.00    +0.000 HD
BRANCH  18  21
ATOM     21  C   UNL     1       0.284  10.718  19.741  0.00  0.00    +0.000 C 
BRANCH  21  22
ATOM     22  C   UNL     1      -0.975  10.740  18.912  0.00  0.00    +0.000 A 
ATOM     23  C   UNL     1      -0.996  10.031  17.708  0.00  0.00    +0.000 A 
ATOM     24  F   UNL     1       0.103   9.364  17.317  0.00  0.00    +0.000 F 
ATOM     25  C   UNL     1      -2.127   9.988  16.895  0.00  0.00    +0.000 A 
ATOM     26  C   UNL     1      -3.269  10.684  17.271  0.00  0.00    +0.000 A 
ATOM     27  C   UNL     1      -3.270  11.418  18.458  0.00  0.00    +0.000 A 
ATOM     28  C   UNL     1      -2.131  11.447  19.274  0.00  0.00    +0.000 A 
ATOM     29 CL   UNL     1      -2.229  12.362  20.735  0.00  0.00    +0.000 Cl
ENDBRANCH  21  22
ENDBRANCH  18  21
ENDBRANCH   1  19
TORSDOF 4
ENDMDL
MODEL 7
REMARK VINA RESULT:      -8.5      2.429      3.334
REMARK  Name = 
REMARK  4 active torsions:
REMARK  status: ('A' for Active; 'I' for Inactive)
REMARK    1  A    between atoms: C_2  and  C_3
REMARK    2  A    between atoms: C_3  and  C_4
REMARK    3  A    between atoms: N_12  and  C_13
REMARK    4  A    between atoms: C_17  and  C_18
REMARK                            x       y       z     vdW  Elec       q    Type
REMARK                         _______ _______ _______ _____ _____    ______ ____
ROOT
ATOM      1  C   UNL     1       0.996   9.330  19.516  0.00  0.00    +0.000 A 
ATOM      2  C   UNL     1       0.153   9.369  18.405  0.00  0.00    +0.000 A 
ATOM      3  C   UNL     1      -0.585  10.513  18.108  0.00  0.00    +0.000 A 
ATOM      4  C   UNL     1      -0.521  11.618  18.948  0.00  0.00    +0.000 A 
ATOM      5  C   UNL     1       0.209  11.557  20.139  0.00  0.00    +0.000 A 
ATOM      6  C   UNL     1       1.001  10.423  20.396  0.00  0.00    +0.000 A 
ENDROOT
BRANCH   5   7
ATOM      7  C   UNL     1       0.139  12.641  21.130  0.00  0.00    +0.000 A 
ATOM      8  N   UNL     1       1.118  13.471  21.439  0.00  0.00    +0.000 NA
ATOM      9  N   UNL     1       0.678  14.317  22.423  0.00  0.00    +0.000 NA
ATOM     10  C   UNL     1      -0.557  13.990  22.739  0.00  0.00    +0.000 A 
ATOM     11  N   UNL     1      -0.932  12.920  21.962  0.00  0.00    +0.000 N 
ATOM     12  C   UNL     1      -2.188  12.196  22.027  0.00  0.00    +0.000 C 
ATOM     13  C   UNL     1      -2.758  12.016  23.425  0.00  0.00    +0.000 C 
ATOM     14  C   UNL     1      -3.497  13.243  23.950  0.00  0.00    +0.000 C 
ATOM     15  C   UNL     1      -2.879  14.591  23.581  0.00  0.00    +0.000 C 
ATOM     16  C   UNL     1      -1.372  14.651  23.802  0.00  0.00    +0.000 C 
ENDBRANCH   5   7
BRANCH   1  19
ATOM     17  O   UNL     1       2.679   7.746  17.693  0.00  0.00    +0.000 OA
ATOM     18  C   UNL     1       2.552   7.482  18.886  0.00  0.00    +0.000 C 
ATOM     19  N   UNL     1       1.823   8.219  19.809  0.00  0.00    +0.000 N 
ATOM     20  H   UNL     1       1.988   8.024  20.792  0.00  0.00    +0.000 HD
BRANCH  18  21
ATOM     21  C   UNL     1       3.224   6.255  19.474  0.00  0.00    +0.000 C 
BRANCH  21  22
ATOM     22  C   UNL     1       2.525   4.969  19.114  0.00  0.00    +0.000 A 
ATOM     23  C   UNL     1       1.482   4.522  19.931  0.00  0.00    +0.000 A 
ATOM     24  F   UNL     1       1.143   5.238  21.015  0.00  0.00    +0.000 F 
ATOM     25  C   UNL     1       0.777   3.353  19.654  0.00  0.00    +0.000 A 
ATOM     26  C   UNL     1       1.122   2.588  18.547  0.00  0.00    +0.000 A 
ATOM     27  C   UNL     1       2.172   2.999  17.726  0.00  0.00    +0.000 A 
ATOM     28  C   UNL     1       2.870   4.181  18.006  0.00  0.00    +0.000 A 
ATOM     29 CL   UNL     1       4.141   4.624  16.924  0.00  0.00    +0.000 Cl
ENDBRANCH  21  22
ENDBRANCH  18  21
ENDBRANCH   1  19
TORSDOF 4
ENDMDL
MODEL 8
REMARK VINA RESULT:      -8.5      3.900      9.297
REMARK  Name = 
REMARK  4 active torsions:
REMARK  status: ('A' for Active; 'I' for Inactive)
REMARK    1  A    between atoms: C_2  and  C_3
REMARK    2  A    between atoms: C_3  and  C_4
REMARK    3  A    between atoms: N_12  and  C_13
REMARK    4  A    between atoms: C_17  and  C_18
REMARK                            x       y       z     vdW  Elec       q    Type
REMARK                         _______ _______ _______ _____ _____    ______ ____
ROOT
ATOM      1  C   UNL     1       1.188   9.369  20.129  0.00  0.00    +0.000 A 
ATOM      2  C   UNL     1       1.187  10.079  18.927  0.00  0.00    +0.000 A 
ATOM      3  C   UNL     1       1.677   9.503  17.757  0.00  0.00    +0.000 A 
ATOM      4  C   UNL     1       2.217   8.223  17.787  0.00  0.00    +0.000 A 
ATOM      5  C   UNL     1       2.355   7.544  19.001  0.00  0.00    +0.000 A 
ATOM      6  C   UNL     1       1.799   8.106  20.164  0.00  0.00    +0.000 A 
ENDROOT
BRANCH   5   7
ATOM      7  C   UNL     1       3.092   6.273  19.083  0.00  0.00    +0.000 A 
ATOM      8  N   UNL     1       4.219   5.993  18.456  0.00  0.00    +0.000 NA
ATOM      9  N   UNL     1       4.577   4.705  18.759  0.00  0.00    +0.000 NA
ATOM     10  C   UNL     1       3.658   4.186  19.545  0.00  0.00    +0.000 A 
ATOM     11  N   UNL     1       2.687   5.135  19.759  0.00  0.00    +0.000 N 
ATOM     12  C   UNL     1       1.457   4.967  20.511  0.00  0.00    +0.000 C 
ATOM     13  C   UNL     1       0.795   3.605  20.370  0.00  0.00    +0.000 C 
ATOM     14  C   UNL     1       1.419   2.525  21.249  0.00  0.00    +0.000 C 
ATOM     15  C   UNL     1       2.940   2.588  21.388  0.00  0.00    +0.000 C 
ATOM     16  C   UNL     1       3.665   2.784  20.061  0.00  0.00    +0.000 C 
ENDBRANCH   5   7
BRANCH   1  19
ATOM     17  O   UNL     1      -1.270  10.950  20.482  0.00  0.00    +0.000 OA
ATOM     18  C   UNL     1      -0.513  10.674  21.410  0.00  0.00    +0.000 C 
ATOM     19  N   UNL     1       0.627   9.886  21.322  0.00  0.00    +0.000 N 
ATOM     20  H   UNL     1       1.026   9.550  22.193  0.00  0.00    +0.000 HD
BRANCH  18  21
ATOM     21  C   UNL     1      -0.785  11.204  22.805  0.00  0.00    +0.000 C 
BRANCH  21  22
ATOM     22  C   UNL     1      -1.378  12.590  22.805  0.00  0.00    +0.000 A 
ATOM     23  C   UNL     1      -2.650  12.774  23.356  0.00  0.00    +0.000 A 
ATOM     24  F   UNL     1      -3.310  11.716  23.857  0.00  0.00    +0.000 F 
ATOM     25  C   UNL     1      -3.258  14.026  23.409  0.00  0.00    +0.000 A 
ATOM     26  C   UNL     1      -2.601  15.131  22.883  0.00  0.00    +0.000 A 
ATOM     27  C   UNL     1      -1.339  14.973  22.307  0.00  0.00    +0.000 A 
ATOM     28  C   UNL     1      -0.732  13.712  22.267  0.00  0.00    +0.000 A 
ATOM     29 CL   UNL     1       0.839  13.613  21.555  0.00  0.00    +0.000 Cl
ENDBRANCH  21  22
ENDBRANCH  18  21
ENDBRANCH   1  19
TORSDOF 4
ENDMDL
MODEL 9
REMARK VINA RESULT:      -8.5      3.257      4.488
REMARK  Name = 
REMARK  4 active torsions:
REMARK  status: ('A' for Active; 'I' for Inactive)
REMARK    1  A    between atoms: C_2  and  C_3
REMARK    2  A    between atoms: C_3  and  C_4
REMARK    3  A    between atoms: N_12  and  C_13
REMARK    4  A    between atoms: C_17  and  C_18
REMARK                            x       y       z     vdW  Elec       q    Type
REMARK                         _______ _______ _______ _____ _____    ______ ____
ROOT
ATOM      1  C   UNL     1       0.808  10.343  19.204  0.00  0.00    +0.000 A 
ATOM      2  C   UNL     1       1.448  11.579  19.094  0.00  0.00    +0.000 A 
ATOM      3  C   UNL     1       0.747  12.713  18.694  0.00  0.00    +0.000 A 
ATOM      4  C   UNL     1      -0.597  12.615  18.355  0.00  0.00    +0.000 A 
ATOM      5  C   UNL     1      -1.228  11.367  18.325  0.00  0.00    +0.000 A 
ATOM      6  C   UNL     1      -0.529  10.239  18.793  0.00  0.00    +0.000 A 
ENDROOT
BRANCH   5   7
ATOM      7  C   UNL     1      -2.589  11.216  17.790  0.00  0.00    +0.000 A 
ATOM      8  N   UNL     1      -2.900  10.850  16.560  0.00  0.00    +0.000 NA
ATOM      9  N   UNL     1      -4.265  10.854  16.437  0.00  0.00    +0.000 NA
ATOM     10  C   UNL     1      -4.790  11.250  17.576  0.00  0.00    +0.000 A 
ATOM     11  N   UNL     1      -3.767  11.512  18.456  0.00  0.00    +0.000 N 
ATOM     12  C   UNL     1      -3.890  12.035  19.804  0.00  0.00    +0.000 C 
ATOM     13  C   UNL     1      -4.985  13.074  19.995  0.00  0.00    +0.000 C 
ATOM     14  C   UNL     1      -6.379  12.475  20.155  0.00  0.00    +0.000 C 
ATOM     15  C   UNL     1      -6.674  11.254  19.284  0.00  0.00    +0.000 C 
ATOM     16  C   UNL     1      -6.252  11.427  17.830  0.00  0.00    +0.000 C 
ENDBRANCH   5   7
BRANCH   1  19
ATOM     17  O   UNL     1       1.992   8.124  17.675  0.00  0.00    +0.000 OA
ATOM     18  C   UNL     1       1.953   8.144  18.902  0.00  0.00    +0.000 C 
ATOM     19  N   UNL     1       1.463   9.183  19.684  0.00  0.00    +0.000 N 
ATOM     20  H   UNL     1       1.698   9.171  20.671  0.00  0.00    +0.000 HD
BRANCH  18  21
ATOM     21  C   UNL     1       2.468   6.964  19.705  0.00  0.00    +0.000 C 
BRANCH  21  22
ATOM     22  C   UNL     1       2.556   5.694  18.898  0.00  0.00    +0.000 A 
ATOM     23  C   UNL     1       1.621   4.683  19.138  0.00  0.00    +0.000 A 
ATOM     24  F   UNL     1       0.684   4.862  20.083  0.00  0.00    +0.000 F 
ATOM     25  C   UNL     1       1.625   3.488  18.421  0.00  0.00    +0.000 A 
ATOM     26  C   UNL     1       2.595   3.273  17.449  0.00  0.00    +0.000 A 
ATOM     27  C   UNL     1       3.554   4.257  17.204  0.00  0.00    +0.000 A 
ATOM     28  C   UNL     1       3.536   5.460  17.923  0.00  0.00    +0.000 A 
ATOM     29 CL   UNL     1       4.746   6.629  17.537  0.00  0.00    +0.000 Cl
ENDBRANCH  21  22
ENDBRANCH  18  21
ENDBRANCH   1  19
TORSDOF 4
ENDMDL
