MODEL 1
REMARK VINA RESULT:      -7.1      0.000      0.000
REMARK  Name = 
REMARK  9 active torsions:
REMARK  status: ('A' for Active; 'I' for Inactive)
REMARK    1  A    between atoms: C_1  and  C_2
REMARK    2  A    between atoms: C_2  and  C_3
REMARK    3  A    between atoms: C_2  and  N_4
REMARK    4  A    between atoms: N_4  and  C_5
REMARK    5  A    between atoms: C_7  and  C_8
REMARK    6  A    between atoms: C_8  and  C_9
REMARK    7  A    between atoms: N_13  and  C_14
REMARK    8  A    between atoms: C_16  and  N_17
REMARK    9  A    between atoms: C_24  and  C_25
REMARK                            x       y       z     vdW  Elec       q    Type
REMARK                         _______ _______ _______ _____ _____    ______ ____
ROOT
ATOM      1  C   UNL     1      -3.415  12.355  19.570  0.00  0.00    +0.000 A 
ATOM      2  C   UNL     1      -4.302  12.799  20.565  0.00  0.00    +0.000 A 
ATOM      3  C   UNL     1      -3.951  13.824  21.448  0.00  0.00    +0.000 A 
ATOM      4  C   UNL     1      -2.724  14.455  21.279  0.00  0.00    +0.000 A 
ATOM      5  C   UNL     1      -1.721  13.760  20.595  0.00  0.00    +0.000 A 
ATOM      6  C   UNL     1      -2.091  12.802  19.637  0.00  0.00    +0.000 A 
ENDROOT
BRANCH   5   7
ATOM      7  N   UNL     1      -0.433  13.615  21.281  0.00  0.00    +0.000 N 
ATOM      8  C   UNL     1       0.515  12.806  20.468  0.00  0.00    +0.000 C 
ATOM      9  C   UNL     1       0.324  11.420  21.007  0.00  0.00    +0.000 A 
ATOM     10  C   UNL     1      -0.179  11.534  22.305  0.00  0.00    +0.000 A 
ATOM     11  C   UNL     1      -0.653  10.447  23.021  0.00  0.00    +0.000 A 
ATOM     12  C   UNL     1      -0.609   9.199  22.402  0.00  0.00    +0.000 A 
ATOM     13  C   UNL     1      -0.078   9.064  21.105  0.00  0.00    +0.000 A 
ATOM     14  C   UNL     1       0.411  10.175  20.385  0.00  0.00    +0.000 A 
ATOM     15  C   UNL     1      -0.494  12.963  22.545  0.00  0.00    +0.000 C 
ATOM     16  O   UNL     1      -0.945  13.386  23.596  0.00  0.00    +0.000 OA
BRANCH  14  17
ATOM     17  C   UNL     1       0.922   9.977  18.980  0.00  0.00    +0.000 C 
ATOM     18  F   UNL     1      -0.041  10.070  18.025  0.00  0.00    +0.000 F 
ATOM     19  F   UNL     1       1.864  10.901  18.644  0.00  0.00    +0.000 F 
ATOM     20  F   UNL     1       1.508   8.761  18.803  0.00  0.00    +0.000 F 
ENDBRANCH  14  17
ENDBRANCH   5   7
BRANCH   1  21
ATOM     21  N   UNL     1      -3.825  11.259  18.802  0.00  0.00    +0.000 N 
ATOM     22  H   UNL     1      -3.521  10.406  19.274  0.00  0.00    +0.000 HD
BRANCH  21  24
ATOM     23  C   UNL     1      -3.130   9.749  17.047  0.00  0.00    +0.000 C 
ATOM     24  C   UNL     1      -3.530  11.194  17.368  0.00  0.00    +0.000 C 
ATOM     25  C   UNL     1      -4.758  11.579  16.541  0.00  0.00    +0.000 C 
ENDBRANCH  21  24
ENDBRANCH   1  21
BRANCH   3  26
ATOM     26  C   UNL     1      -4.627  14.007  22.793  0.00  0.00    +0.000 C 
BRANCH  26  27
ATOM     27  C   UNL     1      -5.830  13.197  23.066  0.00  0.00    +0.000 A 
ATOM     28  N   UNL     1      -5.893  12.154  23.866  0.00  0.00    +0.000 NA
ATOM     29  N   UNL     1      -7.211  11.783  23.977  0.00  0.00    +0.000 NA
ATOM     30  C   UNL     1      -7.917  12.607  23.241  0.00  0.00    +0.000 A 
ATOM     31  N   UNL     1      -7.092  13.502  22.640  0.00  0.00    +0.000 N 
ATOM     32  C   UNL     1      -7.478  14.575  21.764  0.00  0.00    +0.000 C 
ENDBRANCH  26  27
ENDBRANCH   3  26
TORSDOF 6
ENDMDL
MODEL 2
REMARK VINA RESULT:      -7.0      6.942     10.707
REMARK  Name = 
REMARK  9 active torsions:
REMARK  status: ('A' for Active; 'I' for Inactive)
REMARK    1  A    between atoms: C_1  and  C_2
REMARK    2  A    between atoms: C_2  and  C_3
REMARK    3  A    between atoms: C_2  and  N_4
REMARK    4  A    between atoms: N_4  and  C_5
REMARK    5  A    between atoms: C_7  and  C_8
REMARK    6  A    between atoms: C_8  and  C_9
REMARK    7  A    between atoms: N_13  and  C_14
REMARK    8  A    between atoms: C_16  and  N_17
REMARK    9  A    between atoms: C_24  and  C_25
REMARK                            x       y       z     vdW  Elec       q    Type
REMARK                         _______ _______ _______ _____ _____    ______ ____
ROOT
ATOM      1  C   UNL     1       2.418   8.926  17.832  0.00  0.00    +0.000 A 
ATOM      2  C   UNL     1       3.614   8.667  17.140  0.00  0.00    +0.000 A 
ATOM      3  C   UNL     1       4.195   7.396  17.141  0.00  0.00    +0.000 A 
ATOM      4  C   UNL     1       3.528   6.361  17.786  0.00  0.00    +0.000 A 
ATOM      5  C   UNL     1       2.605   6.699  18.782  0.00  0.00    +0.000 A 
ATOM      6  C   UNL     1       1.954   7.941  18.712  0.00  0.00    +0.000 A 
ENDROOT
BRANCH   5   7
ATOM      7  N   UNL     1       2.790   6.070  20.094  0.00  0.00    +0.000 N 
ATOM      8  C   UNL     1       3.681   4.881  19.993  0.00  0.00    +0.000 C 
ATOM      9  C   UNL     1       2.712   3.747  19.833  0.00  0.00    +0.000 A 
ATOM     10  C   UNL     1       1.489   4.154  20.373  0.00  0.00    +0.000 A 
ATOM     11  C   UNL     1       0.323   3.423  20.216  0.00  0.00    +0.000 A 
ATOM     12  C   UNL     1       0.400   2.234  19.493  0.00  0.00    +0.000 A 
ATOM     13  C   UNL     1       1.631   1.797  18.967  0.00  0.00    +0.000 A 
ATOM     14  C   UNL     1       2.816   2.543  19.138  0.00  0.00    +0.000 A 
ATOM     15  C   UNL     1       1.598   5.595  20.707  0.00  0.00    +0.000 C 
ATOM     16  O   UNL     1       0.691   6.241  21.206  0.00  0.00    +0.000 OA
BRANCH  14  17
ATOM     17  C   UNL     1       4.096   2.051  18.510  0.00  0.00    +0.000 C 
ATOM     18  F   UNL     1       4.041   0.759  18.086  0.00  0.00    +0.000 F 
ATOM     19  F   UNL     1       4.444   2.783  17.417  0.00  0.00    +0.000 F 
ATOM     20  F   UNL     1       5.156   2.119  19.362  0.00  0.00    +0.000 F 
ENDBRANCH  14  17
ENDBRANCH   5   7
BRANCH   1  21
ATOM     21  N   UNL     1       1.972  10.252  17.849  0.00  0.00    +0.000 N 
ATOM     22  H   UNL     1       2.780  10.864  17.719  0.00  0.00    +0.000 HD
BRANCH  21  24
ATOM     23  C   UNL     1       1.528  12.190  19.223  0.00  0.00    +0.000 C 
ATOM     24  C   UNL     1       1.115  10.743  18.932  0.00  0.00    +0.000 C 
ATOM     25  C   UNL     1      -0.358  10.706  18.520  0.00  0.00    +0.000 C 
ENDBRANCH  21  24
ENDBRANCH   1  21
BRANCH   3  26
ATOM     26  C   UNL     1       5.666   7.174  16.847  0.00  0.00    +0.000 C 
BRANCH  26  27
ATOM     27  C   UNL     1       6.039   5.938  16.134  0.00  0.00    +0.000 A 
ATOM     28  N   UNL     1       5.841   5.694  14.856  0.00  0.00    +0.000 NA
ATOM     29  N   UNL     1       6.470   4.514  14.546  0.00  0.00    +0.000 NA
ATOM     30  C   UNL     1       7.035   4.067  15.642  0.00  0.00    +0.000 A 
ATOM     31  N   UNL     1       6.779   4.919  16.666  0.00  0.00    +0.000 N 
ATOM     32  C   UNL     1       7.230   4.792  18.025  0.00  0.00    +0.000 C 
ENDBRANCH  26  27
ENDBRANCH   3  26
TORSDOF 6
ENDMDL
MODEL 3
REMARK VINA RESULT:      -6.9      6.894     10.628
REMARK  Name = 
REMARK  9 active torsions:
REMARK  status: ('A' for Active; 'I' for Inactive)
REMARK    1  A    between atoms: C_1  and  C_2
REMARK    2  A    between atoms: C_2  and  C_3
REMARK    3  A    between atoms: C_2  and  N_4
REMARK    4  A    between atoms: N_4  and  C_5
REMARK    5  A    between atoms: C_7  and  C_8
REMARK    6  A    between atoms: C_8  and  C_9
REMARK    7  A    between atoms: N_13  and  C_14
REMARK    8  A    between atoms: C_16  and  N_17
REMARK    9  A    between atoms: C_24  and  C_25
REMARK                            x       y       z     vdW  Elec       q    Type
REMARK                         _______ _______ _______ _____ _____    ______ ____
ROOT
ATOM      1  C   UNL     1       2.424   8.776  17.720  0.00  0.00    +0.000 A 
ATOM      2  C   UNL     1       3.692   8.708  17.117  0.00  0.00    +0.000 A 
ATOM      3  C   UNL     1       4.460   7.542  17.168  0.00  0.00    +0.000 A 
ATOM      4  C   UNL     1       3.915   6.412  17.768  0.00  0.00    +0.000 A 
ATOM      5  C   UNL     1       2.883   6.599  18.693  0.00  0.00    +0.000 A 
ATOM      6  C   UNL     1       2.055   7.726  18.569  0.00  0.00    +0.000 A 
ENDROOT
BRANCH   5   7
ATOM      7  N   UNL     1       3.067   5.998  20.018  0.00  0.00    +0.000 N 
ATOM      8  C   UNL     1       3.881   4.754  19.930  0.00  0.00    +0.000 C 
ATOM      9  C   UNL     1       2.841   3.678  19.832  0.00  0.00    +0.000 A 
ATOM     10  C   UNL     1       1.661   4.175  20.392  0.00  0.00    +0.000 A 
ATOM     11  C   UNL     1       0.449   3.512  20.290  0.00  0.00    +0.000 A 
ATOM     12  C   UNL     1       0.434   2.300  19.601  0.00  0.00    +0.000 A 
ATOM     13  C   UNL     1       1.619   1.773  19.056  0.00  0.00    +0.000 A 
ATOM     14  C   UNL     1       2.853   2.450  19.172  0.00  0.00    +0.000 A 
ATOM     15  C   UNL     1       1.867   5.615  20.678  0.00  0.00    +0.000 C 
ATOM     16  O   UNL     1       1.015   6.330  21.181  0.00  0.00    +0.000 OA
BRANCH  14  17
ATOM     17  C   UNL     1       4.081   1.862  18.525  0.00  0.00    +0.000 C 
ATOM     18  F   UNL     1       4.506   2.543  17.427  0.00  0.00    +0.000 F 
ATOM     19  F   UNL     1       5.144   1.834  19.375  0.00  0.00    +0.000 F 
ATOM     20  F   UNL     1       3.893   0.577  18.117  0.00  0.00    +0.000 F 
ENDBRANCH  14  17
ENDBRANCH   5   7
BRANCH   1  21
ATOM     21  N   UNL     1       1.779  10.017  17.697  0.00  0.00    +0.000 N 
ATOM     22  H   UNL     1       2.486  10.744  17.576  0.00  0.00    +0.000 HD
BRANCH  21  24
ATOM     23  C   UNL     1       1.135  11.832  19.157  0.00  0.00    +0.000 C 
ATOM     24  C   UNL     1       0.826  10.388  18.747  0.00  0.00    +0.000 C 
ATOM     25  C   UNL     1      -0.613  10.300  18.234  0.00  0.00    +0.000 C 
ENDBRANCH  21  24
ENDBRANCH   1  21
BRANCH   3  26
ATOM     26  C   UNL     1       5.965   7.550  16.981  0.00  0.00    +0.000 C 
BRANCH  26  27
ATOM     27  C   UNL     1       6.715   6.367  17.443  0.00  0.00    +0.000 A 
ATOM     28  N   UNL     1       7.134   6.148  18.672  0.00  0.00    +0.000 NA
ATOM     29  N   UNL     1       7.641   4.874  18.727  0.00  0.00    +0.000 NA
ATOM     30  C   UNL     1       7.520   4.348  17.532  0.00  0.00    +0.000 A 
ATOM     31  N   UNL     1       6.958   5.252  16.691  0.00  0.00    +0.000 N 
ATOM     32  C   UNL     1       6.648   5.057  15.300  0.00  0.00    +0.000 C 
ENDBRANCH  26  27
ENDBRANCH   3  26
TORSDOF 6
ENDMDL
MODEL 4
REMARK VINA RESULT:      -6.9      8.746     11.952
REMARK  Name = 
REMARK  9 active torsions:
REMARK  status: ('A' for Active; 'I' for Inactive)
REMARK    1  A    between atoms: C_1  and  C_2
REMARK    2  A    between atoms: C_2  and  C_3
REMARK    3  A    between atoms: C_2  and  N_4
REMARK    4  A    between atoms: N_4  and  C_5
REMARK    5  A    between atoms: C_7  and  C_8
REMARK    6  A    between atoms: C_8  and  C_9
REMARK    7  A    between atoms: N_13  and  C_14
REMARK    8  A    between atoms: C_16  and  N_17
REMARK    9  A    between atoms: C_24  and  C_25
REMARK                            x       y       z     vdW  Elec       q    Type
REMARK                         _______ _______ _______ _____ _____    ______ ____
ROOT
ATOM      1  C   UNL     1       5.918   3.701  15.268  0.00  0.00    +0.000 A 
ATOM      2  C   UNL     1       6.250   4.980  15.747  0.00  0.00    +0.000 A 
ATOM      3  C   UNL     1       5.665   5.498  16.906  0.00  0.00    +0.000 A 
ATOM      4  C   UNL     1       4.792   4.691  17.627  0.00  0.00    +0.000 A 
ATOM      5  C   UNL     1       4.169   3.636  16.952  0.00  0.00    +0.000 A 
ATOM      6  C   UNL     1       4.818   3.059  15.848  0.00  0.00    +0.000 A 
ENDROOT
BRANCH   5   7
ATOM      7  N   UNL     1       2.706   3.580  17.023  0.00  0.00    +0.000 N 
ATOM      8  C   UNL     1       2.144   4.888  17.457  0.00  0.00    +0.000 C 
ATOM      9  C   UNL     1       2.000   4.719  18.940  0.00  0.00    +0.000 A 
ATOM     10  C   UNL     1       1.911   3.349  19.204  0.00  0.00    +0.000 A 
ATOM     11  C   UNL     1       1.966   2.831  20.487  0.00  0.00    +0.000 A 
ATOM     12  C   UNL     1       2.111   3.733  21.540  0.00  0.00    +0.000 A 
ATOM     13  C   UNL     1       2.173   5.117  21.292  0.00  0.00    +0.000 A 
ATOM     14  C   UNL     1       2.107   5.638  19.982  0.00  0.00    +0.000 A 
ATOM     15  C   UNL     1       2.183   2.625  17.939  0.00  0.00    +0.000 C 
ATOM     16  O   UNL     1       2.171   1.409  17.843  0.00  0.00    +0.000 OA
BRANCH  14  17
ATOM     17  C   UNL     1       2.229   7.126  19.773  0.00  0.00    +0.000 C 
ATOM     18  F   UNL     1       1.300   7.642  18.924  0.00  0.00    +0.000 F 
ATOM     19  F   UNL     1       2.093   7.821  20.936  0.00  0.00    +0.000 F 
ATOM     20  F   UNL     1       3.440   7.484  19.262  0.00  0.00    +0.000 F 
ENDBRANCH  14  17
ENDBRANCH   5   7
BRANCH   1  21
ATOM     21  N   UNL     1       6.485   3.317  14.048  0.00  0.00    +0.000 N 
ATOM     22  H   UNL     1       7.501   3.334  14.147  0.00  0.00    +0.000 HD
BRANCH  21  24
ATOM     23  C   UNL     1       7.347   4.349  12.040  0.00  0.00    +0.000 C 
ATOM     24  C   UNL     1       6.072   3.953  12.794  0.00  0.00    +0.000 C 
ATOM     25  C   UNL     1       5.252   2.986  11.936  0.00  0.00    +0.000 C 
ENDBRANCH  21  24
ENDBRANCH   1  21
BRANCH   3  26
ATOM     26  C   UNL     1       5.604   6.986  17.191  0.00  0.00    +0.000 C 
BRANCH  26  27
ATOM     27  C   UNL     1       6.859   7.657  17.579  0.00  0.00    +0.000 A 
ATOM     28  N   UNL     1       7.211   8.884  17.257  0.00  0.00    +0.000 NA
ATOM     29  N   UNL     1       8.361   9.190  17.941  0.00  0.00    +0.000 NA
ATOM     30  C   UNL     1       8.683   8.142  18.661  0.00  0.00    +0.000 A 
ATOM     31  N   UNL     1       7.778   7.153  18.456  0.00  0.00    +0.000 N 
ATOM     32  C   UNL     1       7.772   5.852  19.069  0.00  0.00    +0.000 C 
ENDBRANCH  26  27
ENDBRANCH   3  26
TORSDOF 6
ENDMDL
MODEL 5
REMARK VINA RESULT:      -6.8      1.076      1.297
REMARK  Name = 
REMARK  9 active torsions:
REMARK  status: ('A' for Active; 'I' for Inactive)
REMARK    1  A    between atoms: C_1  and  C_2
REMARK    2  A    between atoms: C_2  and  C_3
REMARK    3  A    between atoms: C_2  and  N_4
REMARK    4  A    between atoms: N_4  and  C_5
REMARK    5  A    between atoms: C_7  and  C_8
REMARK    6  A    between atoms: C_8  and  C_9
REMARK    7  A    between atoms: N_13  and  C_14
REMARK    8  A    between atoms: C_16  and  N_17
REMARK    9  A    between atoms: C_24  and  C_25
REMARK                            x       y       z     vdW  Elec       q    Type
REMARK                         _______ _______ _______ _____ _____    ______ ____
ROOT
ATOM      1  C   UNL     1      -2.984  11.612  18.633  0.00  0.00    +0.000 A 
ATOM      2  C   UNL     1      -3.908  11.839  19.666  0.00  0.00    +0.000 A 
ATOM      3  C   UNL     1      -3.712  12.852  20.609  0.00  0.00    +0.000 A 
ATOM      4  C   UNL     1      -2.611  13.689  20.466  0.00  0.00    +0.000 A 
ATOM      5  C   UNL     1      -1.523  13.216  19.725  0.00  0.00    +0.000 A 
ATOM      6  C   UNL     1      -1.751  12.270  18.712  0.00  0.00    +0.000 A 
ENDROOT
BRANCH   5   7
ATOM      7  N   UNL     1      -0.213  13.247  20.384  0.00  0.00    +0.000 N 
ATOM      8  C   UNL     1       0.761  12.374  19.673  0.00  0.00    +0.000 C 
ATOM      9  C   UNL     1       0.662  11.078  20.422  0.00  0.00    +0.000 A 
ATOM     10  C   UNL     1       0.183  11.364  21.703  0.00  0.00    +0.000 A 
ATOM     11  C   UNL     1      -0.210  10.376  22.590  0.00  0.00    +0.000 A 
ATOM     12  C   UNL     1      -0.108   9.052  22.166  0.00  0.00    +0.000 A 
ATOM     13  C   UNL     1       0.398   8.748  20.889  0.00  0.00    +0.000 A 
ATOM     14  C   UNL     1       0.806   9.759  19.994  0.00  0.00    +0.000 A 
ATOM     15  C   UNL     1      -0.207  12.794  21.733  0.00  0.00    +0.000 C 
ATOM     16  O   UNL     1      -0.657  13.348  22.722  0.00  0.00    +0.000 OA
BRANCH  14  17
ATOM     17  C   UNL     1       1.295   9.377  18.620  0.00  0.00    +0.000 C 
ATOM     18  F   UNL     1       0.344   9.465  17.651  0.00  0.00    +0.000 F 
ATOM     19  F   UNL     1       2.320  10.169  18.202  0.00  0.00    +0.000 F 
ATOM     20  F   UNL     1       1.762   8.099  18.568  0.00  0.00    +0.000 F 
ENDBRANCH  14  17
ENDBRANCH   5   7
BRANCH   1  21
ATOM     21  N   UNL     1      -3.223  10.513  17.801  0.00  0.00    +0.000 N 
ATOM     22  H   UNL     1      -2.338  10.024  17.654  0.00  0.00    +0.000 HD
BRANCH  21  24
ATOM     23  C   UNL     1      -4.895  11.865  16.698  0.00  0.00    +0.000 C 
ATOM     24  C   UNL     1      -3.948  10.671  16.537  0.00  0.00    +0.000 C 
ATOM     25  C   UNL     1      -2.980  10.939  15.383  0.00  0.00    +0.000 C 
ENDBRANCH  21  24
ENDBRANCH   1  21
BRANCH   3  26
ATOM     26  C   UNL     1      -4.377  12.835  21.971  0.00  0.00    +0.000 C 
BRANCH  26  27
ATOM     27  C   UNL     1      -5.852  12.813  22.009  0.00  0.00    +0.000 A 
ATOM     28  N   UNL     1      -6.620  11.818  21.617  0.00  0.00    +0.000 NA
ATOM     29  N   UNL     1      -7.914  12.119  21.964  0.00  0.00    +0.000 NA
ATOM     30  C   UNL     1      -7.903  13.288  22.557  0.00  0.00    +0.000 A 
ATOM     31  N   UNL     1      -6.635  13.768  22.595  0.00  0.00    +0.000 N 
ATOM     32  C   UNL     1      -6.203  15.012  23.172  0.00  0.00    +0.000 C 
ENDBRANCH  26  27
ENDBRANCH   3  26
TORSDOF 6
ENDMDL
MODEL 6
REMARK VINA RESULT:      -6.7      3.273      5.448
REMARK  Name = 
REMARK  9 active torsions:
REMARK  status: ('A' for Active; 'I' for Inactive)
REMARK    1  A    between atoms: C_1  and  C_2
REMARK    2  A    between atoms: C_2  and  C_3
REMARK    3  A    between atoms: C_2  and  N_4
REMARK    4  A    between atoms: N_4  and  C_5
REMARK    5  A    between atoms: C_7  and  C_8
REMARK    6  A    between atoms: C_8  and  C_9
REMARK    7  A    between atoms: N_13  and  C_14
REMARK    8  A    between atoms: C_16  and  N_17
REMARK    9  A    between atoms: C_24  and  C_25
REMARK                            x       y       z     vdW  Elec       q    Type
REMARK                         _______ _______ _______ _____ _____    ______ ____
ROOT
ATOM      1  C   UNL     1      -0.996  11.726  20.651  0.00  0.00    +0.000 A 
ATOM      2  C   UNL     1      -2.286  12.023  20.180  0.00  0.00    +0.000 A 
ATOM      3  C   UNL     1      -2.790  13.326  20.211  0.00  0.00    +0.000 A 
ATOM      4  C   UNL     1      -1.961  14.350  20.656  0.00  0.00    +0.000 A 
ATOM      5  C   UNL     1      -0.885  14.006  21.481  0.00  0.00    +0.000 A 
ATOM      6  C   UNL     1      -0.323  12.724  21.366  0.00  0.00    +0.000 A 
ENDROOT
BRANCH   5   7
ATOM      7  N   UNL     1      -0.785  14.711  22.763  0.00  0.00    +0.000 N 
ATOM      8  C   UNL     1      -1.512  13.974  23.833  0.00  0.00    +0.000 C 
ATOM      9  C   UNL     1      -2.863  14.626  23.833  0.00  0.00    +0.000 A 
ATOM     10  C   UNL     1      -2.717  15.906  23.293  0.00  0.00    +0.000 A 
ATOM     11  C   UNL     1      -3.799  16.708  22.967  0.00  0.00    +0.000 A 
ATOM     12  C   UNL     1      -5.074  16.195  23.203  0.00  0.00    +0.000 A 
ATOM     13  C   UNL     1      -5.236  14.918  23.771  0.00  0.00    +0.000 A 
ATOM     14  C   UNL     1      -4.129  14.111  24.110  0.00  0.00    +0.000 A 
ATOM     15  C   UNL     1      -1.334  16.024  22.772  0.00  0.00    +0.000 C 
ATOM     16  O   UNL     1      -0.896  17.033  22.245  0.00  0.00    +0.000 OA
BRANCH  14  17
ATOM     17  C   UNL     1      -4.364  12.731  24.670  0.00  0.00    +0.000 C 
ATOM     18  F   UNL     1      -4.057  12.612  25.990  0.00  0.00    +0.000 F 
ATOM     19  F   UNL     1      -5.665  12.348  24.559  0.00  0.00    +0.000 F 
ATOM     20  F   UNL     1      -3.634  11.776  24.030  0.00  0.00    +0.000 F 
ENDBRANCH  14  17
ENDBRANCH   5   7
BRANCH   1  21
ATOM     21  N   UNL     1      -0.623  10.378  20.665  0.00  0.00    +0.000 N 
ATOM     22  H   UNL     1      -1.470   9.811  20.599  0.00  0.00    +0.000 HD
BRANCH  21  24
ATOM     23  C   UNL     1      -0.576   9.592  22.950  0.00  0.00    +0.000 C 
ATOM     24  C   UNL     1       0.273   9.857  21.702  0.00  0.00    +0.000 C 
ATOM     25  C   UNL     1       0.933   8.554  21.247  0.00  0.00    +0.000 C 
ENDBRANCH  21  24
ENDBRANCH   1  21
BRANCH   3  26
ATOM     26  C   UNL     1      -4.277  13.623  20.184  0.00  0.00    +0.000 C 
BRANCH  26  27
ATOM     27  C   UNL     1      -5.203  12.477  20.257  0.00  0.00    +0.000 A 
ATOM     28  N   UNL     1      -5.822  12.052  21.338  0.00  0.00    +0.000 NA
ATOM     29  N   UNL     1      -6.711  11.075  20.961  0.00  0.00    +0.000 NA
ATOM     30  C   UNL     1      -6.611  10.928  19.663  0.00  0.00    +0.000 A 
ATOM     31  N   UNL     1      -5.667  11.776  19.180  0.00  0.00    +0.000 N 
ATOM     32  C   UNL     1      -5.269  11.928  17.806  0.00  0.00    +0.000 C 
ENDBRANCH  26  27
ENDBRANCH   3  26
TORSDOF 6
ENDMDL
MODEL 7
REMARK VINA RESULT:      -6.7      0.598      1.089
REMARK  Name = 
REMARK  9 active torsions:
REMARK  status: ('A' for Active; 'I' for Inactive)
REMARK    1  A    between atoms: C_1  and  C_2
REMARK    2  A    between atoms: C_2  and  C_3
REMARK    3  A    between atoms: C_2  and  N_4
REMARK    4  A    between atoms: N_4  and  C_5
REMARK    5  A    between atoms: C_7  and  C_8
REMARK    6  A    between atoms: C_8  and  C_9
REMARK    7  A    between atoms: N_13  and  C_14
REMARK    8  A    between atoms: C_16  and  N_17
REMARK    9  A    between atoms: C_24  and  C_25
REMARK                            x       y       z     vdW  Elec       q    Type
REMARK                         _______ _______ _______ _____ _____    ______ ____
ROOT
ATOM      1  C   UNL     1      -3.341  12.105  19.327  0.00  0.00    +0.000 A 
ATOM      2  C   UNL     1      -4.203  12.794  20.196  0.00  0.00    +0.000 A 
ATOM      3  C   UNL     1      -3.787  13.942  20.876  0.00  0.00    +0.000 A 
ATOM      4  C   UNL     1      -2.514  14.440  20.622  0.00  0.00    +0.000 A 
ATOM      5  C   UNL     1      -1.558  13.557  20.109  0.00  0.00    +0.000 A 
ATOM      6  C   UNL     1      -1.987  12.461  19.342  0.00  0.00    +0.000 A 
ENDROOT
BRANCH   5   7
ATOM      7  N   UNL     1      -0.293  13.455  20.843  0.00  0.00    +0.000 N 
ATOM      8  C   UNL     1       0.672  12.581  20.122  0.00  0.00    +0.000 C 
ATOM      9  C   UNL     1       0.453  11.240  20.757  0.00  0.00    +0.000 A 
ATOM     10  C   UNL     1      -0.089  11.455  22.027  0.00  0.00    +0.000 A 
ATOM     11  C   UNL     1      -0.594  10.428  22.807  0.00  0.00    +0.000 A 
ATOM     12  C   UNL     1      -0.542   9.137  22.285  0.00  0.00    +0.000 A 
ATOM     13  C   UNL     1       0.026   8.901  21.019  0.00  0.00    +0.000 A 
ATOM     14  C   UNL     1       0.546   9.951  20.233  0.00  0.00    +0.000 A 
ATOM     15  C   UNL     1      -0.397  12.900  22.149  0.00  0.00    +0.000 C 
ATOM     16  O   UNL     1      -0.876  13.404  23.152  0.00  0.00    +0.000 OA
BRANCH  14  17
ATOM     17  C   UNL     1       1.098   9.646  18.863  0.00  0.00    +0.000 C 
ATOM     18  F   UNL     1       2.049  10.522  18.443  0.00  0.00    +0.000 F 
ATOM     19  F   UNL     1       1.679   8.416  18.807  0.00  0.00    +0.000 F 
ATOM     20  F   UNL     1       0.135   9.650  17.900  0.00  0.00    +0.000 F 
ENDBRANCH  14  17
ENDBRANCH   5   7
BRANCH   1  21
ATOM     21  N   UNL     1      -3.822  10.914  18.772  0.00  0.00    +0.000 N 
ATOM     22  H   UNL     1      -3.188  10.158  19.037  0.00  0.00    +0.000 HD
BRANCH  21  24
ATOM     23  C   UNL     1      -5.037  12.048  17.018  0.00  0.00    +0.000 C 
ATOM     24  C   UNL     1      -4.165  10.832  17.349  0.00  0.00    +0.000 C 
ATOM     25  C   UNL     1      -2.904  10.858  16.483  0.00  0.00    +0.000 C 
ENDBRANCH  21  24
ENDBRANCH   1  21
BRANCH   3  26
ATOM     26  C   UNL     1      -4.463  14.426  22.144  0.00  0.00    +0.000 C 
BRANCH  26  27
ATOM     27  C   UNL     1      -5.294  13.459  22.885  0.00  0.00    +0.000 A 
ATOM     28  N   UNL     1      -4.852  12.541  23.720  0.00  0.00    +0.000 NA
ATOM     29  N   UNL     1      -5.939  11.958  24.323  0.00  0.00    +0.000 NA
ATOM     30  C   UNL     1      -7.015  12.532  23.842  0.00  0.00    +0.000 A 
ATOM     31  N   UNL     1      -6.660  13.469  22.927  0.00  0.00    +0.000 N 
ATOM     32  C   UNL     1      -7.545  14.325  22.183  0.00  0.00    +0.000 C 
ENDBRANCH  26  27
ENDBRANCH   3  26
TORSDOF 6
ENDMDL
MODEL 8
REMARK VINA RESULT:      -6.7      5.407      9.487
REMARK  Name = 
REMARK  9 active torsions:
REMARK  status: ('A' for Active; 'I' for Inactive)
REMARK    1  A    between atoms: C_1  and  C_2
REMARK    2  A    between atoms: C_2  and  C_3
REMARK    3  A    between atoms: C_2  and  N_4
REMARK    4  A    between atoms: N_4  and  C_5
REMARK    5  A    between atoms: C_7  and  C_8
REMARK    6  A    between atoms: C_8  and  C_9
REMARK    7  A    between atoms: N_13  and  C_14
REMARK    8  A    between atoms: C_16  and  N_17
REMARK    9  A    between atoms: C_24  and  C_25
REMARK                            x       y       z     vdW  Elec       q    Type
REMARK                         _______ _______ _______ _____ _____    ______ ____
ROOT
ATOM      1  C   UNL     1       2.262   6.601  20.155  0.00  0.00    +0.000 A 
ATOM      2  C   UNL     1       3.083   6.307  19.053  0.00  0.00    +0.000 A 
ATOM      3  C   UNL     1       3.422   7.288  18.116  0.00  0.00    +0.000 A 
ATOM      4  C   UNL     1       2.989   8.591  18.331  0.00  0.00    +0.000 A 
ATOM      5  C   UNL     1       1.875   8.781  19.156  0.00  0.00    +0.000 A 
ATOM      6  C   UNL     1       1.605   7.837  20.160  0.00  0.00    +0.000 A 
ENDROOT
BRANCH   5   7
ATOM      7  N   UNL     1       0.765   9.558  18.597  0.00  0.00    +0.000 N 
ATOM      8  C   UNL     1       1.260  10.806  17.953  0.00  0.00    +0.000 C 
ATOM      9  C   UNL     1       1.129  11.824  19.046  0.00  0.00    +0.000 A 
ATOM     10  C   UNL     1       0.156  11.366  19.938  0.00  0.00    +0.000 A 
ATOM     11  C   UNL     1      -0.076  11.969  21.165  0.00  0.00    +0.000 A 
ATOM     12  C   UNL     1       0.702  13.077  21.494  0.00  0.00    +0.000 A 
ATOM     13  C   UNL     1       1.667  13.566  20.594  0.00  0.00    +0.000 A 
ATOM     14  C   UNL     1       1.891  12.953  19.343  0.00  0.00    +0.000 A 
ATOM     15  C   UNL     1      -0.208   9.985  19.543  0.00  0.00    +0.000 C 
ATOM     16  O   UNL     1      -1.043   9.315  20.128  0.00  0.00    +0.000 OA
BRANCH  14  17
ATOM     17  C   UNL     1       2.972  13.491  18.439  0.00  0.00    +0.000 C 
ATOM     18  F   UNL     1       2.515  14.330  17.471  0.00  0.00    +0.000 F 
ATOM     19  F   UNL     1       3.910  14.198  19.128  0.00  0.00    +0.000 F 
ATOM     20  F   UNL     1       3.648  12.504  17.789  0.00  0.00    +0.000 F 
ENDBRANCH  14  17
ENDBRANCH   5   7
BRANCH   1  21
ATOM     21  N   UNL     1       1.902   5.529  20.979  0.00  0.00    +0.000 N 
ATOM     22  H   UNL     1       2.348   5.660  21.888  0.00  0.00    +0.000 HD
BRANCH  21  24
ATOM     23  C   UNL     1       2.310   3.278  21.756  0.00  0.00    +0.000 C 
ATOM     24  C   UNL     1       2.052   4.146  20.520  0.00  0.00    +0.000 C 
ATOM     25  C   UNL     1       0.782   3.664  19.815  0.00  0.00    +0.000 C 
ENDBRANCH  21  24
ENDBRANCH   1  21
BRANCH   3  26
ATOM     26  C   UNL     1       3.869   6.947  16.708  0.00  0.00    +0.000 C 
BRANCH  26  27
ATOM     27  C   UNL     1       5.229   6.399  16.539  0.00  0.00    +0.000 A 
ATOM     28  N   UNL     1       6.345   7.098  16.508  0.00  0.00    +0.000 NA
ATOM     29  N   UNL     1       7.397   6.216  16.501  0.00  0.00    +0.000 NA
ATOM     30  C   UNL     1       6.898   5.004  16.527  0.00  0.00    +0.000 A 
ATOM     31  N   UNL     1       5.543   5.069  16.537  0.00  0.00    +0.000 N 
ATOM     32  C   UNL     1       4.628   3.960  16.576  0.00  0.00    +0.000 C 
ENDBRANCH  26  27
ENDBRANCH   3  26
TORSDOF 6
ENDMDL
MODEL 9
REMARK VINA RESULT:      -6.7      1.409      1.925
REMARK  Name = 
REMARK  9 active torsions:
REMARK  status: ('A' for Active; 'I' for Inactive)
REMARK    1  A    between atoms: C_1  and  C_2
REMARK    2  A    between atoms: C_2  and  C_3
REMARK    3  A    between atoms: C_2  and  N_4
REMARK    4  A    between atoms: N_4  and  C_5
REMARK    5  A    between atoms: C_7  and  C_8
REMARK    6  A    between atoms: C_8  and  C_9
REMARK    7  A    between atoms: N_13  and  C_14
REMARK    8  A    between atoms: C_16  and  N_17
REMARK    9  A    between atoms: C_24  and  C_25
REMARK                            x       y       z     vdW  Elec       q    Type
REMARK                         _______ _______ _______ _____ _____    ______ ____
ROOT
ATOM      1  C   UNL     1      -2.039  12.304  17.968  0.00  0.00    +0.000 A 
ATOM      2  C   UNL     1      -3.091  12.192  18.893  0.00  0.00    +0.000 A 
ATOM      3  C   UNL     1      -3.039  12.832  20.134  0.00  0.00    +0.000 A 
ATOM      4  C   UNL     1      -1.950  13.649  20.416  0.00  0.00    +0.000 A 
ATOM      5  C   UNL     1      -0.766  13.428  19.704  0.00  0.00    +0.000 A 
ATOM      6  C   UNL     1      -0.842  12.876  18.415  0.00  0.00    +0.000 A 
ENDROOT
BRANCH   5   7
ATOM      7  N   UNL     1       0.450  13.216  20.495  0.00  0.00    +0.000 N 
ATOM      8  C   UNL     1       1.327  12.196  19.858  0.00  0.00    +0.000 C 
ATOM      9  C   UNL     1       0.924  10.926  20.548  0.00  0.00    +0.000 A 
ATOM     10  C   UNL     1       0.367  11.272  21.782  0.00  0.00    +0.000 A 
ATOM     11  C   UNL     1      -0.286  10.356  22.590  0.00  0.00    +0.000 A 
ATOM     12  C   UNL     1      -0.373   9.041  22.133  0.00  0.00    +0.000 A 
ATOM     13  C   UNL     1       0.207   8.672  20.905  0.00  0.00    +0.000 A 
ATOM     14  C   UNL     1       0.880   9.610  20.092  0.00  0.00    +0.000 A 
ATOM     15  C   UNL     1       0.232  12.748  21.821  0.00  0.00    +0.000 C 
ATOM     16  O   UNL     1      -0.218  13.358  22.777  0.00  0.00    +0.000 OA
BRANCH  14  17
ATOM     17  C   UNL     1       1.439   9.168  18.763  0.00  0.00    +0.000 C 
ATOM     18  F   UNL     1       1.853   7.872  18.742  0.00  0.00    +0.000 F 
ATOM     19  F   UNL     1       0.525   9.279  17.760  0.00  0.00    +0.000 F 
ATOM     20  F   UNL     1       2.514   9.909  18.376  0.00  0.00    +0.000 F 
ENDBRANCH  14  17
ENDBRANCH   5   7
BRANCH   1  21
ATOM     21  N   UNL     1      -2.145  11.547  16.796  0.00  0.00    +0.000 N 
ATOM     22  H   UNL     1      -1.952  12.158  16.001  0.00  0.00    +0.000 HD
BRANCH  21  24
ATOM     23  C   UNL     1      -3.346  10.395  15.044  0.00  0.00    +0.000 C 
ATOM     24  C   UNL     1      -3.326  10.717  16.542  0.00  0.00    +0.000 C 
ATOM     25  C   UNL     1      -3.260   9.415  17.343  0.00  0.00    +0.000 C 
ENDBRANCH  21  24
ENDBRANCH   1  21
BRANCH   3  26
ATOM     26  C   UNL     1      -3.868  12.377  21.320  0.00  0.00    +0.000 C 
BRANCH  26  27
ATOM     27  C   UNL     1      -5.175  13.028  21.527  0.00  0.00    +0.000 A 
ATOM     28  N   UNL     1      -5.378  14.174  22.142  0.00  0.00    +0.000 NA
ATOM     29  N   UNL     1      -6.699  14.514  21.983  0.00  0.00    +0.000 NA
ATOM     30  C   UNL     1      -7.268  13.567  21.277  0.00  0.00    +0.000 A 
ATOM     31  N   UNL     1      -6.355  12.608  20.981  0.00  0.00    +0.000 N 
ATOM     32  C   UNL     1      -6.580  11.413  20.213  0.00  0.00    +0.000 C 
ENDBRANCH  26  27
ENDBRANCH   3  26
TORSDOF 6
ENDMDL
