MODEL 1
REMARK VINA RESULT:      -9.0      0.000      0.000
REMARK  Name = 
REMARK  4 active torsions:
REMARK  status: ('A' for Active; 'I' for Inactive)
REMARK    1  A    between atoms: C_2  and  C_3
REMARK    2  A    between atoms: C_7  and  S_8
REMARK    3  A    between atoms: S_8  and  N_11
REMARK    4  A    between atoms: N_11  and  C_12
REMARK                            x       y       z     vdW  Elec       q    Type
REMARK                         _______ _______ _______ _____ _____    ______ ____
ROOT
ATOM      1  C   UNL     1       2.380   7.128  19.320  0.00  0.00    +0.000 A 
ATOM      2  C   UNL     1       2.251   7.744  18.064  0.00  0.00    +0.000 A 
ATOM      3  C   UNL     1       1.642   8.995  17.940  0.00  0.00    +0.000 A 
ATOM      4  C   UNL     1       1.054   9.588  19.054  0.00  0.00    +0.000 A 
ATOM      5  C   UNL     1       1.145   8.948  20.293  0.00  0.00    +0.000 A 
ATOM      6  C   UNL     1       1.867   7.767  20.445  0.00  0.00    +0.000 A 
ENDROOT
BRANCH   1   8
ATOM      7  O   UNL     1       2.599   5.160  20.595  0.00  0.00    +0.000 OA
ATOM      8  C   UNL     1       2.809   5.703  19.518  0.00  0.00    +0.000 C 
ATOM      9  N   UNL     1       3.207   5.015  18.412  0.00  0.00    +0.000 N 
ATOM     10  C   UNL     1       2.974   3.565  18.290  0.00  0.00    +0.000 C 
ATOM     11  C   UNL     1       3.308   3.295  16.828  0.00  0.00    +0.000 C 
ATOM     12  C   UNL     1       4.517   4.179  16.748  0.00  0.00    +0.000 A 
ATOM     13  C   UNL     1       5.716   3.983  16.108  0.00  0.00    +0.000 A 
ATOM     14  C   UNL     1       6.728   4.928  16.304  0.00  0.00    +0.000 A 
ATOM     15  C   UNL     1       6.502   6.084  17.075  0.00  0.00    +0.000 A 
ATOM     16  C   UNL     1       5.296   6.266  17.749  0.00  0.00    +0.000 A 
ATOM     17  C   UNL     1       4.344   5.273  17.619  0.00  0.00    +0.000 A 
ENDBRANCH   1   8
BRANCH   5  18
ATOM     18  S   UNL     1       0.121   9.439  21.661  0.00  0.00    +0.000 S 
ATOM     19  O   UNL     1      -0.804   8.357  21.930  0.00  0.00    +0.000 OA
ATOM     20  O   UNL     1       1.007   9.941  22.688  0.00  0.00    +0.000 OA
BRANCH  18  21
ATOM     21  N   UNL     1      -0.712  10.780  21.041  0.00  0.00    +0.000 N 
ATOM     22  H   UNL     1      -1.478  10.498  20.430  0.00  0.00    +0.000 HD
BRANCH  21  23
ATOM     23  C   UNL     1      -0.949  11.841  21.955  0.00  0.00    +0.000 A 
ATOM     24  C   UNL     1      -0.167  13.012  21.887  0.00  0.00    +0.000 A 
ATOM     25  C   UNL     1      -0.509  14.126  22.657  0.00  0.00    +0.000 A 
ATOM     26  C   UNL     1      -1.627  14.032  23.461  0.00  0.00    +0.000 A 
ATOM     27  C   UNL     1      -2.374  12.877  23.531  0.00  0.00    +0.000 A 
ATOM     28  C   UNL     1      -2.056  11.761  22.797  0.00  0.00    +0.000 A 
ATOM     29  O   UNL     1      -3.440  13.003  24.360  0.00  0.00    +0.000 OA
ATOM     30  C   UNL     1      -3.332  14.388  24.735  0.00  0.00    +0.000 C 
ATOM     31  O   UNL     1      -2.138  15.022  24.233  0.00  0.00    +0.000 OA
ENDBRANCH  21  23
ENDBRANCH  18  21
ENDBRANCH   5  18
TORSDOF 4
ENDMDL
MODEL 2
REMARK VINA RESULT:      -9.0      1.289      1.645
REMARK  Name = 
REMARK  4 active torsions:
REMARK  status: ('A' for Active; 'I' for Inactive)
REMARK    1  A    between atoms: C_2  and  C_3
REMARK    2  A    between atoms: C_7  and  S_8
REMARK    3  A    between atoms: S_8  and  N_11
REMARK    4  A    between atoms: N_11  and  C_12
REMARK                            x       y       z     vdW  Elec       q    Type
REMARK                         _______ _______ _______ _____ _____    ______ ____
ROOT
ATOM      1  C   UNL     1       2.460   7.104  19.212  0.00  0.00    +0.000 A 
ATOM      2  C   UNL     1       2.209   7.698  17.963  0.00  0.00    +0.000 A 
ATOM      3  C   UNL     1       1.604   8.954  17.876  0.00  0.00    +0.000 A 
ATOM      4  C   UNL     1       1.140   9.575  19.032  0.00  0.00    +0.000 A 
ATOM      5  C   UNL     1       1.350   8.959  20.268  0.00  0.00    +0.000 A 
ATOM      6  C   UNL     1       2.070   7.771  20.370  0.00  0.00    +0.000 A 
ENDROOT
BRANCH   1   8
ATOM      7  O   UNL     1       2.662   5.116  20.458  0.00  0.00    +0.000 OA
ATOM      8  C   UNL     1       2.891   5.678  19.394  0.00  0.00    +0.000 C 
ATOM      9  N   UNL     1       3.313   5.010  18.285  0.00  0.00    +0.000 N 
ATOM     10  C   UNL     1       3.089   3.562  18.134  0.00  0.00    +0.000 C 
ATOM     11  C   UNL     1       3.452   3.317  16.674  0.00  0.00    +0.000 C 
ATOM     12  C   UNL     1       4.658   4.208  16.632  0.00  0.00    +0.000 A 
ATOM     13  C   UNL     1       5.869   4.027  16.012  0.00  0.00    +0.000 A 
ATOM     14  C   UNL     1       6.874   4.973  16.243  0.00  0.00    +0.000 A 
ATOM     15  C   UNL     1       6.628   6.116  17.029  0.00  0.00    +0.000 A 
ATOM     16  C   UNL     1       5.408   6.280  17.683  0.00  0.00    +0.000 A 
ATOM     17  C   UNL     1       4.464   5.286  17.518  0.00  0.00    +0.000 A 
ENDBRANCH   1   8
BRANCH   5  18
ATOM     18  S   UNL     1       0.476   9.488  21.723  0.00  0.00    +0.000 S 
ATOM     19  O   UNL     1      -0.749   8.720  21.806  0.00  0.00    +0.000 OA
ATOM     20  O   UNL     1       1.433   9.493  22.807  0.00  0.00    +0.000 OA
BRANCH  18  21
ATOM     21  N   UNL     1       0.127  11.112  21.378  0.00  0.00    +0.000 N 
ATOM     22  H   UNL     1       0.517  11.398  20.480  0.00  0.00    +0.000 HD
BRANCH  21  23
ATOM     23  C   UNL     1      -1.186  11.548  21.700  0.00  0.00    +0.000 A 
ATOM     24  C   UNL     1      -1.609  11.561  23.044  0.00  0.00    +0.000 A 
ATOM     25  C   UNL     1      -2.827  12.154  23.388  0.00  0.00    +0.000 A 
ATOM     26  C   UNL     1      -3.572  12.721  22.374  0.00  0.00    +0.000 A 
ATOM     27  C   UNL     1      -3.156  12.688  21.063  0.00  0.00    +0.000 A 
ATOM     28  C   UNL     1      -1.972  12.101  20.691  0.00  0.00    +0.000 A 
ATOM     29  O   UNL     1      -4.021  13.320  20.231  0.00  0.00    +0.000 OA
ATOM     30  C   UNL     1      -4.982  13.829  21.173  0.00  0.00    +0.000 C 
ATOM     31  O   UNL     1      -4.746  13.383  22.524  0.00  0.00    +0.000 OA
ENDBRANCH  21  23
ENDBRANCH  18  21
ENDBRANCH   5  18
TORSDOF 4
ENDMDL
MODEL 3
REMARK VINA RESULT:      -9.0      1.024      1.321
REMARK  Name = 
REMARK  4 active torsions:
REMARK  status: ('A' for Active; 'I' for Inactive)
REMARK    1  A    between atoms: C_2  and  C_3
REMARK    2  A    between atoms: C_7  and  S_8
REMARK    3  A    between atoms: S_8  and  N_11
REMARK    4  A    between atoms: N_11  and  C_12
REMARK                            x       y       z     vdW  Elec       q    Type
REMARK                         _______ _______ _______ _____ _____    ______ ____
ROOT
ATOM      1  C   UNL     1       2.258   7.197  19.408  0.00  0.00    +0.000 A 
ATOM      2  C   UNL     1       2.094   7.789  18.144  0.00  0.00    +0.000 A 
ATOM      3  C   UNL     1       1.586   9.085  18.022  0.00  0.00    +0.000 A 
ATOM      4  C   UNL     1       1.129   9.754  19.154  0.00  0.00    +0.000 A 
ATOM      5  C   UNL     1       1.251   9.142  20.403  0.00  0.00    +0.000 A 
ATOM      6  C   UNL     1       1.880   7.906  20.544  0.00  0.00    +0.000 A 
ENDROOT
BRANCH   1   8
ATOM      7  O   UNL     1       2.302   5.225  20.695  0.00  0.00    +0.000 OA
ATOM      8  C   UNL     1       2.577   5.746  19.621  0.00  0.00    +0.000 C 
ATOM      9  N   UNL     1       2.952   5.024  18.528  0.00  0.00    +0.000 N 
ATOM     10  C   UNL     1       2.617   3.595  18.405  0.00  0.00    +0.000 C 
ATOM     11  C   UNL     1       2.967   3.293  16.953  0.00  0.00    +0.000 C 
ATOM     12  C   UNL     1       4.238   4.087  16.900  0.00  0.00    +0.000 A 
ATOM     13  C   UNL     1       5.435   3.802  16.291  0.00  0.00    +0.000 A 
ATOM     14  C   UNL     1       6.508   4.672  16.508  0.00  0.00    +0.000 A 
ATOM     15  C   UNL     1       6.347   5.846  17.269  0.00  0.00    +0.000 A 
ATOM     16  C   UNL     1       5.141   6.117  17.913  0.00  0.00    +0.000 A 
ATOM     17  C   UNL     1       4.124   5.195  17.762  0.00  0.00    +0.000 A 
ENDBRANCH   1   8
BRANCH   5  18
ATOM     18  S   UNL     1       0.370   9.754  21.820  0.00  0.00    +0.000 S 
ATOM     19  O   UNL     1      -0.931   9.118  21.839  0.00  0.00    +0.000 OA
ATOM     20  O   UNL     1       1.270   9.653  22.948  0.00  0.00    +0.000 OA
BRANCH  18  21
ATOM     21  N   UNL     1       0.209  11.406  21.475  0.00  0.00    +0.000 N 
ATOM     22  H   UNL     1       0.702  11.661  20.618  0.00  0.00    +0.000 HD
BRANCH  21  23
ATOM     23  C   UNL     1      -1.079  11.964  21.690  0.00  0.00    +0.000 A 
ATOM     24  C   UNL     1      -1.893  12.291  20.586  0.00  0.00    +0.000 A 
ATOM     25  C   UNL     1      -3.223  12.670  20.787  0.00  0.00    +0.000 A 
ATOM     26  C   UNL     1      -3.693  12.697  22.084  0.00  0.00    +0.000 A 
ATOM     27  C   UNL     1      -2.884  12.391  23.155  0.00  0.00    +0.000 A 
ATOM     28  C   UNL     1      -1.569  12.029  22.992  0.00  0.00    +0.000 A 
ATOM     29  O   UNL     1      -3.546  12.457  24.336  0.00  0.00    +0.000 OA
ATOM     30  C   UNL     1      -4.880  12.753  23.886  0.00  0.00    +0.000 C 
ATOM     31  O   UNL     1      -4.961  12.987  22.465  0.00  0.00    +0.000 OA
ENDBRANCH  21  23
ENDBRANCH  18  21
ENDBRANCH   5  18
TORSDOF 4
ENDMDL
MODEL 4
REMARK VINA RESULT:      -8.8      3.191      4.315
REMARK  Name = 
REMARK  4 active torsions:
REMARK  status: ('A' for Active; 'I' for Inactive)
REMARK    1  A    between atoms: C_2  and  C_3
REMARK    2  A    between atoms: C_7  and  S_8
REMARK    3  A    between atoms: S_8  and  N_11
REMARK    4  A    between atoms: N_11  and  C_12
REMARK                            x       y       z     vdW  Elec       q    Type
REMARK                         _______ _______ _______ _____ _____    ______ ____
ROOT
ATOM      1  C   UNL     1       2.020   8.023  19.021  0.00  0.00    +0.000 A 
ATOM      2  C   UNL     1       1.952   7.421  20.289  0.00  0.00    +0.000 A 
ATOM      3  C   UNL     1       1.237   8.020  21.329  0.00  0.00    +0.000 A 
ATOM      4  C   UNL     1       0.680   9.283  21.142  0.00  0.00    +0.000 A 
ATOM      5  C   UNL     1       0.790   9.898  19.894  0.00  0.00    +0.000 A 
ATOM      6  C   UNL     1       1.387   9.246  18.817  0.00  0.00    +0.000 A 
ENDROOT
BRANCH   1   8
ATOM      7  O   UNL     1       3.207   8.347  17.013  0.00  0.00    +0.000 OA
ATOM      8  C   UNL     1       2.941   7.574  17.925  0.00  0.00    +0.000 C 
ATOM      9  N   UNL     1       3.614   6.406  18.119  0.00  0.00    +0.000 N 
ATOM     10  C   UNL     1       4.965   6.202  17.567  0.00  0.00    +0.000 C 
ATOM     11  C   UNL     1       5.417   4.919  18.254  0.00  0.00    +0.000 C 
ATOM     12  C   UNL     1       4.114   4.185  18.151  0.00  0.00    +0.000 A 
ATOM     13  C   UNL     1       3.862   2.864  17.873  0.00  0.00    +0.000 A 
ATOM     14  C   UNL     1       2.531   2.467  17.713  0.00  0.00    +0.000 A 
ATOM     15  C   UNL     1       1.474   3.378  17.904  0.00  0.00    +0.000 A 
ATOM     16  C   UNL     1       1.732   4.725  18.155  0.00  0.00    +0.000 A 
ATOM     17  C   UNL     1       3.057   5.113  18.213  0.00  0.00    +0.000 A 
ENDBRANCH   1   8
BRANCH   5  18
ATOM     18  S   UNL     1       0.446  11.629  19.685  0.00  0.00    +0.000 S 
ATOM     19  O   UNL     1      -0.565  11.998  20.655  0.00  0.00    +0.000 OA
ATOM     20  O   UNL     1       1.723  12.308  19.638  0.00  0.00    +0.000 OA
BRANCH  18  21
ATOM     21  N   UNL     1      -0.196  11.695  18.116  0.00  0.00    +0.000 N 
ATOM     22  H   UNL     1       0.452  11.309  17.429  0.00  0.00    +0.000 HD
BRANCH  21  23
ATOM     23  C   UNL     1      -1.571  11.364  17.992  0.00  0.00    +0.000 A 
ATOM     24  C   UNL     1      -1.944  10.123  17.438  0.00  0.00    +0.000 A 
ATOM     25  C   UNL     1      -3.280   9.714  17.477  0.00  0.00    +0.000 A 
ATOM     26  C   UNL     1      -4.192  10.558  18.078  0.00  0.00    +0.000 A 
ATOM     27  C   UNL     1      -3.817  11.775  18.601  0.00  0.00    +0.000 A 
ATOM     28  C   UNL     1      -2.516  12.211  18.566  0.00  0.00    +0.000 A 
ATOM     29  O   UNL     1      -4.859  12.437  19.164  0.00  0.00    +0.000 OA
ATOM     30  C   UNL     1      -5.911  11.466  19.015  0.00  0.00    +0.000 C 
ATOM     31  O   UNL     1      -5.512  10.307  18.254  0.00  0.00    +0.000 OA
ENDBRANCH  21  23
ENDBRANCH  18  21
ENDBRANCH   5  18
TORSDOF 4
ENDMDL
MODEL 5
REMARK VINA RESULT:      -8.8      1.078      1.772
REMARK  Name = 
REMARK  4 active torsions:
REMARK  status: ('A' for Active; 'I' for Inactive)
REMARK    1  A    between atoms: C_2  and  C_3
REMARK    2  A    between atoms: C_7  and  S_8
REMARK    3  A    between atoms: S_8  and  N_11
REMARK    4  A    between atoms: N_11  and  C_12
REMARK                            x       y       z     vdW  Elec       q    Type
REMARK                         _______ _______ _______ _____ _____    ______ ____
ROOT
ATOM      1  C   UNL     1       2.437   7.109  19.241  0.00  0.00    +0.000 A 
ATOM      2  C   UNL     1       2.335   7.734  17.987  0.00  0.00    +0.000 A 
ATOM      3  C   UNL     1       1.721   8.982  17.857  0.00  0.00    +0.000 A 
ATOM      4  C   UNL     1       1.101   9.562  18.961  0.00  0.00    +0.000 A 
ATOM      5  C   UNL     1       1.165   8.913  20.196  0.00  0.00    +0.000 A 
ATOM      6  C   UNL     1       1.890   7.735  20.357  0.00  0.00    +0.000 A 
ENDROOT
BRANCH   1   8
ATOM      7  O   UNL     1       2.620   5.126  20.499  0.00  0.00    +0.000 OA
ATOM      8  C   UNL     1       2.870   5.685  19.438  0.00  0.00    +0.000 C 
ATOM      9  N   UNL     1       3.320   5.015  18.341  0.00  0.00    +0.000 N 
ATOM     10  C   UNL     1       3.105   3.565  18.190  0.00  0.00    +0.000 C 
ATOM     11  C   UNL     1       3.502   3.317  16.740  0.00  0.00    +0.000 C 
ATOM     12  C   UNL     1       4.705   4.212  16.722  0.00  0.00    +0.000 A 
ATOM     13  C   UNL     1       5.931   4.035  16.131  0.00  0.00    +0.000 A 
ATOM     14  C   UNL     1       6.926   4.986  16.380  0.00  0.00    +0.000 A 
ATOM     15  C   UNL     1       6.657   6.131  17.155  0.00  0.00    +0.000 A 
ATOM     16  C   UNL     1       5.423   6.292  17.781  0.00  0.00    +0.000 A 
ATOM     17  C   UNL     1       4.487   5.293  17.599  0.00  0.00    +0.000 A 
ENDBRANCH   1   8
BRANCH   5  18
ATOM     18  S   UNL     1       0.103   9.386  21.541  0.00  0.00    +0.000 S 
ATOM     19  O   UNL     1      -0.689   8.229  21.906  0.00  0.00    +0.000 OA
ATOM     20  O   UNL     1       0.934  10.062  22.513  0.00  0.00    +0.000 OA
BRANCH  18  21
ATOM     21  N   UNL     1      -0.883  10.573  20.839  0.00  0.00    +0.000 N 
ATOM     22  H   UNL     1      -1.804  10.204  20.601  0.00  0.00    +0.000 HD
BRANCH  21  23
ATOM     23  C   UNL     1      -0.818  11.864  21.427  0.00  0.00    +0.000 A 
ATOM     24  C   UNL     1      -1.557  12.138  22.596  0.00  0.00    +0.000 A 
ATOM     25  C   UNL     1      -1.361  13.340  23.281  0.00  0.00    +0.000 A 
ATOM     26  C   UNL     1      -0.425  14.220  22.776  0.00  0.00    +0.000 A 
ATOM     27  C   UNL     1       0.279  13.947  21.626  0.00  0.00    +0.000 A 
ATOM     28  C   UNL     1       0.100  12.782  20.923  0.00  0.00    +0.000 A 
ATOM     29  O   UNL     1       1.163  14.929  21.317  0.00  0.00    +0.000 OA
ATOM     30  C   UNL     1       0.999  15.807  22.446  0.00  0.00    +0.000 C 
ATOM     31  O   UNL     1      -0.065  15.403  23.332  0.00  0.00    +0.000 OA
ENDBRANCH  21  23
ENDBRANCH  18  21
ENDBRANCH   5  18
TORSDOF 4
ENDMDL
MODEL 6
REMARK VINA RESULT:      -8.7      2.017      2.961
REMARK  Name = 
REMARK  4 active torsions:
REMARK  status: ('A' for Active; 'I' for Inactive)
REMARK    1  A    between atoms: C_2  and  C_3
REMARK    2  A    between atoms: C_7  and  S_8
REMARK    3  A    between atoms: S_8  and  N_11
REMARK    4  A    between atoms: N_11  and  C_12
REMARK                            x       y       z     vdW  Elec       q    Type
REMARK                         _______ _______ _______ _____ _____    ______ ____
ROOT
ATOM      1  C   UNL     1       1.732   8.316  19.119  0.00  0.00    +0.000 A 
ATOM      2  C   UNL     1       1.887   7.690  20.368  0.00  0.00    +0.000 A 
ATOM      3  C   UNL     1       1.202   8.157  21.493  0.00  0.00    +0.000 A 
ATOM      4  C   UNL     1       0.448   9.324  21.403  0.00  0.00    +0.000 A 
ATOM      5  C   UNL     1       0.336   9.969  20.170  0.00  0.00    +0.000 A 
ATOM      6  C   UNL     1       0.907   9.432  19.018  0.00  0.00    +0.000 A 
ENDROOT
BRANCH   1   8
ATOM      7  O   UNL     1       2.696   8.876  17.045  0.00  0.00    +0.000 OA
ATOM      8  C   UNL     1       2.590   8.028  17.922  0.00  0.00    +0.000 C 
ATOM      9  N   UNL     1       3.389   6.926  17.981  0.00  0.00    +0.000 N 
ATOM     10  C   UNL     1       4.698   6.895  17.305  0.00  0.00    +0.000 C 
ATOM     11  C   UNL     1       5.334   5.629  17.865  0.00  0.00    +0.000 C 
ATOM     12  C   UNL     1       4.104   4.771  17.822  0.00  0.00    +0.000 A 
ATOM     13  C   UNL     1       3.959   3.450  17.479  0.00  0.00    +0.000 A 
ATOM     14  C   UNL     1       2.664   2.927  17.405  0.00  0.00    +0.000 A 
ATOM     15  C   UNL     1       1.545   3.712  17.744  0.00  0.00    +0.000 A 
ATOM     16  C   UNL     1       1.692   5.061  18.061  0.00  0.00    +0.000 A 
ATOM     17  C   UNL     1       2.972   5.580  18.035  0.00  0.00    +0.000 A 
ENDBRANCH   1   8
BRANCH   5  18
ATOM     18  S   UNL     1      -0.282  11.632  20.052  0.00  0.00    +0.000 S 
ATOM     19  O   UNL     1       0.596  12.367  19.164  0.00  0.00    +0.000 OA
ATOM     20  O   UNL     1      -1.701  11.534  19.791  0.00  0.00    +0.000 OA
BRANCH  18  21
ATOM     21  N   UNL     1      -0.120  12.204  21.640  0.00  0.00    +0.000 N 
ATOM     22  H   UNL     1       0.766  12.690  21.776  0.00  0.00    +0.000 HD
BRANCH  21  23
ATOM     23  C   UNL     1      -1.285  12.774  22.218  0.00  0.00    +0.000 A 
ATOM     24  C   UNL     1      -1.728  14.043  21.792  0.00  0.00    +0.000 A 
ATOM     25  C   UNL     1      -2.965  14.531  22.220  0.00  0.00    +0.000 A 
ATOM     26  C   UNL     1      -3.719  13.727  23.050  0.00  0.00    +0.000 A 
ATOM     27  C   UNL     1      -3.269  12.497  23.472  0.00  0.00    +0.000 A 
ATOM     28  C   UNL     1      -2.053  11.995  23.080  0.00  0.00    +0.000 A 
ATOM     29  O   UNL     1      -4.170  11.861  24.261  0.00  0.00    +0.000 OA
ATOM     30  C   UNL     1      -5.271  12.788  24.220  0.00  0.00    +0.000 C 
ATOM     31  O   UNL     1      -4.959  14.010  23.521  0.00  0.00    +0.000 OA
ENDBRANCH  21  23
ENDBRANCH  18  21
ENDBRANCH   5  18
TORSDOF 4
ENDMDL
MODEL 7
REMARK VINA RESULT:      -8.7      3.537      4.797
REMARK  Name = 
REMARK  4 active torsions:
REMARK  status: ('A' for Active; 'I' for Inactive)
REMARK    1  A    between atoms: C_2  and  C_3
REMARK    2  A    between atoms: C_7  and  S_8
REMARK    3  A    between atoms: S_8  and  N_11
REMARK    4  A    between atoms: N_11  and  C_12
REMARK                            x       y       z     vdW  Elec       q    Type
REMARK                         _______ _______ _______ _____ _____    ______ ____
ROOT
ATOM      1  C   UNL     1       1.814   8.315  19.105  0.00  0.00    +0.000 A 
ATOM      2  C   UNL     1       1.876   7.593  20.309  0.00  0.00    +0.000 A 
ATOM      3  C   UNL     1       1.237   8.064  21.460  0.00  0.00    +0.000 A 
ATOM      4  C   UNL     1       0.630   9.317  21.445  0.00  0.00    +0.000 A 
ATOM      5  C   UNL     1       0.613  10.052  20.257  0.00  0.00    +0.000 A 
ATOM      6  C   UNL     1       1.131   9.527  19.075  0.00  0.00    +0.000 A 
ENDROOT
BRANCH   1   8
ATOM      7  O   UNL     1       2.749   8.845  17.009  0.00  0.00    +0.000 OA
ATOM      8  C   UNL     1       2.648   8.006  17.896  0.00  0.00    +0.000 C 
ATOM      9  N   UNL     1       3.435   6.896  17.951  0.00  0.00    +0.000 N 
ATOM     10  C   UNL     1       4.732   6.843  17.254  0.00  0.00    +0.000 C 
ATOM     11  C   UNL     1       5.362   5.574  17.815  0.00  0.00    +0.000 C 
ATOM     12  C   UNL     1       4.122   4.730  17.802  0.00  0.00    +0.000 A 
ATOM     13  C   UNL     1       3.956   3.408  17.473  0.00  0.00    +0.000 A 
ATOM     14  C   UNL     1       2.654   2.900  17.427  0.00  0.00    +0.000 A 
ATOM     15  C   UNL     1       1.550   3.701  17.778  0.00  0.00    +0.000 A 
ATOM     16  C   UNL     1       1.718   5.051  18.080  0.00  0.00    +0.000 A 
ATOM     17  C   UNL     1       3.003   5.555  18.026  0.00  0.00    +0.000 A 
ENDBRANCH   1   8
BRANCH   5  18
ATOM     18  S   UNL     1       0.201  11.781  20.249  0.00  0.00    +0.000 S 
ATOM     19  O   UNL     1      -1.224  11.897  20.482  0.00  0.00    +0.000 OA
ATOM     20  O   UNL     1       1.158  12.443  21.108  0.00  0.00    +0.000 OA
BRANCH  18  21
ATOM     21  N   UNL     1       0.575  12.245  18.661  0.00  0.00    +0.000 N 
ATOM     22  H   UNL     1      -0.160  11.974  18.007  0.00  0.00    +0.000 HD
BRANCH  21  23
ATOM     23  C   UNL     1       1.155  13.533  18.509  0.00  0.00    +0.000 A 
ATOM     24  C   UNL     1       0.392  14.682  18.799  0.00  0.00    +0.000 A 
ATOM     25  C   UNL     1       1.005  15.938  18.827  0.00  0.00    +0.000 A 
ATOM     26  C   UNL     1       2.360  15.996  18.574  0.00  0.00    +0.000 A 
ATOM     27  C   UNL     1       3.091  14.868  18.277  0.00  0.00    +0.000 A 
ATOM     28  C   UNL     1       2.516  13.622  18.228  0.00  0.00    +0.000 A 
ATOM     29  O   UNL     1       4.405  15.141  18.085  0.00  0.00    +0.000 OA
ATOM     30  C   UNL     1       4.437  16.550  18.378  0.00  0.00    +0.000 C 
ATOM     31  O   UNL     1       3.129  17.112  18.609  0.00  0.00    +0.000 OA
ENDBRANCH  21  23
ENDBRANCH  18  21
ENDBRANCH   5  18
TORSDOF 4
ENDMDL
MODEL 8
REMARK VINA RESULT:      -8.7      2.533      3.065
REMARK  Name = 
REMARK  4 active torsions:
REMARK  status: ('A' for Active; 'I' for Inactive)
REMARK    1  A    between atoms: C_2  and  C_3
REMARK    2  A    between atoms: C_7  and  S_8
REMARK    3  A    between atoms: S_8  and  N_11
REMARK    4  A    between atoms: N_11  and  C_12
REMARK                            x       y       z     vdW  Elec       q    Type
REMARK                         _______ _______ _______ _____ _____    ______ ____
ROOT
ATOM      1  C   UNL     1       2.259   7.444  19.171  0.00  0.00    +0.000 A 
ATOM      2  C   UNL     1       2.305   7.977  17.872  0.00  0.00    +0.000 A 
ATOM      3  C   UNL     1       1.870   9.280  17.617  0.00  0.00    +0.000 A 
ATOM      4  C   UNL     1       1.278  10.019  18.637  0.00  0.00    +0.000 A 
ATOM      5  C   UNL     1       1.192   9.467  19.917  0.00  0.00    +0.000 A 
ATOM      6  C   UNL     1       1.745   8.221  20.205  0.00  0.00    +0.000 A 
ENDROOT
BRANCH   1   8
ATOM      7  O   UNL     1       2.141   5.566  20.588  0.00  0.00    +0.000 OA
ATOM      8  C   UNL     1       2.487   5.996  19.494  0.00  0.00    +0.000 C 
ATOM      9  N   UNL     1       2.864   5.182  18.469  0.00  0.00    +0.000 N 
ATOM     10  C   UNL     1       2.455   3.767  18.427  0.00  0.00    +0.000 C 
ATOM     11  C   UNL     1       2.845   3.348  17.015  0.00  0.00    +0.000 C 
ATOM     12  C   UNL     1       4.160   4.068  16.965  0.00  0.00    +0.000 A 
ATOM     13  C   UNL     1       5.362   3.678  16.429  0.00  0.00    +0.000 A 
ATOM     14  C   UNL     1       6.473   4.502  16.634  0.00  0.00    +0.000 A 
ATOM     15  C   UNL     1       6.348   5.733  17.308  0.00  0.00    +0.000 A 
ATOM     16  C   UNL     1       5.134   6.112  17.878  0.00  0.00    +0.000 A 
ATOM     17  C   UNL     1       4.074   5.237  17.746  0.00  0.00    +0.000 A 
ENDBRANCH   1   8
BRANCH   5  18
ATOM     18  S   UNL     1       0.136  10.176  21.159  0.00  0.00    +0.000 S 
ATOM     19  O   UNL     1      -1.013   9.307  21.311  0.00  0.00    +0.000 OA
ATOM     20  O   UNL     1       0.980  10.507  22.286  0.00  0.00    +0.000 OA
BRANCH  18  21
ATOM     21  N   UNL     1      -0.330  11.647  20.456  0.00  0.00    +0.000 N 
ATOM     22  H   UNL     1       0.376  11.994  19.807  0.00  0.00    +0.000 HD
BRANCH  21  23
ATOM     23  C   UNL     1      -1.693  11.747  20.068  0.00  0.00    +0.000 A 
ATOM     24  C   UNL     1      -2.603  12.450  20.884  0.00  0.00    +0.000 A 
ATOM     25  C   UNL     1      -3.898  12.706  20.426  0.00  0.00    +0.000 A 
ATOM     26  C   UNL     1      -4.232  12.259  19.164  0.00  0.00    +0.000 A 
ATOM     27  C   UNL     1      -3.339  11.560  18.383  0.00  0.00    +0.000 A 
ATOM     28  C   UNL     1      -2.065  11.280  18.810  0.00  0.00    +0.000 A 
ATOM     29  O   UNL     1      -3.859  11.233  17.173  0.00  0.00    +0.000 OA
ATOM     30  C   UNL     1      -5.143  11.878  17.245  0.00  0.00    +0.000 C 
ATOM     31  O   UNL     1      -5.416  12.460  18.536  0.00  0.00    +0.000 OA
ENDBRANCH  21  23
ENDBRANCH  18  21
ENDBRANCH   5  18
TORSDOF 4
ENDMDL
MODEL 9
REMARK VINA RESULT:      -8.6      3.418      4.496
REMARK  Name = 
REMARK  4 active torsions:
REMARK  status: ('A' for Active; 'I' for Inactive)
REMARK    1  A    between atoms: C_2  and  C_3
REMARK    2  A    between atoms: C_7  and  S_8
REMARK    3  A    between atoms: S_8  and  N_11
REMARK    4  A    between atoms: N_11  and  C_12
REMARK                            x       y       z     vdW  Elec       q    Type
REMARK                         _______ _______ _______ _____ _____    ______ ____
ROOT
ATOM      1  C   UNL     1       1.725   8.401  19.186  0.00  0.00    +0.000 A 
ATOM      2  C   UNL     1       1.832   7.683  20.389  0.00  0.00    +0.000 A 
ATOM      3  C   UNL     1       1.212   8.140  21.554  0.00  0.00    +0.000 A 
ATOM      4  C   UNL     1       0.576   9.378  21.554  0.00  0.00    +0.000 A 
ATOM      5  C   UNL     1       0.513  10.111  20.367  0.00  0.00    +0.000 A 
ATOM      6  C   UNL     1       1.014   9.598  19.173  0.00  0.00    +0.000 A 
ENDROOT
BRANCH   1   8
ATOM      7  O   UNL     1       2.608   8.956  17.075  0.00  0.00    +0.000 OA
ATOM      8  C   UNL     1       2.536   8.110  17.957  0.00  0.00    +0.000 C 
ATOM      9  N   UNL     1       3.337   7.009  17.988  0.00  0.00    +0.000 N 
ATOM     10  C   UNL     1       4.618   6.975  17.262  0.00  0.00    +0.000 C 
ATOM     11  C   UNL     1       5.275   5.710  17.800  0.00  0.00    +0.000 C 
ATOM     12  C   UNL     1       4.045   4.853  17.807  0.00  0.00    +0.000 A 
ATOM     13  C   UNL     1       3.886   3.530  17.473  0.00  0.00    +0.000 A 
ATOM     14  C   UNL     1       2.589   3.008  17.452  0.00  0.00    +0.000 A 
ATOM     15  C   UNL     1       1.484   3.794  17.832  0.00  0.00    +0.000 A 
ATOM     16  C   UNL     1       1.643   5.144  18.140  0.00  0.00    +0.000 A 
ATOM     17  C   UNL     1       2.921   5.663  18.062  0.00  0.00    +0.000 A 
ENDBRANCH   1   8
BRANCH   5  18
ATOM     18  S   UNL     1       0.061  11.831  20.367  0.00  0.00    +0.000 S 
ATOM     19  O   UNL     1      -1.383  11.908  20.451  0.00  0.00    +0.000 OA
ATOM     20  O   UNL     1       0.906  12.485  21.343  0.00  0.00    +0.000 OA
BRANCH  18  21
ATOM     21  N   UNL     1       0.588  12.355  18.843  0.00  0.00    +0.000 N 
ATOM     22  H   UNL     1      -0.060  12.078  18.105  0.00  0.00    +0.000 HD
BRANCH  21  23
ATOM     23  C   UNL     1       1.132  13.666  18.789  0.00  0.00    +0.000 A 
ATOM     24  C   UNL     1       2.483  13.849  18.431  0.00  0.00    +0.000 A 
ATOM     25  C   UNL     1       2.976  15.136  18.201  0.00  0.00    +0.000 A 
ATOM     26  C   UNL     1       2.097  16.192  18.329  0.00  0.00    +0.000 A 
ATOM     27  C   UNL     1       0.784  16.002  18.694  0.00  0.00    +0.000 A 
ATOM     28  C   UNL     1       0.272  14.752  18.940  0.00  0.00    +0.000 A 
ATOM     29  O   UNL     1       0.088  17.165  18.739  0.00  0.00    +0.000 OA
ATOM     30  C   UNL     1       1.083  18.097  18.278  0.00  0.00    +0.000 C 
ATOM     31  O   UNL     1       2.382  17.497  18.095  0.00  0.00    +0.000 OA
ENDBRANCH  21  23
ENDBRANCH  18  21
ENDBRANCH   5  18
TORSDOF 4
ENDMDL
