MODEL 1
REMARK VINA RESULT:      -8.4      0.000      0.000
REMARK  Name = 
REMARK  1 active torsions:
REMARK  status: ('A' for Active; 'I' for Inactive)
REMARK    1  A    between atoms: C_2  and  C_13
REMARK                            x       y       z     vdW  Elec       q    Type
REMARK                         _______ _______ _______ _____ _____    ______ ____
ROOT
ATOM      1  O   UNL     1       7.590   9.784  17.522  0.00  0.00    +0.000 OA
ATOM      2  C   UNL     1       8.482   9.409  18.285  0.00  0.00    +0.000 C 
ATOM      3  N   UNL     1       8.695   8.108  18.691  0.00  0.00    +0.000 N 
ATOM      4  C   UNL     1       7.863   7.117  18.239  0.00  0.00    +0.000 A 
ATOM      5  N   UNL     1       7.416   6.121  18.964  0.00  0.00    +0.000 NA
ATOM      6  C   UNL     1       6.526   5.463  18.148  0.00  0.00    +0.000 A 
ATOM      7  C   UNL     1       5.632   4.423  18.443  0.00  0.00    +0.000 A 
ATOM      8  C   UNL     1       4.847   3.897  17.410  0.00  0.00    +0.000 A 
ATOM      9  C   UNL     1       4.970   4.373  16.102  0.00  0.00    +0.000 A 
ATOM     10  C   UNL     1       5.838   5.428  15.790  0.00  0.00    +0.000 A 
ATOM     11  C   UNL     1       6.566   5.967  16.851  0.00  0.00    +0.000 A 
ATOM     12  N   UNL     1       7.403   7.046  16.948  0.00  0.00    +0.000 N 
ATOM     13  H   UNL     1       9.133   7.937  19.589  0.00  0.00    +0.000 HD
ATOM     14  H   UNL     1       7.625   7.710  16.220  0.00  0.00    +0.000 HD
ENDROOT
BRANCH   2  15
ATOM     15  C   UNL     1       9.408  10.414  18.838  0.00  0.00    +0.000 A 
ATOM     16  C   UNL     1       9.393  10.676  20.218  0.00  0.00    +0.000 A 
ATOM     17  C   UNL     1      10.141  11.724  20.765  0.00  0.00    +0.000 A 
ATOM     18  C   UNL     1      10.870  12.498  19.859  0.00  0.00    +0.000 A 
ATOM     19  N   UNL     1      11.651  13.611  19.990  0.00  0.00    +0.000 N 
ATOM     20  N   UNL     1      12.149  14.015  18.810  0.00  0.00    +0.000 NA
ATOM     21  N   UNL     1      11.704  13.184  17.882  0.00  0.00    +0.000 NA
ATOM     22  C   UNL     1      10.912  12.247  18.494  0.00  0.00    +0.000 A 
ATOM     23  C   UNL     1      10.185  11.179  17.957  0.00  0.00    +0.000 A 
ATOM     24  H   UNL     1      11.873  14.146  20.822  0.00  0.00    +0.000 HD
ENDBRANCH   2  15
TORSDOF 1
ENDMDL
MODEL 2
REMARK VINA RESULT:      -8.4      6.176      8.918
REMARK  Name = 
REMARK  1 active torsions:
REMARK  status: ('A' for Active; 'I' for Inactive)
REMARK    1  A    between atoms: C_2  and  C_13
REMARK                            x       y       z     vdW  Elec       q    Type
REMARK                         _______ _______ _______ _____ _____    ______ ____
ROOT
ATOM      1  O   UNL     1       1.938   5.703  19.862  0.00  0.00    +0.000 OA
ATOM      2  C   UNL     1       2.589   6.349  19.041  0.00  0.00    +0.000 C 
ATOM      3  N   UNL     1       2.593   7.723  18.922  0.00  0.00    +0.000 N 
ATOM      4  C   UNL     1       1.813   8.473  19.764  0.00  0.00    +0.000 A 
ATOM      5  N   UNL     1       1.127   9.532  19.409  0.00  0.00    +0.000 NA
ATOM      6  C   UNL     1       0.405   9.874  20.528  0.00  0.00    +0.000 A 
ATOM      7  C   UNL     1      -0.615  10.824  20.686  0.00  0.00    +0.000 A 
ATOM      8  C   UNL     1      -1.174  11.006  21.957  0.00  0.00    +0.000 A 
ATOM      9  C   UNL     1      -0.707  10.281  23.056  0.00  0.00    +0.000 A 
ATOM     10  C   UNL     1       0.294   9.311  22.916  0.00  0.00    +0.000 A 
ATOM     11  C   UNL     1       0.792   9.114  21.628  0.00  0.00    +0.000 A 
ATOM     12  N   UNL     1       1.668   8.203  21.101  0.00  0.00    +0.000 N 
ATOM     13  H   UNL     1       2.791   8.139  18.019  0.00  0.00    +0.000 HD
ATOM     14  H   UNL     1       2.110   7.435  21.585  0.00  0.00    +0.000 HD
ENDROOT
BRANCH   2  15
ATOM     15  C   UNL     1       3.438   5.619  18.080  0.00  0.00    +0.000 A 
ATOM     16  C   UNL     1       3.221   4.246  17.879  0.00  0.00    +0.000 A 
ATOM     17  C   UNL     1       4.095   3.481  17.097  0.00  0.00    +0.000 A 
ATOM     18  C   UNL     1       5.194   4.157  16.563  0.00  0.00    +0.000 A 
ATOM     19  N   UNL     1       6.271   3.762  15.820  0.00  0.00    +0.000 N 
ATOM     20  N   UNL     1       7.092   4.787  15.543  0.00  0.00    +0.000 NA
ATOM     21  N   UNL     1       6.579   5.873  16.099  0.00  0.00    +0.000 NA
ATOM     22  C   UNL     1       5.419   5.517  16.736  0.00  0.00    +0.000 A 
ATOM     23  C   UNL     1       4.525   6.282  17.494  0.00  0.00    +0.000 A 
ATOM     24  H   UNL     1       6.516   2.836  15.487  0.00  0.00    +0.000 HD
ENDBRANCH   2  15
TORSDOF 1
ENDMDL
MODEL 3
REMARK VINA RESULT:      -8.1      6.287      8.012
REMARK  Name = 
REMARK  1 active torsions:
REMARK  status: ('A' for Active; 'I' for Inactive)
REMARK    1  A    between atoms: C_2  and  C_13
REMARK                            x       y       z     vdW  Elec       q    Type
REMARK                         _______ _______ _______ _____ _____    ______ ____
ROOT
ATOM      1  O   UNL     1       2.105   8.961  17.363  0.00  0.00    +0.000 OA
ATOM      2  C   UNL     1       1.896   8.523  18.495  0.00  0.00    +0.000 C 
ATOM      3  N   UNL     1       2.449   7.378  19.028  0.00  0.00    +0.000 N 
ATOM      4  C   UNL     1       3.305   6.626  18.264  0.00  0.00    +0.000 A 
ATOM      5  N   UNL     1       3.328   5.316  18.229  0.00  0.00    +0.000 NA
ATOM      6  C   UNL     1       4.237   5.006  17.245  0.00  0.00    +0.000 A 
ATOM      7  C   UNL     1       4.549   3.768  16.665  0.00  0.00    +0.000 A 
ATOM      8  C   UNL     1       5.554   3.716  15.690  0.00  0.00    +0.000 A 
ATOM      9  C   UNL     1       6.256   4.866  15.323  0.00  0.00    +0.000 A 
ATOM     10  C   UNL     1       5.944   6.116  15.872  0.00  0.00    +0.000 A 
ATOM     11  C   UNL     1       4.902   6.145  16.799  0.00  0.00    +0.000 A 
ATOM     12  N   UNL     1       4.260   7.169  17.443  0.00  0.00    +0.000 N 
ATOM     13  H   UNL     1       1.943   6.873  19.746  0.00  0.00    +0.000 HD
ATOM     14  H   UNL     1       4.419   8.158  17.319  0.00  0.00    +0.000 HD
ENDROOT
BRANCH   2  15
ATOM     15  C   UNL     1       0.970   9.258  19.377  0.00  0.00    +0.000 A 
ATOM     16  C   UNL     1       0.092  10.201  18.816  0.00  0.00    +0.000 A 
ATOM     17  C   UNL     1      -0.695  11.029  19.624  0.00  0.00    +0.000 A 
ATOM     18  C   UNL     1      -0.531  10.879  21.003  0.00  0.00    +0.000 A 
ATOM     19  N   UNL     1      -1.056  11.523  22.088  0.00  0.00    +0.000 N 
ATOM     20  N   UNL     1      -0.585  11.024  23.242  0.00  0.00    +0.000 NA
ATOM     21  N   UNL     1       0.260  10.051  22.944  0.00  0.00    +0.000 NA
ATOM     22  C   UNL     1       0.318   9.943  21.579  0.00  0.00    +0.000 A 
ATOM     23  C   UNL     1       1.080   9.097  20.765  0.00  0.00    +0.000 A 
ATOM     24  H   UNL     1      -1.709  12.297  22.121  0.00  0.00    +0.000 HD
ENDBRANCH   2  15
TORSDOF 1
ENDMDL
MODEL 4
REMARK VINA RESULT:      -8.1      6.054      8.736
REMARK  Name = 
REMARK  1 active torsions:
REMARK  status: ('A' for Active; 'I' for Inactive)
REMARK    1  A    between atoms: C_2  and  C_13
REMARK                            x       y       z     vdW  Elec       q    Type
REMARK                         _______ _______ _______ _____ _____    ______ ____
ROOT
ATOM      1  O   UNL     1       2.266   6.649  19.514  0.00  0.00    +0.000 OA
ATOM      2  C   UNL     1       2.726   7.039  18.440  0.00  0.00    +0.000 C 
ATOM      3  N   UNL     1       2.440   8.244  17.835  0.00  0.00    +0.000 N 
ATOM      4  C   UNL     1       1.567   9.110  18.441  0.00  0.00    +0.000 A 
ATOM      5  N   UNL     1       0.659   9.822  17.818  0.00  0.00    +0.000 NA
ATOM      6  C   UNL     1      -0.059  10.431  18.819  0.00  0.00    +0.000 A 
ATOM      7  C   UNL     1      -1.244  11.179  18.751  0.00  0.00    +0.000 A 
ATOM      8  C   UNL     1      -1.762  11.729  19.931  0.00  0.00    +0.000 A 
ATOM      9  C   UNL     1      -1.098  11.565  21.149  0.00  0.00    +0.000 A 
ATOM     10  C   UNL     1       0.073  10.802  21.244  0.00  0.00    +0.000 A 
ATOM     11  C   UNL     1       0.534  10.222  20.061  0.00  0.00    +0.000 A 
ATOM     12  N   UNL     1       1.550   9.345  19.792  0.00  0.00    +0.000 N 
ATOM     13  H   UNL     1       2.501   8.317  16.826  0.00  0.00    +0.000 HD
ATOM     14  H   UNL     1       2.166   8.905  20.461  0.00  0.00    +0.000 HD
ENDROOT
BRANCH   2  15
ATOM     15  C   UNL     1       3.656   6.159  17.708  0.00  0.00    +0.000 A 
ATOM     16  C   UNL     1       3.372   4.786  17.615  0.00  0.00    +0.000 A 
ATOM     17  C   UNL     1       4.296   3.890  17.066  0.00  0.00    +0.000 A 
ATOM     18  C   UNL     1       5.512   4.437  16.651  0.00  0.00    +0.000 A 
ATOM     19  N   UNL     1       6.658   3.900  16.136  0.00  0.00    +0.000 N 
ATOM     20  N   UNL     1       7.586   4.839  15.892  0.00  0.00    +0.000 NA
ATOM     21  N   UNL     1       7.075   6.007  16.245  0.00  0.00    +0.000 NA
ATOM     22  C   UNL     1       5.808   5.792  16.719  0.00  0.00    +0.000 A 
ATOM     23  C   UNL     1       4.867   6.688  17.241  0.00  0.00    +0.000 A 
ATOM     24  H   UNL     1       6.882   2.930  15.943  0.00  0.00    +0.000 HD
ENDBRANCH   2  15
TORSDOF 1
ENDMDL
MODEL 5
REMARK VINA RESULT:      -8.0      5.915      8.567
REMARK  Name = 
REMARK  1 active torsions:
REMARK  status: ('A' for Active; 'I' for Inactive)
REMARK    1  A    between atoms: C_2  and  C_13
REMARK                            x       y       z     vdW  Elec       q    Type
REMARK                         _______ _______ _______ _____ _____    ______ ____
ROOT
ATOM      1  O   UNL     1       3.032   8.777  17.882  0.00  0.00    +0.000 OA
ATOM      2  C   UNL     1       2.976   7.620  18.302  0.00  0.00    +0.000 C 
ATOM      3  N   UNL     1       2.203   7.187  19.358  0.00  0.00    +0.000 N 
ATOM      4  C   UNL     1       1.419   8.088  20.032  0.00  0.00    +0.000 A 
ATOM      5  N   UNL     1       1.247   8.112  21.331  0.00  0.00    +0.000 NA
ATOM      6  C   UNL     1       0.504   9.244  21.568  0.00  0.00    +0.000 A 
ATOM      7  C   UNL     1       0.159   9.858  22.780  0.00  0.00    +0.000 A 
ATOM      8  C   UNL     1      -0.649  11.002  22.749  0.00  0.00    +0.000 A 
ATOM      9  C   UNL     1      -1.130  11.507  21.539  0.00  0.00    +0.000 A 
ATOM     10  C   UNL     1      -0.777  10.925  20.315  0.00  0.00    +0.000 A 
ATOM     11  C   UNL     1       0.072   9.819  20.376  0.00  0.00    +0.000 A 
ATOM     12  N   UNL     1       0.702   9.080  19.411  0.00  0.00    +0.000 N 
ATOM     13  H   UNL     1       2.505   6.382  19.894  0.00  0.00    +0.000 HD
ATOM     14  H   UNL     1       0.687   9.242  18.414  0.00  0.00    +0.000 HD
ENDROOT
BRANCH   2  15
ATOM     15  C   UNL     1       3.806   6.590  17.650  0.00  0.00    +0.000 A 
ATOM     16  C   UNL     1       3.381   5.252  17.672  0.00  0.00    +0.000 A 
ATOM     17  C   UNL     1       4.204   4.222  17.203  0.00  0.00    +0.000 A 
ATOM     18  C   UNL     1       5.468   4.604  16.745  0.00  0.00    +0.000 A 
ATOM     19  N   UNL     1       6.549   3.910  16.280  0.00  0.00    +0.000 N 
ATOM     20  N   UNL     1       7.567   4.724  15.960  0.00  0.00    +0.000 NA
ATOM     21  N   UNL     1       7.182   5.964  16.212  0.00  0.00    +0.000 NA
ATOM     22  C   UNL     1       5.902   5.922  16.700  0.00  0.00    +0.000 A 
ATOM     23  C   UNL     1       5.062   6.950  17.142  0.00  0.00    +0.000 A 
ATOM     24  H   UNL     1       6.670   2.909  16.170  0.00  0.00    +0.000 HD
ENDBRANCH   2  15
TORSDOF 1
ENDMDL
MODEL 6
REMARK VINA RESULT:      -7.7      7.479      8.532
REMARK  Name = 
REMARK  1 active torsions:
REMARK  status: ('A' for Active; 'I' for Inactive)
REMARK    1  A    between atoms: C_2  and  C_13
REMARK                            x       y       z     vdW  Elec       q    Type
REMARK                         _______ _______ _______ _____ _____    ______ ____
ROOT
ATOM      1  O   UNL     1       1.794   8.443  19.438  0.00  0.00    +0.000 OA
ATOM      2  C   UNL     1       1.349   8.214  20.564  0.00  0.00    +0.000 C 
ATOM      3  N   UNL     1       1.340   6.984  21.188  0.00  0.00    +0.000 N 
ATOM      4  C   UNL     1       1.852   5.894  20.533  0.00  0.00    +0.000 A 
ATOM      5  N   UNL     1       1.330   4.692  20.553  0.00  0.00    +0.000 NA
ATOM      6  C   UNL     1       2.088   3.964  19.666  0.00  0.00    +0.000 A 
ATOM      7  C   UNL     1       1.894   2.669  19.166  0.00  0.00    +0.000 A 
ATOM      8  C   UNL     1       2.846   2.137  18.286  0.00  0.00    +0.000 A 
ATOM      9  C   UNL     1       3.985   2.866  17.937  0.00  0.00    +0.000 A 
ATOM     10  C   UNL     1       4.187   4.170  18.406  0.00  0.00    +0.000 A 
ATOM     11  C   UNL     1       3.194   4.692  19.236  0.00  0.00    +0.000 A 
ATOM     12  N   UNL     1       2.997   5.934  19.779  0.00  0.00    +0.000 N 
ATOM     13  H   UNL     1       0.624   6.786  21.877  0.00  0.00    +0.000 HD
ATOM     14  H   UNL     1       3.561   6.758  19.631  0.00  0.00    +0.000 HD
ENDROOT
BRANCH   2  15
ATOM     15  C   UNL     1       0.758   9.327  21.329  0.00  0.00    +0.000 A 
ATOM     16  C   UNL     1       0.017   9.044  22.489  0.00  0.00    +0.000 A 
ATOM     17  C   UNL     1      -0.688  10.049  23.161  0.00  0.00    +0.000 A 
ATOM     18  C   UNL     1      -0.632  11.325  22.595  0.00  0.00    +0.000 A 
ATOM     19  N   UNL     1      -1.217  12.519  22.909  0.00  0.00    +0.000 N 
ATOM     20  N   UNL     1      -0.865  13.489  22.050  0.00  0.00    +0.000 NA
ATOM     21  N   UNL     1      -0.051  12.956  21.155  0.00  0.00    +0.000 NA
ATOM     22  C   UNL     1       0.106  11.629  21.459  0.00  0.00    +0.000 A 
ATOM     23  C   UNL     1       0.834  10.626  20.809  0.00  0.00    +0.000 A 
ATOM     24  H   UNL     1      -1.859  12.741  23.661  0.00  0.00    +0.000 HD
ENDBRANCH   2  15
TORSDOF 1
ENDMDL
MODEL 7
REMARK VINA RESULT:      -7.7      6.113      7.974
REMARK  Name = 
REMARK  1 active torsions:
REMARK  status: ('A' for Active; 'I' for Inactive)
REMARK    1  A    between atoms: C_2  and  C_13
REMARK                            x       y       z     vdW  Elec       q    Type
REMARK                         _______ _______ _______ _____ _____    ______ ____
ROOT
ATOM      1  O   UNL     1       2.277   6.443  19.998  0.00  0.00    +0.000 OA
ATOM      2  C   UNL     1       2.170   7.540  19.449  0.00  0.00    +0.000 C 
ATOM      3  N   UNL     1       2.815   7.924  18.292  0.00  0.00    +0.000 N 
ATOM      4  C   UNL     1       3.663   7.044  17.671  0.00  0.00    +0.000 A 
ATOM      5  N   UNL     1       4.811   7.365  17.125  0.00  0.00    +0.000 NA
ATOM      6  C   UNL     1       5.368   6.166  16.748  0.00  0.00    +0.000 A 
ATOM      7  C   UNL     1       6.653   5.883  16.262  0.00  0.00    +0.000 A 
ATOM      8  C   UNL     1       6.966   4.562  15.914  0.00  0.00    +0.000 A 
ATOM      9  C   UNL     1       6.009   3.549  16.017  0.00  0.00    +0.000 A 
ATOM     10  C   UNL     1       4.729   3.805  16.523  0.00  0.00    +0.000 A 
ATOM     11  C   UNL     1       4.466   5.118  16.912  0.00  0.00    +0.000 A 
ATOM     12  N   UNL     1       3.398   5.705  17.537  0.00  0.00    +0.000 N 
ATOM     13  H   UNL     1       3.013   8.907  18.140  0.00  0.00    +0.000 HD
ATOM     14  H   UNL     1       2.568   5.245  17.882  0.00  0.00    +0.000 HD
ENDROOT
BRANCH   2  15
ATOM     15  C   UNL     1       1.295   8.556  20.063  0.00  0.00    +0.000 A 
ATOM     16  C   UNL     1       0.819   9.617  19.277  0.00  0.00    +0.000 A 
ATOM     17  C   UNL     1       0.114  10.684  19.847  0.00  0.00    +0.000 A 
ATOM     18  C   UNL     1      -0.055  10.638  21.233  0.00  0.00    +0.000 A 
ATOM     19  N   UNL     1      -0.615  11.492  22.141  0.00  0.00    +0.000 N 
ATOM     20  N   UNL     1      -0.534  11.015  23.393  0.00  0.00    +0.000 NA
ATOM     21  N   UNL     1       0.083   9.846  23.338  0.00  0.00    +0.000 NA
ATOM     22  C   UNL     1       0.394   9.591  22.028  0.00  0.00    +0.000 A 
ATOM     23  C   UNL     1       1.071   8.513  21.446  0.00  0.00    +0.000 A 
ATOM     24  H   UNL     1      -1.045  12.397  21.990  0.00  0.00    +0.000 HD
ENDBRANCH   2  15
TORSDOF 1
ENDMDL
MODEL 8
REMARK VINA RESULT:      -7.6      6.857      8.408
REMARK  Name = 
REMARK  1 active torsions:
REMARK  status: ('A' for Active; 'I' for Inactive)
REMARK    1  A    between atoms: C_2  and  C_13
REMARK                            x       y       z     vdW  Elec       q    Type
REMARK                         _______ _______ _______ _____ _____    ______ ____
ROOT
ATOM      1  O   UNL     1       1.567   8.978  18.468  0.00  0.00    +0.000 OA
ATOM      2  C   UNL     1       1.613   8.569  19.629  0.00  0.00    +0.000 C 
ATOM      3  N   UNL     1       2.288   7.445  20.056  0.00  0.00    +0.000 N 
ATOM      4  C   UNL     1       2.973   6.684  19.145  0.00  0.00    +0.000 A 
ATOM      5  N   UNL     1       3.011   5.374  19.137  0.00  0.00    +0.000 NA
ATOM      6  C   UNL     1       3.693   5.048  17.988  0.00  0.00    +0.000 A 
ATOM      7  C   UNL     1       3.895   3.799  17.384  0.00  0.00    +0.000 A 
ATOM      8  C   UNL     1       4.667   3.732  16.217  0.00  0.00    +0.000 A 
ATOM      9  C   UNL     1       5.254   4.881  15.680  0.00  0.00    +0.000 A 
ATOM     10  C   UNL     1       5.044   6.141  16.253  0.00  0.00    +0.000 A 
ATOM     11  C   UNL     1       4.226   6.182  17.382  0.00  0.00    +0.000 A 
ATOM     12  N   UNL     1       3.719   7.216  18.124  0.00  0.00    +0.000 N 
ATOM     13  H   UNL     1       1.957   6.954  20.878  0.00  0.00    +0.000 HD
ATOM     14  H   UNL     1       3.831   8.203  17.945  0.00  0.00    +0.000 HD
ENDROOT
BRANCH   2  15
ATOM     15  C   UNL     1       0.885   9.316  20.671  0.00  0.00    +0.000 A 
ATOM     16  C   UNL     1       0.905   8.844  21.994  0.00  0.00    +0.000 A 
ATOM     17  C   UNL     1       0.108   9.429  22.984  0.00  0.00    +0.000 A 
ATOM     18  C   UNL     1      -0.717  10.477  22.571  0.00  0.00    +0.000 A 
ATOM     19  N   UNL     1      -1.656  11.241  23.205  0.00  0.00    +0.000 N 
ATOM     20  N   UNL     1      -2.211  12.142  22.378  0.00  0.00    +0.000 NA
ATOM     21  N   UNL     1      -1.656  11.987  21.187  0.00  0.00    +0.000 NA
ATOM     22  C   UNL     1      -0.742  10.970  21.273  0.00  0.00    +0.000 A 
ATOM     23  C   UNL     1       0.080  10.400  20.293  0.00  0.00    +0.000 A 
ATOM     24  H   UNL     1      -1.975  11.200  24.166  0.00  0.00    +0.000 HD
ENDBRANCH   2  15
TORSDOF 1
ENDMDL
MODEL 9
REMARK VINA RESULT:      -7.4      7.413      8.409
REMARK  Name = 
REMARK  1 active torsions:
REMARK  status: ('A' for Active; 'I' for Inactive)
REMARK    1  A    between atoms: C_2  and  C_13
REMARK                            x       y       z     vdW  Elec       q    Type
REMARK                         _______ _______ _______ _____ _____    ______ ____
ROOT
ATOM      1  O   UNL     1       2.159   8.199  18.840  0.00  0.00    +0.000 OA
ATOM      2  C   UNL     1       1.576   8.231  19.924  0.00  0.00    +0.000 C 
ATOM      3  N   UNL     1       1.441   7.170  20.794  0.00  0.00    +0.000 N 
ATOM      4  C   UNL     1       1.980   5.955  20.461  0.00  0.00    +0.000 A 
ATOM      5  N   UNL     1       1.409   4.795  20.676  0.00  0.00    +0.000 NA
ATOM      6  C   UNL     1       2.235   3.877  20.071  0.00  0.00    +0.000 A 
ATOM      7  C   UNL     1       2.046   2.507  19.843  0.00  0.00    +0.000 A 
ATOM      8  C   UNL     1       3.072   1.779  19.226  0.00  0.00    +0.000 A 
ATOM      9  C   UNL     1       4.274   2.395  18.871  0.00  0.00    +0.000 A 
ATOM     10  C   UNL     1       4.474   3.768  19.067  0.00  0.00    +0.000 A 
ATOM     11  C   UNL     1       3.414   4.476  19.633  0.00  0.00    +0.000 A 
ATOM     12  N   UNL     1       3.207   5.809  19.865  0.00  0.00    +0.000 N 
ATOM     13  H   UNL     1       0.641   7.141  21.416  0.00  0.00    +0.000 HD
ATOM     14  H   UNL     1       3.819   6.571  19.612  0.00  0.00    +0.000 HD
ENDROOT
BRANCH   2  15
ATOM     15  C   UNL     1       0.946   9.495  20.350  0.00  0.00    +0.000 A 
ATOM     16  C   UNL     1       1.112  10.645  19.560  0.00  0.00    +0.000 A 
ATOM     17  C   UNL     1       0.665  11.896  19.999  0.00  0.00    +0.000 A 
ATOM     18  C   UNL     1       0.079  11.931  21.266  0.00  0.00    +0.000 A 
ATOM     19  N   UNL     1      -0.412  12.938  22.048  0.00  0.00    +0.000 N 
ATOM     20  N   UNL     1      -0.879  12.480  23.220  0.00  0.00    +0.000 NA
ATOM     21  N   UNL     1      -0.700  11.170  23.238  0.00  0.00    +0.000 NA
ATOM     22  C   UNL     1      -0.110  10.805  22.057  0.00  0.00    +0.000 A 
ATOM     23  C   UNL     1       0.313   9.551  21.599  0.00  0.00    +0.000 A 
ATOM     24  H   UNL     1      -0.450  13.934  21.862  0.00  0.00    +0.000 HD
ENDBRANCH   2  15
TORSDOF 1
ENDMDL
