MODEL 1
REMARK VINA RESULT:      -9.1      0.000      0.000
REMARK  Name = 
REMARK  6 active torsions:
REMARK  status: ('A' for Active; 'I' for Inactive)
REMARK    1  A    between atoms: C_2  and  C_22
REMARK    2  A    between atoms: N_3  and  C_4
REMARK    3  A    between atoms: C_4  and  C_5
REMARK    4  A    between atoms: N_7  and  C_8
REMARK    5  A    between atoms: C_15  and  C_16
REMARK    6  A    between atoms: N_24  and  C_25
REMARK                            x       y       z     vdW  Elec       q    Type
REMARK                         _______ _______ _______ _____ _____    ______ ____
ROOT
ATOM      1  C   UNL     1       6.246   4.558  17.125  0.00  0.00    +0.000 A 
ATOM      2  C   UNL     1       5.348   4.421  18.159  0.00  0.00    +0.000 A 
ATOM      3  N   UNL     1       4.185   3.905  17.650  0.00  0.00    +0.000 N 
ATOM      4  N   UNL     1       4.288   3.678  16.324  0.00  0.00    +0.000 NA
ATOM      5  C   UNL     1       5.503   4.120  15.975  0.00  0.00    +0.000 A 
ENDROOT
BRANCH   3   6
ATOM      6  C   UNL     1       2.988   3.642  18.357  0.00  0.00    +0.000 A 
ATOM      7  C   UNL     1       2.613   4.464  19.431  0.00  0.00    +0.000 A 
ATOM      8  C   UNL     1       1.413   4.233  20.096  0.00  0.00    +0.000 A 
ATOM      9  C   UNL     1       0.596   3.171  19.712  0.00  0.00    +0.000 A 
ATOM     10  C   UNL     1       0.974   2.340  18.658  0.00  0.00    +0.000 A 
ATOM     11  C   UNL     1       2.164   2.579  17.970  0.00  0.00    +0.000 A 
ENDBRANCH   3   6
BRANCH   5  12
ATOM     12  C   UNL     1       5.911   4.120  14.568  0.00  0.00    +0.000 A 
ATOM     13  C   UNL     1       5.223   3.352  13.620  0.00  0.00    +0.000 A 
ATOM     14  C   UNL     1       5.622   3.317  12.291  0.00  0.00    +0.000 A 
ATOM     15  C   UNL     1       6.735   4.045  11.891  0.00  0.00    +0.000 A 
ATOM     16  C   UNL     1       7.443   4.810  12.819  0.00  0.00    +0.000 A 
ATOM     17  C   UNL     1       7.034   4.849  14.152  0.00  0.00    +0.000 A 
ENDBRANCH   5  12
BRANCH   1  18
ATOM     18  C   UNL     1       7.653   5.023  17.179  0.00  0.00    +0.000 C 
BRANCH  18  21
ATOM     19  O   UNL     1       8.129   6.536  19.459  0.00  0.00    +0.000 OA
ATOM     20  C   UNL     1       8.017   7.096  18.376  0.00  0.00    +0.000 C 
ATOM     21  N   UNL     1       7.781   6.454  17.173  0.00  0.00    +0.000 N 
ATOM     22  H   UNL     1       8.007   6.959  16.323  0.00  0.00    +0.000 HD
BRANCH  20  23
ATOM     23  C   UNL     1       8.173   8.635  18.300  0.00  0.00    +0.000 C 
ATOM     24  O   UNL     1       7.458   9.238  17.501  0.00  0.00    +0.000 OA
ATOM     25  N   UNL     1       9.148   9.147  19.130  0.00  0.00    +0.000 N 
ATOM     26  H   UNL     1       9.726   8.472  19.612  0.00  0.00    +0.000 HD
BRANCH  25  27
ATOM     27  C   UNL     1       9.503  10.520  19.227  0.00  0.00    +0.000 A 
ATOM     28  C   UNL     1      10.132  11.232  18.206  0.00  0.00    +0.000 A 
ATOM     29  C   UNL     1      10.504  12.564  18.401  0.00  0.00    +0.000 A 
ATOM     30  C   UNL     1      10.227  13.154  19.623  0.00  0.00    +0.000 A 
ATOM     31  N   UNL     1       9.590  12.516  20.628  0.00  0.00    +0.000 NA
ATOM     32  C   UNL     1       9.237  11.223  20.403  0.00  0.00    +0.000 A 
ENDBRANCH  25  27
ENDBRANCH  20  23
ENDBRANCH  18  21
ENDBRANCH   1  18
TORSDOF 6
ENDMDL
MODEL 2
REMARK VINA RESULT:      -9.0      0.105      1.252
REMARK  Name = 
REMARK  6 active torsions:
REMARK  status: ('A' for Active; 'I' for Inactive)
REMARK    1  A    between atoms: C_2  and  C_22
REMARK    2  A    between atoms: N_3  and  C_4
REMARK    3  A    between atoms: C_4  and  C_5
REMARK    4  A    between atoms: N_7  and  C_8
REMARK    5  A    between atoms: C_15  and  C_16
REMARK    6  A    between atoms: N_24  and  C_25
REMARK                            x       y       z     vdW  Elec       q    Type
REMARK                         _______ _______ _______ _____ _____    ______ ____
ROOT
ATOM      1  C   UNL     1       6.219   4.528  17.229  0.00  0.00    +0.000 A 
ATOM      2  C   UNL     1       5.293   4.397  18.239  0.00  0.00    +0.000 A 
ATOM      3  N   UNL     1       4.145   3.876  17.701  0.00  0.00    +0.000 N 
ATOM      4  N   UNL     1       4.285   3.639  16.380  0.00  0.00    +0.000 NA
ATOM      5  C   UNL     1       5.508   4.081  16.062  0.00  0.00    +0.000 A 
ENDROOT
BRANCH   3   6
ATOM      6  C   UNL     1       2.930   3.615  18.376  0.00  0.00    +0.000 A 
ATOM      7  C   UNL     1       2.098   2.570  17.946  0.00  0.00    +0.000 A 
ATOM      8  C   UNL     1       0.925   2.285  18.637  0.00  0.00    +0.000 A 
ATOM      9  C   UNL     1       0.564   3.053  19.743  0.00  0.00    +0.000 A 
ATOM     10  C   UNL     1       1.377   4.106  20.162  0.00  0.00    +0.000 A 
ATOM     11  C   UNL     1       2.567   4.383  19.489  0.00  0.00    +0.000 A 
ENDBRANCH   3   6
BRANCH   5  12
ATOM     12  C   UNL     1       5.955   4.072  14.666  0.00  0.00    +0.000 A 
ATOM     13  C   UNL     1       7.033   4.866  14.253  0.00  0.00    +0.000 A 
ATOM     14  C   UNL     1       7.444   4.893  12.927  0.00  0.00    +0.000 A 
ATOM     15  C   UNL     1       6.765   4.130  11.984  0.00  0.00    +0.000 A 
ATOM     16  C   UNL     1       5.682   3.339  12.371  0.00  0.00    +0.000 A 
ATOM     17  C   UNL     1       5.278   3.308  13.706  0.00  0.00    +0.000 A 
ENDBRANCH   5  12
BRANCH   1  18
ATOM     18  C   UNL     1       7.623   4.997  17.318  0.00  0.00    +0.000 C 
BRANCH  18  21
ATOM     19  O   UNL     1       8.248   6.555  19.531  0.00  0.00    +0.000 OA
ATOM     20  C   UNL     1       8.065   7.093  18.447  0.00  0.00    +0.000 C 
ATOM     21  N   UNL     1       7.751   6.427  17.275  0.00  0.00    +0.000 N 
ATOM     22  H   UNL     1       7.922   6.914  16.402  0.00  0.00    +0.000 HD
BRANCH  20  23
ATOM     23  C   UNL     1       8.216   8.630  18.329  0.00  0.00    +0.000 C 
ATOM     24  O   UNL     1       7.518   9.205  17.496  0.00  0.00    +0.000 OA
ATOM     25  N   UNL     1       9.169   9.171  19.167  0.00  0.00    +0.000 N 
ATOM     26  H   UNL     1       9.737   8.513  19.683  0.00  0.00    +0.000 HD
BRANCH  25  27
ATOM     27  C   UNL     1       9.516  10.547  19.233  0.00  0.00    +0.000 A 
ATOM     28  C   UNL     1      10.031  11.269  18.156  0.00  0.00    +0.000 A 
ATOM     29  C   UNL     1      10.404  12.605  18.317  0.00  0.00    +0.000 A 
ATOM     30  C   UNL     1      10.244  13.189  19.562  0.00  0.00    +0.000 A 
ATOM     31  N   UNL     1       9.718  12.542  20.624  0.00  0.00    +0.000 NA
ATOM     32  C   UNL     1       9.360  11.245  20.432  0.00  0.00    +0.000 A 
ENDBRANCH  25  27
ENDBRANCH  20  23
ENDBRANCH  18  21
ENDBRANCH   1  18
TORSDOF 6
ENDMDL
MODEL 3
REMARK VINA RESULT:      -8.5      4.403      7.523
REMARK  Name = 
REMARK  6 active torsions:
REMARK  status: ('A' for Active; 'I' for Inactive)
REMARK    1  A    between atoms: C_2  and  C_22
REMARK    2  A    between atoms: N_3  and  C_4
REMARK    3  A    between atoms: C_4  and  C_5
REMARK    4  A    between atoms: N_7  and  C_8
REMARK    5  A    between atoms: C_15  and  C_16
REMARK    6  A    between atoms: N_24  and  C_25
REMARK                            x       y       z     vdW  Elec       q    Type
REMARK                         _______ _______ _______ _____ _____    ______ ____
ROOT
ATOM      1  C   UNL     1       4.801   5.646  17.289  0.00  0.00    +0.000 A 
ATOM      2  C   UNL     1       5.562   5.764  16.148  0.00  0.00    +0.000 A 
ATOM      3  N   UNL     1       5.332   4.662  15.366  0.00  0.00    +0.000 N 
ATOM      4  N   UNL     1       4.434   3.832  15.938  0.00  0.00    +0.000 NA
ATOM      5  C   UNL     1       4.145   4.378  17.126  0.00  0.00    +0.000 A 
ENDROOT
BRANCH   3   6
ATOM      6  C   UNL     1       5.938   4.356  14.125  0.00  0.00    +0.000 A 
ATOM      7  C   UNL     1       5.327   3.442  13.252  0.00  0.00    +0.000 A 
ATOM      8  C   UNL     1       5.898   3.176  12.012  0.00  0.00    +0.000 A 
ATOM      9  C   UNL     1       7.090   3.798  11.647  0.00  0.00    +0.000 A 
ATOM     10  C   UNL     1       7.712   4.692  12.518  0.00  0.00    +0.000 A 
ATOM     11  C   UNL     1       7.133   4.983  13.754  0.00  0.00    +0.000 A 
ENDBRANCH   3   6
BRANCH   5  12
ATOM     12  C   UNL     1       3.268   3.675  18.066  0.00  0.00    +0.000 A 
ATOM     13  C   UNL     1       1.891   3.581  17.830  0.00  0.00    +0.000 A 
ATOM     14  C   UNL     1       1.045   2.948  18.730  0.00  0.00    +0.000 A 
ATOM     15  C   UNL     1       1.568   2.408  19.899  0.00  0.00    +0.000 A 
ATOM     16  C   UNL     1       2.935   2.499  20.161  0.00  0.00    +0.000 A 
ATOM     17  C   UNL     1       3.784   3.128  19.250  0.00  0.00    +0.000 A 
ENDBRANCH   5  12
BRANCH   1  18
ATOM     18  C   UNL     1       4.667   6.606  18.412  0.00  0.00    +0.000 C 
BRANCH  18  21
ATOM     19  O   UNL     1       2.170   6.887  19.597  0.00  0.00    +0.000 OA
ATOM     20  C   UNL     1       2.549   7.720  18.785  0.00  0.00    +0.000 C 
ATOM     21  N   UNL     1       3.768   7.691  18.130  0.00  0.00    +0.000 N 
ATOM     22  H   UNL     1       4.102   8.560  17.728  0.00  0.00    +0.000 HD
BRANCH  20  23
ATOM     23  C   UNL     1       1.638   8.929  18.460  0.00  0.00    +0.000 C 
ATOM     24  O   UNL     1       1.737   9.428  17.339  0.00  0.00    +0.000 OA
ATOM     25  N   UNL     1       0.836   9.332  19.507  0.00  0.00    +0.000 N 
ATOM     26  H   UNL     1       1.001   8.879  20.396  0.00  0.00    +0.000 HD
BRANCH  25  27
ATOM     27  C   UNL     1      -0.066  10.429  19.473  0.00  0.00    +0.000 A 
ATOM     28  C   UNL     1      -1.298  10.400  18.819  0.00  0.00    +0.000 A 
ATOM     29  C   UNL     1      -2.103  11.540  18.780  0.00  0.00    +0.000 A 
ATOM     30  C   UNL     1      -1.652  12.688  19.410  0.00  0.00    +0.000 A 
ATOM     31  N   UNL     1      -0.484  12.754  20.085  0.00  0.00    +0.000 NA
ATOM     32  C   UNL     1       0.272  11.625  20.108  0.00  0.00    +0.000 A 
ENDBRANCH  25  27
ENDBRANCH  20  23
ENDBRANCH  18  21
ENDBRANCH   1  18
TORSDOF 6
ENDMDL
MODEL 4
REMARK VINA RESULT:      -8.4      1.050      1.431
REMARK  Name = 
REMARK  6 active torsions:
REMARK  status: ('A' for Active; 'I' for Inactive)
REMARK    1  A    between atoms: C_2  and  C_22
REMARK    2  A    between atoms: N_3  and  C_4
REMARK    3  A    between atoms: C_4  and  C_5
REMARK    4  A    between atoms: N_7  and  C_8
REMARK    5  A    between atoms: C_15  and  C_16
REMARK    6  A    between atoms: N_24  and  C_25
REMARK                            x       y       z     vdW  Elec       q    Type
REMARK                         _______ _______ _______ _____ _____    ______ ____
ROOT
ATOM      1  C   UNL     1       6.382   4.808  18.058  0.00  0.00    +0.000 A 
ATOM      2  C   UNL     1       5.447   4.712  19.064  0.00  0.00    +0.000 A 
ATOM      3  N   UNL     1       4.285   4.231  18.522  0.00  0.00    +0.000 N 
ATOM      4  N   UNL     1       4.422   3.987  17.202  0.00  0.00    +0.000 NA
ATOM      5  C   UNL     1       5.662   4.384  16.889  0.00  0.00    +0.000 A 
ENDROOT
BRANCH   3   6
ATOM      6  C   UNL     1       3.057   4.016  19.192  0.00  0.00    +0.000 A 
ATOM      7  C   UNL     1       2.527   5.015  20.023  0.00  0.00    +0.000 A 
ATOM      8  C   UNL     1       1.298   4.822  20.645  0.00  0.00    +0.000 A 
ATOM      9  C   UNL     1       0.605   3.626  20.463  0.00  0.00    +0.000 A 
ATOM     10  C   UNL     1       1.137   2.622  19.654  0.00  0.00    +0.000 A 
ATOM     11  C   UNL     1       2.358   2.817  19.007  0.00  0.00    +0.000 A 
ENDBRANCH   3   6
BRANCH   5  12
ATOM     12  C   UNL     1       6.115   4.356  15.496  0.00  0.00    +0.000 A 
ATOM     13  C   UNL     1       7.280   5.027  15.106  0.00  0.00    +0.000 A 
ATOM     14  C   UNL     1       7.701   5.037  13.783  0.00  0.00    +0.000 A 
ATOM     15  C   UNL     1       6.945   4.381  12.819  0.00  0.00    +0.000 A 
ATOM     16  C   UNL     1       5.774   3.714  13.181  0.00  0.00    +0.000 A 
ATOM     17  C   UNL     1       5.359   3.699  14.513  0.00  0.00    +0.000 A 
ENDBRANCH   5  12
BRANCH   1  18
ATOM     18  C   UNL     1       7.802   5.226  18.153  0.00  0.00    +0.000 C 
BRANCH  18  21
ATOM     19  O   UNL     1       7.887   7.401  16.427  0.00  0.00    +0.000 OA
ATOM     20  C   UNL     1       7.996   7.583  17.633  0.00  0.00    +0.000 C 
ATOM     21  N   UNL     1       7.968   6.585  18.591  0.00  0.00    +0.000 N 
ATOM     22  H   UNL     1       7.759   6.859  19.545  0.00  0.00    +0.000 HD
BRANCH  20  23
ATOM     23  C   UNL     1       8.148   9.028  18.170  0.00  0.00    +0.000 C 
ATOM     24  O   UNL     1       7.395   9.885  17.709  0.00  0.00    +0.000 OA
ATOM     25  N   UNL     1       9.162   9.186  19.092  0.00  0.00    +0.000 N 
ATOM     26  H   UNL     1       9.762   8.385  19.239  0.00  0.00    +0.000 HD
BRANCH  25  27
ATOM     27  C   UNL     1       9.521  10.413  19.712  0.00  0.00    +0.000 A 
ATOM     28  C   UNL     1      10.445  11.311  19.177  0.00  0.00    +0.000 A 
ATOM     29  C   UNL     1      10.790  12.468  19.878  0.00  0.00    +0.000 A 
ATOM     30  C   UNL     1      10.190  12.700  21.104  0.00  0.00    +0.000 A 
ATOM     31  N   UNL     1       9.266  11.879  21.646  0.00  0.00    +0.000 NA
ATOM     32  C   UNL     1       8.948  10.765  20.935  0.00  0.00    +0.000 A 
ENDBRANCH  25  27
ENDBRANCH  20  23
ENDBRANCH  18  21
ENDBRANCH   1  18
TORSDOF 6
ENDMDL
MODEL 5
REMARK VINA RESULT:      -8.4      0.884      1.088
REMARK  Name = 
REMARK  6 active torsions:
REMARK  status: ('A' for Active; 'I' for Inactive)
REMARK    1  A    between atoms: C_2  and  C_22
REMARK    2  A    between atoms: N_3  and  C_4
REMARK    3  A    between atoms: C_4  and  C_5
REMARK    4  A    between atoms: N_7  and  C_8
REMARK    5  A    between atoms: C_15  and  C_16
REMARK    6  A    between atoms: N_24  and  C_25
REMARK                            x       y       z     vdW  Elec       q    Type
REMARK                         _______ _______ _______ _____ _____    ______ ____
ROOT
ATOM      1  C   UNL     1       6.273   4.915  17.131  0.00  0.00    +0.000 A 
ATOM      2  C   UNL     1       5.363   4.772  18.154  0.00  0.00    +0.000 A 
ATOM      3  N   UNL     1       4.256   4.137  17.655  0.00  0.00    +0.000 N 
ATOM      4  N   UNL     1       4.408   3.838  16.348  0.00  0.00    +0.000 NA
ATOM      5  C   UNL     1       5.594   4.351  15.997  0.00  0.00    +0.000 A 
ENDROOT
BRANCH   3   6
ATOM      6  C   UNL     1       3.065   3.826  18.353  0.00  0.00    +0.000 A 
ATOM      7  C   UNL     1       2.684   4.591  19.466  0.00  0.00    +0.000 A 
ATOM      8  C   UNL     1       1.490   4.313  20.124  0.00  0.00    +0.000 A 
ATOM      9  C   UNL     1       0.686   3.259  19.694  0.00  0.00    +0.000 A 
ATOM     10  C   UNL     1       1.071   2.484  18.601  0.00  0.00    +0.000 A 
ATOM     11  C   UNL     1       2.254   2.770  17.920  0.00  0.00    +0.000 A 
ENDBRANCH   3   6
BRANCH   5  12
ATOM     12  C   UNL     1       6.036   4.298  14.601  0.00  0.00    +0.000 A 
ATOM     13  C   UNL     1       5.370   3.493  13.667  0.00  0.00    +0.000 A 
ATOM     14  C   UNL     1       5.800   3.407  12.350  0.00  0.00    +0.000 A 
ATOM     15  C   UNL     1       6.923   4.120  11.948  0.00  0.00    +0.000 A 
ATOM     16  C   UNL     1       7.609   4.920  12.863  0.00  0.00    +0.000 A 
ATOM     17  C   UNL     1       7.169   5.011  14.184  0.00  0.00    +0.000 A 
ENDBRANCH   5  12
BRANCH   1  18
ATOM     18  C   UNL     1       7.639   5.492  17.184  0.00  0.00    +0.000 C 
BRANCH  18  21
ATOM     19  O   UNL     1       8.590   7.148  19.200  0.00  0.00    +0.000 OA
ATOM     20  C   UNL     1       8.155   7.643  18.168  0.00  0.00    +0.000 C 
ATOM     21  N   UNL     1       7.656   6.925  17.095  0.00  0.00    +0.000 N 
ATOM     22  H   UNL     1       7.612   7.398  16.198  0.00  0.00    +0.000 HD
BRANCH  20  23
ATOM     23  C   UNL     1       8.173   9.182  17.999  0.00  0.00    +0.000 C 
ATOM     24  O   UNL     1       7.212   9.701  17.433  0.00  0.00    +0.000 OA
ATOM     25  N   UNL     1       9.312   9.791  18.482  0.00  0.00    +0.000 N 
ATOM     26  H   UNL     1      10.053   9.175  18.790  0.00  0.00    +0.000 HD
BRANCH  25  27
ATOM     27  C   UNL     1       9.584  11.185  18.424  0.00  0.00    +0.000 A 
ATOM     28  C   UNL     1       8.791  12.155  19.038  0.00  0.00    +0.000 A 
ATOM     29  C   UNL     1       9.091  13.511  18.884  0.00  0.00    +0.000 A 
ATOM     30  C   UNL     1      10.191  13.860  18.119  0.00  0.00    +0.000 A 
ATOM     31  N   UNL     1      11.007  12.957  17.536  0.00  0.00    +0.000 NA
ATOM     32  C   UNL     1      10.691  11.647  17.710  0.00  0.00    +0.000 A 
ENDBRANCH  25  27
ENDBRANCH  20  23
ENDBRANCH  18  21
ENDBRANCH   1  18
TORSDOF 6
ENDMDL
MODEL 6
REMARK VINA RESULT:      -8.4      1.051      1.627
REMARK  Name = 
REMARK  6 active torsions:
REMARK  status: ('A' for Active; 'I' for Inactive)
REMARK    1  A    between atoms: C_2  and  C_22
REMARK    2  A    between atoms: N_3  and  C_4
REMARK    3  A    between atoms: C_4  and  C_5
REMARK    4  A    between atoms: N_7  and  C_8
REMARK    5  A    between atoms: C_15  and  C_16
REMARK    6  A    between atoms: N_24  and  C_25
REMARK                            x       y       z     vdW  Elec       q    Type
REMARK                         _______ _______ _______ _____ _____    ______ ____
ROOT
ATOM      1  C   UNL     1       6.335   4.839  18.020  0.00  0.00    +0.000 A 
ATOM      2  C   UNL     1       5.396   4.736  19.020  0.00  0.00    +0.000 A 
ATOM      3  N   UNL     1       4.233   4.269  18.468  0.00  0.00    +0.000 N 
ATOM      4  N   UNL     1       4.375   4.040  17.146  0.00  0.00    +0.000 NA
ATOM      5  C   UNL     1       5.618   4.433  16.842  0.00  0.00    +0.000 A 
ENDROOT
BRANCH   3   6
ATOM      6  C   UNL     1       3.001   4.053  19.130  0.00  0.00    +0.000 A 
ATOM      7  C   UNL     1       2.250   2.900  18.856  0.00  0.00    +0.000 A 
ATOM      8  C   UNL     1       1.062   2.665  19.540  0.00  0.00    +0.000 A 
ATOM      9  C   UNL     1       0.606   3.587  20.480  0.00  0.00    +0.000 A 
ATOM     10  C   UNL     1       1.339   4.744  20.742  0.00  0.00    +0.000 A 
ATOM     11  C   UNL     1       2.543   4.976  20.078  0.00  0.00    +0.000 A 
ENDBRANCH   3   6
BRANCH   5  12
ATOM     12  C   UNL     1       6.076   4.419  15.451  0.00  0.00    +0.000 A 
ATOM     13  C   UNL     1       5.336   3.766  14.457  0.00  0.00    +0.000 A 
ATOM     14  C   UNL     1       5.778   3.717  13.142  0.00  0.00    +0.000 A 
ATOM     15  C   UNL     1       6.987   4.312  12.802  0.00  0.00    +0.000 A 
ATOM     16  C   UNL     1       7.747   4.960  13.777  0.00  0.00    +0.000 A 
ATOM     17  C   UNL     1       7.295   5.015  15.096  0.00  0.00    +0.000 A 
ENDBRANCH   5  12
BRANCH   1  18
ATOM     18  C   UNL     1       7.758   5.248  18.125  0.00  0.00    +0.000 C 
BRANCH  18  21
ATOM     19  O   UNL     1       7.865   7.424  16.403  0.00  0.00    +0.000 OA
ATOM     20  C   UNL     1       7.968   7.604  17.609  0.00  0.00    +0.000 C 
ATOM     21  N   UNL     1       7.929   6.605  18.565  0.00  0.00    +0.000 N 
ATOM     22  H   UNL     1       7.717   6.880  19.519  0.00  0.00    +0.000 HD
BRANCH  20  23
ATOM     23  C   UNL     1       8.126   9.048  18.149  0.00  0.00    +0.000 C 
ATOM     24  O   UNL     1       7.376   9.908  17.690  0.00  0.00    +0.000 OA
ATOM     25  N   UNL     1       9.141   9.201  19.070  0.00  0.00    +0.000 N 
ATOM     26  H   UNL     1       9.738   8.397  19.215  0.00  0.00    +0.000 HD
BRANCH  25  27
ATOM     27  C   UNL     1       9.505  10.425  19.692  0.00  0.00    +0.000 A 
ATOM     28  C   UNL     1       9.099  10.794  20.975  0.00  0.00    +0.000 A 
ATOM     29  C   UNL     1       9.450  12.042  21.493  0.00  0.00    +0.000 A 
ATOM     30  C   UNL     1      10.211  12.892  20.709  0.00  0.00    +0.000 A 
ATOM     31  N   UNL     1      10.656  12.565  19.477  0.00  0.00    +0.000 NA
ATOM     32  C   UNL     1      10.302  11.342  19.004  0.00  0.00    +0.000 A 
ENDBRANCH  25  27
ENDBRANCH  20  23
ENDBRANCH  18  21
ENDBRANCH   1  18
TORSDOF 6
ENDMDL
MODEL 7
REMARK VINA RESULT:      -8.3      4.531      7.949
REMARK  Name = 
REMARK  6 active torsions:
REMARK  status: ('A' for Active; 'I' for Inactive)
REMARK    1  A    between atoms: C_2  and  C_22
REMARK    2  A    between atoms: N_3  and  C_4
REMARK    3  A    between atoms: C_4  and  C_5
REMARK    4  A    between atoms: N_7  and  C_8
REMARK    5  A    between atoms: C_15  and  C_16
REMARK    6  A    between atoms: N_24  and  C_25
REMARK                            x       y       z     vdW  Elec       q    Type
REMARK                         _______ _______ _______ _____ _____    ______ ____
ROOT
ATOM      1  C   UNL     1       4.471   5.802  17.290  0.00  0.00    +0.000 A 
ATOM      2  C   UNL     1       5.234   5.936  16.152  0.00  0.00    +0.000 A 
ATOM      3  N   UNL     1       5.146   4.768  15.440  0.00  0.00    +0.000 N 
ATOM      4  N   UNL     1       4.339   3.878  16.054  0.00  0.00    +0.000 NA
ATOM      5  C   UNL     1       3.969   4.458  17.202  0.00  0.00    +0.000 A 
ENDROOT
BRANCH   3   6
ATOM      6  C   UNL     1       5.804   4.459  14.227  0.00  0.00    +0.000 A 
ATOM      7  C   UNL     1       7.055   5.028  13.942  0.00  0.00    +0.000 A 
ATOM      8  C   UNL     1       7.723   4.688  12.771  0.00  0.00    +0.000 A 
ATOM      9  C   UNL     1       7.139   3.801  11.868  0.00  0.00    +0.000 A 
ATOM     10  C   UNL     1       5.887   3.249  12.136  0.00  0.00    +0.000 A 
ATOM     11  C   UNL     1       5.221   3.565  13.320  0.00  0.00    +0.000 A 
ENDBRANCH   3   6
BRANCH   5  12
ATOM     12  C   UNL     1       3.161   3.718  18.176  0.00  0.00    +0.000 A 
ATOM     13  C   UNL     1       3.720   3.271  19.380  0.00  0.00    +0.000 A 
ATOM     14  C   UNL     1       2.975   2.539  20.294  0.00  0.00    +0.000 A 
ATOM     15  C   UNL     1       1.652   2.228  20.007  0.00  0.00    +0.000 A 
ATOM     16  C   UNL     1       1.076   2.653  18.809  0.00  0.00    +0.000 A 
ATOM     17  C   UNL     1       1.826   3.396  17.896  0.00  0.00    +0.000 A 
ENDBRANCH   5  12
BRANCH   1  18
ATOM     18  C   UNL     1       4.208   6.807  18.349  0.00  0.00    +0.000 C 
BRANCH  18  21
ATOM     19  O   UNL     1       2.132   7.676  19.978  0.00  0.00    +0.000 OA
ATOM     20  C   UNL     1       2.263   8.157  18.860  0.00  0.00    +0.000 C 
ATOM     21  N   UNL     1       3.254   7.809  17.959  0.00  0.00    +0.000 N 
ATOM     22  H   UNL     1       3.456   8.464  17.211  0.00  0.00    +0.000 HD
BRANCH  20  23
ATOM     23  C   UNL     1       1.284   9.262  18.392  0.00  0.00    +0.000 C 
ATOM     24  O   UNL     1       1.642   9.975  17.455  0.00  0.00    +0.000 OA
ATOM     25  N   UNL     1       0.121   9.337  19.128  0.00  0.00    +0.000 N 
ATOM     26  H   UNL     1       0.073   8.750  19.950  0.00  0.00    +0.000 HD
BRANCH  25  27
ATOM     27  C   UNL     1      -0.923  10.278  18.918  0.00  0.00    +0.000 A 
ATOM     28  C   UNL     1      -1.101  11.425  19.692  0.00  0.00    +0.000 A 
ATOM     29  C   UNL     1      -2.188  12.270  19.460  0.00  0.00    +0.000 A 
ATOM     30  C   UNL     1      -3.072  11.945  18.445  0.00  0.00    +0.000 A 
ATOM     31  N   UNL     1      -2.922  10.866  17.648  0.00  0.00    +0.000 NA
ATOM     32  C   UNL     1      -1.851  10.067  17.896  0.00  0.00    +0.000 A 
ENDBRANCH  25  27
ENDBRANCH  20  23
ENDBRANCH  18  21
ENDBRANCH   1  18
TORSDOF 6
ENDMDL
MODEL 8
REMARK VINA RESULT:      -8.2      7.794     10.069
REMARK  Name = 
REMARK  6 active torsions:
REMARK  status: ('A' for Active; 'I' for Inactive)
REMARK    1  A    between atoms: C_2  and  C_22
REMARK    2  A    between atoms: N_3  and  C_4
REMARK    3  A    between atoms: C_4  and  C_5
REMARK    4  A    between atoms: N_7  and  C_8
REMARK    5  A    between atoms: C_15  and  C_16
REMARK    6  A    between atoms: N_24  and  C_25
REMARK                            x       y       z     vdW  Elec       q    Type
REMARK                         _______ _______ _______ _____ _____    ______ ____
ROOT
ATOM      1  C   UNL     1       1.486   8.165  20.154  0.00  0.00    +0.000 A 
ATOM      2  C   UNL     1       2.270   7.092  19.795  0.00  0.00    +0.000 A 
ATOM      3  N   UNL     1       2.727   7.303  18.521  0.00  0.00    +0.000 N 
ATOM      4  N   UNL     1       2.291   8.484  18.033  0.00  0.00    +0.000 NA
ATOM      5  C   UNL     1       1.493   8.993  18.979  0.00  0.00    +0.000 A 
ENDROOT
BRANCH   3   6
ATOM      6  C   UNL     1       3.533   6.433  17.749  0.00  0.00    +0.000 A 
ATOM      7  C   UNL     1       3.288   5.052  17.766  0.00  0.00    +0.000 A 
ATOM      8  C   UNL     1       4.051   4.201  16.972  0.00  0.00    +0.000 A 
ATOM      9  C   UNL     1       5.073   4.719  16.178  0.00  0.00    +0.000 A 
ATOM     10  C   UNL     1       5.333   6.089  16.174  0.00  0.00    +0.000 A 
ATOM     11  C   UNL     1       4.557   6.952  16.948  0.00  0.00    +0.000 A 
ENDBRANCH   3   6
BRANCH   5  12
ATOM     12  C   UNL     1       0.759  10.237  18.732  0.00  0.00    +0.000 A 
ATOM     13  C   UNL     1       1.353  11.481  18.977  0.00  0.00    +0.000 A 
ATOM     14  C   UNL     1       0.657  12.666  18.781  0.00  0.00    +0.000 A 
ATOM     15  C   UNL     1      -0.663  12.621  18.348  0.00  0.00    +0.000 A 
ATOM     16  C   UNL     1      -1.280  11.393  18.107  0.00  0.00    +0.000 A 
ATOM     17  C   UNL     1      -0.574  10.204  18.297  0.00  0.00    +0.000 A 
ENDBRANCH   5  12
BRANCH   1  18
ATOM     18  C   UNL     1       0.811   8.424  21.449  0.00  0.00    +0.000 C 
BRANCH  18  21
ATOM     19  O   UNL     1       0.230   9.803  23.789  0.00  0.00    +0.000 OA
ATOM     20  C   UNL     1      -0.126  10.264  22.713  0.00  0.00    +0.000 C 
ATOM     21  N   UNL     1       0.104   9.675  21.483  0.00  0.00    +0.000 N 
ATOM     22  H   UNL     1       0.047  10.269  20.662  0.00  0.00    +0.000 HD
BRANCH  20  23
ATOM     23  C   UNL     1      -0.866  11.624  22.681  0.00  0.00    +0.000 C 
ATOM     24  O   UNL     1      -0.239  12.601  22.274  0.00  0.00    +0.000 OA
ATOM     25  N   UNL     1      -2.158  11.578  23.162  0.00  0.00    +0.000 N 
ATOM     26  H   UNL     1      -2.448  10.704  23.581  0.00  0.00    +0.000 HD
BRANCH  25  27
ATOM     27  C   UNL     1      -3.036  12.690  23.263  0.00  0.00    +0.000 A 
ATOM     28  C   UNL     1      -2.834  13.761  24.133  0.00  0.00    +0.000 A 
ATOM     29  C   UNL     1      -3.775  14.789  24.216  0.00  0.00    +0.000 A 
ATOM     30  C   UNL     1      -4.901  14.720  23.413  0.00  0.00    +0.000 A 
ATOM     31  N   UNL     1      -5.123  13.722  22.531  0.00  0.00    +0.000 NA
ATOM     32  C   UNL     1      -4.185  12.741  22.471  0.00  0.00    +0.000 A 
ENDBRANCH  25  27
ENDBRANCH  20  23
ENDBRANCH  18  21
ENDBRANCH   1  18
TORSDOF 6
ENDMDL
MODEL 9
REMARK VINA RESULT:      -8.1      4.882      8.514
REMARK  Name = 
REMARK  6 active torsions:
REMARK  status: ('A' for Active; 'I' for Inactive)
REMARK    1  A    between atoms: C_2  and  C_22
REMARK    2  A    between atoms: N_3  and  C_4
REMARK    3  A    between atoms: C_4  and  C_5
REMARK    4  A    between atoms: N_7  and  C_8
REMARK    5  A    between atoms: C_15  and  C_16
REMARK    6  A    between atoms: N_24  and  C_25
REMARK                            x       y       z     vdW  Elec       q    Type
REMARK                         _______ _______ _______ _____ _____    ______ ____
ROOT
ATOM      1  C   UNL     1       3.829   6.249  17.776  0.00  0.00    +0.000 A 
ATOM      2  C   UNL     1       4.663   6.381  16.689  0.00  0.00    +0.000 A 
ATOM      3  N   UNL     1       4.783   5.153  16.092  0.00  0.00    +0.000 N 
ATOM      4  N   UNL     1       4.045   4.222  16.731  0.00  0.00    +0.000 NA
ATOM      5  C   UNL     1       3.508   4.848  17.785  0.00  0.00    +0.000 A 
ENDROOT
BRANCH   3   6
ATOM      6  C   UNL     1       5.576   4.827  14.966  0.00  0.00    +0.000 A 
ATOM      7  C   UNL     1       5.092   3.928  14.004  0.00  0.00    +0.000 A 
ATOM      8  C   UNL     1       5.852   3.643  12.874  0.00  0.00    +0.000 A 
ATOM      9  C   UNL     1       7.105   4.230  12.712  0.00  0.00    +0.000 A 
ATOM     10  C   UNL     1       7.600   5.108  13.675  0.00  0.00    +0.000 A 
ATOM     11  C   UNL     1       6.834   5.419  14.799  0.00  0.00    +0.000 A 
ENDBRANCH   3   6
BRANCH   5  12
ATOM     12  C   UNL     1       2.719   4.097  18.766  0.00  0.00    +0.000 A 
ATOM     13  C   UNL     1       1.464   3.576  18.430  0.00  0.00    +0.000 A 
ATOM     14  C   UNL     1       0.692   2.892  19.360  0.00  0.00    +0.000 A 
ATOM     15  C   UNL     1       1.165   2.733  20.657  0.00  0.00    +0.000 A 
ATOM     16  C   UNL     1       2.409   3.252  21.018  0.00  0.00    +0.000 A 
ATOM     17  C   UNL     1       3.185   3.931  20.078  0.00  0.00    +0.000 A 
ENDBRANCH   5  12
BRANCH   1  18
ATOM     18  C   UNL     1       3.352   7.300  18.708  0.00  0.00    +0.000 C 
BRANCH  18  21
ATOM     19  O   UNL     1       1.501   8.768  20.168  0.00  0.00    +0.000 OA
ATOM     20  C   UNL     1       1.528   8.873  18.949  0.00  0.00    +0.000 C 
ATOM     21  N   UNL     1       2.400   8.198  18.114  0.00  0.00    +0.000 N 
ATOM     22  H   UNL     1       2.544   8.577  17.184  0.00  0.00    +0.000 HD
BRANCH  20  23
ATOM     23  C   UNL     1       0.546   9.848  18.252  0.00  0.00    +0.000 C 
ATOM     24  O   UNL     1       0.994  10.929  17.875  0.00  0.00    +0.000 OA
ATOM     25  N   UNL     1      -0.751   9.386  18.174  0.00  0.00    +0.000 N 
ATOM     26  H   UNL     1      -0.950   8.525  18.668  0.00  0.00    +0.000 HD
BRANCH  25  27
ATOM     27  C   UNL     1      -1.842  10.098  17.607  0.00  0.00    +0.000 A 
ATOM     28  C   UNL     1      -2.645  10.985  18.324  0.00  0.00    +0.000 A 
ATOM     29  C   UNL     1      -3.737  11.601  17.709  0.00  0.00    +0.000 A 
ATOM     30  C   UNL     1      -3.994  11.315  16.379  0.00  0.00    +0.000 A 
ATOM     31  N   UNL     1      -3.226  10.490  15.636  0.00  0.00    +0.000 NA
ATOM     32  C   UNL     1      -2.168   9.912  16.262  0.00  0.00    +0.000 A 
ENDBRANCH  25  27
ENDBRANCH  20  23
ENDBRANCH  18  21
ENDBRANCH   1  18
TORSDOF 6
ENDMDL
