MODEL 1
REMARK VINA RESULT:      -7.1      0.000      0.000
REMARK  Name = 
REMARK  3 active torsions:
REMARK  status: ('A' for Active; 'I' for Inactive)
REMARK    1  A    between atoms: C_1  and  C_2
REMARK    2  A    between atoms: C_7  and  C_9
REMARK    3  A    between atoms: C_14  and  C_16
REMARK                            x       y       z     vdW  Elec       q    Type
REMARK                         _______ _______ _______ _____ _____    ______ ____
ROOT
ATOM      1  C   UNL     1       6.340   5.897  15.629  0.00  0.00    +0.000 C 
ATOM      2  C   UNL     1       6.181   5.087  14.330  0.00  0.00    +0.000 C 
ATOM      3  C   UNL     1       5.432   3.755  14.470  0.00  0.00    +0.000 C 
ATOM      4  C   UNL     1       5.769   2.990  15.750  0.00  0.00    +0.000 C 
ATOM      5  N   UNL     1       5.799   3.864  16.923  0.00  0.00    +0.000 N 
ATOM      6  C   UNL     1       5.309   3.540  18.195  0.00  0.00    +0.000 C 
ATOM      7  O   UNL     1       5.619   4.202  19.188  0.00  0.00    +0.000 OA
ATOM      8  C   UNL     1       6.696   5.011  16.814  0.00  0.00    +0.000 C 
ENDROOT
BRANCH   1  15
ATOM      9  C   UNL     1       0.341   9.300  19.725  0.00  0.00    +0.000 C 
ATOM     10  C   UNL     1       1.492   8.582  19.095  0.00  0.00    +0.000 A 
ATOM     11  C   UNL     1       2.162   7.551  19.746  0.00  0.00    +0.000 A 
ATOM     12  C   UNL     1       3.246   6.941  19.116  0.00  0.00    +0.000 A 
ATOM     13  C   UNL     1       3.630   7.371  17.848  0.00  0.00    +0.000 A 
ATOM     14  N   UNL     1       4.740   6.736  17.281  0.00  0.00    +0.000 N 
ATOM     15  C   UNL     1       5.181   6.842  15.985  0.00  0.00    +0.000 C 
ATOM     16  O   UNL     1       4.743   7.600  15.122  0.00  0.00    +0.000 OA
ATOM     17  N   UNL     1       2.974   8.336  17.194  0.00  0.00    +0.000 NA
ATOM     18  C   UNL     1       1.938   8.931  17.828  0.00  0.00    +0.000 A 
ATOM     19  H   UNL     1       5.277   6.182  17.917  0.00  0.00    +0.000 HD
ENDBRANCH   1  15
BRANCH   6  20
ATOM     20  C   UNL     1       4.384   2.308  18.326  0.00  0.00    +0.000 C 
ATOM     21  C   UNL     1       4.259   1.790  19.774  0.00  0.00    +0.000 C 
ATOM     22  C   UNL     1       3.023   2.508  20.165  0.00  0.00    +0.000 A 
ATOM     23  C   UNL     1       2.483   2.743  21.416  0.00  0.00    +0.000 A 
ATOM     24  C   UNL     1       1.349   3.557  21.497  0.00  0.00    +0.000 A 
ATOM     25  C   UNL     1       0.755   4.080  20.336  0.00  0.00    +0.000 A 
ATOM     26  C   UNL     1       1.264   3.762  19.078  0.00  0.00    +0.000 A 
ATOM     27  C   UNL     1       2.404   2.992  19.025  0.00  0.00    +0.000 A 
ATOM     28  O   UNL     1       3.055   2.664  17.866  0.00  0.00    +0.000 OA
ENDBRANCH   6  20
TORSDOF 2
ENDMDL
MODEL 2
REMARK VINA RESULT:      -6.6      4.206      6.817
REMARK  Name = 
REMARK  3 active torsions:
REMARK  status: ('A' for Active; 'I' for Inactive)
REMARK    1  A    between atoms: C_1  and  C_2
REMARK    2  A    between atoms: C_7  and  C_9
REMARK    3  A    between atoms: C_14  and  C_16
REMARK                            x       y       z     vdW  Elec       q    Type
REMARK                         _______ _______ _______ _____ _____    ______ ____
ROOT
ATOM      1  C   UNL     1       0.304  11.250  19.262  0.00  0.00    +0.000 C 
ATOM      2  C   UNL     1      -0.025  11.320  20.764  0.00  0.00    +0.000 C 
ATOM      3  C   UNL     1       0.618  10.228  21.631  0.00  0.00    +0.000 C 
ATOM      4  C   UNL     1       0.640   8.850  20.970  0.00  0.00    +0.000 C 
ATOM      5  N   UNL     1       1.055   8.918  19.569  0.00  0.00    +0.000 N 
ATOM      6  C   UNL     1       1.893   8.001  18.921  0.00  0.00    +0.000 C 
ATOM      7  O   UNL     1       1.969   7.963  17.690  0.00  0.00    +0.000 OA
ATOM      8  C   UNL     1       0.268   9.823  18.736  0.00  0.00    +0.000 C 
ENDROOT
BRANCH   1  15
ATOM      9  C   UNL     1       6.019  16.843  18.631  0.00  0.00    +0.000 C 
ATOM     10  C   UNL     1       4.893  15.889  18.869  0.00  0.00    +0.000 A 
ATOM     11  C   UNL     1       3.867  16.168  19.768  0.00  0.00    +0.000 A 
ATOM     12  C   UNL     1       2.861  15.223  19.965  0.00  0.00    +0.000 A 
ATOM     13  C   UNL     1       2.900  14.024  19.257  0.00  0.00    +0.000 A 
ATOM     14  N   UNL     1       1.877  13.108  19.520  0.00  0.00    +0.000 N 
ATOM     15  C   UNL     1       1.590  11.964  18.816  0.00  0.00    +0.000 C 
ATOM     16  O   UNL     1       2.250  11.484  17.898  0.00  0.00    +0.000 OA
ATOM     17  N   UNL     1       3.859  13.756  18.364  0.00  0.00    +0.000 NA
ATOM     18  C   UNL     1       4.838  14.674  18.199  0.00  0.00    +0.000 A 
ATOM     19  H   UNL     1       1.333  13.308  20.335  0.00  0.00    +0.000 HD
ENDBRANCH   1  15
BRANCH   6  20
ATOM     20  C   UNL     1       2.707   7.017  19.793  0.00  0.00    +0.000 C 
ATOM     21  C   UNL     1       1.833   5.950  20.484  0.00  0.00    +0.000 C 
ATOM     22  C   UNL     1       1.971   4.863  19.485  0.00  0.00    +0.000 A 
ATOM     23  C   UNL     1       1.227   3.711  19.308  0.00  0.00    +0.000 A 
ATOM     24  C   UNL     1       1.516   2.910  18.200  0.00  0.00    +0.000 A 
ATOM     25  C   UNL     1       2.561   3.245  17.322  0.00  0.00    +0.000 A 
ATOM     26  C   UNL     1       3.354   4.365  17.566  0.00  0.00    +0.000 A 
ATOM     27  C   UNL     1       3.026   5.161  18.640  0.00  0.00    +0.000 A 
ATOM     28  O   UNL     1       3.669   6.328  18.955  0.00  0.00    +0.000 OA
ENDBRANCH   6  20
TORSDOF 2
ENDMDL
MODEL 3
REMARK VINA RESULT:      -6.5      0.992      1.113
REMARK  Name = 
REMARK  3 active torsions:
REMARK  status: ('A' for Active; 'I' for Inactive)
REMARK    1  A    between atoms: C_1  and  C_2
REMARK    2  A    between atoms: C_7  and  C_9
REMARK    3  A    between atoms: C_14  and  C_16
REMARK                            x       y       z     vdW  Elec       q    Type
REMARK                         _______ _______ _______ _____ _____    ______ ____
ROOT
ATOM      1  C   UNL     1       5.645   6.553  16.329  0.00  0.00    +0.000 C 
ATOM      2  C   UNL     1       5.422   5.839  14.984  0.00  0.00    +0.000 C 
ATOM      3  C   UNL     1       4.937   4.386  15.080  0.00  0.00    +0.000 C 
ATOM      4  C   UNL     1       5.594   3.591  16.208  0.00  0.00    +0.000 C 
ATOM      5  N   UNL     1       5.663   4.354  17.454  0.00  0.00    +0.000 N 
ATOM      6  C   UNL     1       5.440   3.841  18.739  0.00  0.00    +0.000 C 
ATOM      7  O   UNL     1       5.787   4.464  19.745  0.00  0.00    +0.000 OA
ATOM      8  C   UNL     1       6.327   5.651  17.347  0.00  0.00    +0.000 C 
ENDROOT
BRANCH   1  15
ATOM      9  C   UNL     1      -0.290   8.259  21.447  0.00  0.00    +0.000 C 
ATOM     10  C   UNL     1       0.873   7.841  20.606  0.00  0.00    +0.000 A 
ATOM     11  C   UNL     1       1.738   6.823  20.997  0.00  0.00    +0.000 A 
ATOM     12  C   UNL     1       2.821   6.500  20.180  0.00  0.00    +0.000 A 
ATOM     13  C   UNL     1       3.011   7.197  18.990  0.00  0.00    +0.000 A 
ATOM     14  N   UNL     1       4.130   6.843  18.229  0.00  0.00    +0.000 N 
ATOM     15  C   UNL     1       4.415   7.238  16.945  0.00  0.00    +0.000 C 
ATOM     16  O   UNL     1       3.795   8.062  16.277  0.00  0.00    +0.000 OA
ATOM     17  N   UNL     1       2.169   8.153  18.582  0.00  0.00    +0.000 NA
ATOM     18  C   UNL     1       1.135   8.467  19.396  0.00  0.00    +0.000 A 
ATOM     19  H   UNL     1       4.799   6.273  18.705  0.00  0.00    +0.000 HD
ENDBRANCH   1  15
BRANCH   6  20
ATOM     20  C   UNL     1       4.766   2.455  18.862  0.00  0.00    +0.000 C 
ATOM     21  C   UNL     1       4.517   2.026  20.323  0.00  0.00    +0.000 C 
ATOM     22  C   UNL     1       3.117   2.495  20.461  0.00  0.00    +0.000 A 
ATOM     23  C   UNL     1       2.350   2.699  21.593  0.00  0.00    +0.000 A 
ATOM     24  C   UNL     1       1.080   3.262  21.429  0.00  0.00    +0.000 A 
ATOM     25  C   UNL     1       0.587   3.565  20.149  0.00  0.00    +0.000 A 
ATOM     26  C   UNL     1       1.342   3.272  19.014  0.00  0.00    +0.000 A 
ATOM     27  C   UNL     1       2.605   2.757  19.201  0.00  0.00    +0.000 A 
ATOM     28  O   UNL     1       3.483   2.492  18.185  0.00  0.00    +0.000 OA
ENDBRANCH   6  20
TORSDOF 2
ENDMDL
MODEL 4
REMARK VINA RESULT:      -6.5      3.802      4.556
REMARK  Name = 
REMARK  3 active torsions:
REMARK  status: ('A' for Active; 'I' for Inactive)
REMARK    1  A    between atoms: C_1  and  C_2
REMARK    2  A    between atoms: C_7  and  C_9
REMARK    3  A    between atoms: C_14  and  C_16
REMARK                            x       y       z     vdW  Elec       q    Type
REMARK                         _______ _______ _______ _____ _____    ______ ____
ROOT
ATOM      1  C   UNL     1       7.758   5.816  18.311  0.00  0.00    +0.000 C 
ATOM      2  C   UNL     1       7.958   4.794  17.177  0.00  0.00    +0.000 C 
ATOM      3  C   UNL     1       6.682   4.368  16.439  0.00  0.00    +0.000 C 
ATOM      4  C   UNL     1       5.472   4.188  17.355  0.00  0.00    +0.000 C 
ATOM      5  N   UNL     1       5.348   5.274  18.327  0.00  0.00    +0.000 N 
ATOM      6  C   UNL     1       4.149   5.877  18.729  0.00  0.00    +0.000 C 
ATOM      7  O   UNL     1       4.094   6.578  19.742  0.00  0.00    +0.000 OA
ATOM      8  C   UNL     1       6.531   5.500  19.154  0.00  0.00    +0.000 C 
ENDROOT
BRANCH   1  15
ATOM      9  C   UNL     1       9.219  13.701  18.478  0.00  0.00    +0.000 C 
ATOM     10  C   UNL     1       9.047  12.219  18.573  0.00  0.00    +0.000 A 
ATOM     11  C   UNL     1       9.596  11.477  19.615  0.00  0.00    +0.000 A 
ATOM     12  C   UNL     1       9.423  10.094  19.629  0.00  0.00    +0.000 A 
ATOM     13  C   UNL     1       8.700   9.484  18.606  0.00  0.00    +0.000 A 
ATOM     14  N   UNL     1       8.586   8.092  18.665  0.00  0.00    +0.000 N 
ATOM     15  C   UNL     1       7.769   7.297  17.899  0.00  0.00    +0.000 C 
ATOM     16  O   UNL     1       7.077   7.657  16.949  0.00  0.00    +0.000 OA
ATOM     17  N   UNL     1       8.136  10.186  17.618  0.00  0.00    +0.000 NA
ATOM     18  C   UNL     1       8.330  11.525  17.608  0.00  0.00    +0.000 A 
ATOM     19  H   UNL     1       9.201   7.646  19.315  0.00  0.00    +0.000 HD
ENDBRANCH   1  15
BRANCH   6  20
ATOM     20  C   UNL     1       2.884   5.619  17.877  0.00  0.00    +0.000 C 
ATOM     21  C   UNL     1       2.878   4.234  17.199  0.00  0.00    +0.000 C 
ATOM     22  C   UNL     1       2.099   3.487  18.216  0.00  0.00    +0.000 A 
ATOM     23  C   UNL     1       1.952   2.126  18.409  0.00  0.00    +0.000 A 
ATOM     24  C   UNL     1       1.238   1.698  19.532  0.00  0.00    +0.000 A 
ATOM     25  C   UNL     1       0.652   2.626  20.409  0.00  0.00    +0.000 A 
ATOM     26  C   UNL     1       0.740   3.993  20.151  0.00  0.00    +0.000 A 
ATOM     27  C   UNL     1       1.482   4.393  19.062  0.00  0.00    +0.000 A 
ATOM     28  O   UNL     1       1.715   5.700  18.731  0.00  0.00    +0.000 OA
ENDBRANCH   6  20
TORSDOF 2
ENDMDL
MODEL 5
REMARK VINA RESULT:      -6.5      3.764      4.803
REMARK  Name = 
REMARK  3 active torsions:
REMARK  status: ('A' for Active; 'I' for Inactive)
REMARK    1  A    between atoms: C_1  and  C_2
REMARK    2  A    between atoms: C_7  and  C_9
REMARK    3  A    between atoms: C_14  and  C_16
REMARK                            x       y       z     vdW  Elec       q    Type
REMARK                         _______ _______ _______ _____ _____    ______ ____
ROOT
ATOM      1  C   UNL     1       7.255   6.178  16.944  0.00  0.00    +0.000 C 
ATOM      2  C   UNL     1       6.413   6.790  15.810  0.00  0.00    +0.000 C 
ATOM      3  C   UNL     1       4.941   7.059  16.152  0.00  0.00    +0.000 C 
ATOM      4  C   UNL     1       4.298   5.968  17.008  0.00  0.00    +0.000 C 
ATOM      5  N   UNL     1       5.170   5.540  18.103  0.00  0.00    +0.000 N 
ATOM      6  C   UNL     1       4.754   5.240  19.407  0.00  0.00    +0.000 C 
ATOM      7  O   UNL     1       5.486   4.624  20.185  0.00  0.00    +0.000 OA
ATOM      8  C   UNL     1       6.499   5.092  17.695  0.00  0.00    +0.000 C 
ENDROOT
BRANCH   1  15
ATOM      9  C   UNL     1      10.131  13.030  19.965  0.00  0.00    +0.000 C 
ATOM     10  C   UNL     1       9.539  11.841  19.279  0.00  0.00    +0.000 A 
ATOM     11  C   UNL     1       8.978  11.926  18.007  0.00  0.00    +0.000 A 
ATOM     12  C   UNL     1       8.416  10.785  17.435  0.00  0.00    +0.000 A 
ATOM     13  C   UNL     1       8.434   9.586  18.143  0.00  0.00    +0.000 A 
ATOM     14  N   UNL     1       7.831   8.486  17.524  0.00  0.00    +0.000 N 
ATOM     15  C   UNL     1       7.896   7.173  17.924  0.00  0.00    +0.000 C 
ATOM     16  O   UNL     1       8.403   6.748  18.960  0.00  0.00    +0.000 OA
ATOM     17  N   UNL     1       9.000   9.479  19.349  0.00  0.00    +0.000 NA
ATOM     18  C   UNL     1       9.522  10.599  19.899  0.00  0.00    +0.000 A 
ATOM     19  H   UNL     1       7.266   8.707  16.729  0.00  0.00    +0.000 HD
ENDBRANCH   1  15
BRANCH   6  20
ATOM     20  C   UNL     1       3.337   5.683  19.838  0.00  0.00    +0.000 C 
ATOM     21  C   UNL     1       2.310   5.644  18.688  0.00  0.00    +0.000 C 
ATOM     22  C   UNL     1       1.744   4.296  18.934  0.00  0.00    +0.000 A 
ATOM     23  C   UNL     1       0.978   3.484  18.118  0.00  0.00    +0.000 A 
ATOM     24  C   UNL     1       0.675   2.198  18.574  0.00  0.00    +0.000 A 
ATOM     25  C   UNL     1       1.100   1.765  19.842  0.00  0.00    +0.000 A 
ATOM     26  C   UNL     1       1.798   2.629  20.684  0.00  0.00    +0.000 A 
ATOM     27  C   UNL     1       2.120   3.876  20.199  0.00  0.00    +0.000 A 
ATOM     28  O   UNL     1       2.864   4.798  20.885  0.00  0.00    +0.000 OA
ENDBRANCH   6  20
TORSDOF 2
ENDMDL
MODEL 6
REMARK VINA RESULT:      -6.5      6.093     11.142
REMARK  Name = 
REMARK  3 active torsions:
REMARK  status: ('A' for Active; 'I' for Inactive)
REMARK    1  A    between atoms: C_1  and  C_2
REMARK    2  A    between atoms: C_7  and  C_9
REMARK    3  A    between atoms: C_14  and  C_16
REMARK                            x       y       z     vdW  Elec       q    Type
REMARK                         _______ _______ _______ _____ _____    ______ ____
ROOT
ATOM      1  C   UNL     1      -2.155  12.314  23.166  0.00  0.00    +0.000 C 
ATOM      2  C   UNL     1      -3.467  12.438  22.371  0.00  0.00    +0.000 C 
ATOM      3  C   UNL     1      -3.436  13.426  21.197  0.00  0.00    +0.000 C 
ATOM      4  C   UNL     1      -2.657  14.707  21.490  0.00  0.00    +0.000 C 
ATOM      5  N   UNL     1      -1.388  14.439  22.168  0.00  0.00    +0.000 N 
ATOM      6  C   UNL     1      -0.175  15.093  21.919  0.00  0.00    +0.000 C 
ATOM      7  O   UNL     1       0.768  15.015  22.710  0.00  0.00    +0.000 OA
ATOM      8  C   UNL     1      -1.501  13.667  23.404  0.00  0.00    +0.000 C 
ENDROOT
BRANCH   1  15
ATOM      9  C   UNL     1       2.270   8.034  18.025  0.00  0.00    +0.000 C 
ATOM     10  C   UNL     1       1.397   8.918  18.856  0.00  0.00    +0.000 A 
ATOM     11  C   UNL     1       0.551   9.866  18.286  0.00  0.00    +0.000 A 
ATOM     12  C   UNL     1      -0.216  10.679  19.119  0.00  0.00    +0.000 A 
ATOM     13  C   UNL     1      -0.125  10.523  20.500  0.00  0.00    +0.000 A 
ATOM     14  N   UNL     1      -0.900  11.388  21.279  0.00  0.00    +0.000 N 
ATOM     15  C   UNL     1      -1.131  11.300  22.631  0.00  0.00    +0.000 C 
ATOM     16  O   UNL     1      -0.608  10.511  23.413  0.00  0.00    +0.000 OA
ATOM     17  N   UNL     1       0.656   9.594  21.061  0.00  0.00    +0.000 NA
ATOM     18  C   UNL     1       1.408   8.827  20.241  0.00  0.00    +0.000 A 
ATOM     19  H   UNL     1      -1.286  12.167  20.786  0.00  0.00    +0.000 HD
ENDBRANCH   1  15
BRANCH   6  20
ATOM     20  C   UNL     1      -0.057  15.938  20.629  0.00  0.00    +0.000 C 
ATOM     21  C   UNL     1       1.295  16.672  20.504  0.00  0.00    +0.000 C 
ATOM     22  C   UNL     1       2.017  15.676  19.676  0.00  0.00    +0.000 A 
ATOM     23  C   UNL     1       3.368  15.538  19.420  0.00  0.00    +0.000 A 
ATOM     24  C   UNL     1       3.784  14.424  18.683  0.00  0.00    +0.000 A 
ATOM     25  C   UNL     1       2.848  13.503  18.183  0.00  0.00    +0.000 A 
ATOM     26  C   UNL     1       1.483  13.706  18.380  0.00  0.00    +0.000 A 
ATOM     27  C   UNL     1       1.100  14.787  19.142  0.00  0.00    +0.000 A 
ATOM     28  O   UNL     1      -0.197  15.067  19.478  0.00  0.00    +0.000 OA
ENDBRANCH   6  20
TORSDOF 2
ENDMDL
MODEL 7
REMARK VINA RESULT:      -6.5      3.166      4.588
REMARK  Name = 
REMARK  3 active torsions:
REMARK  status: ('A' for Active; 'I' for Inactive)
REMARK    1  A    between atoms: C_1  and  C_2
REMARK    2  A    between atoms: C_7  and  C_9
REMARK    3  A    between atoms: C_14  and  C_16
REMARK                            x       y       z     vdW  Elec       q    Type
REMARK                         _______ _______ _______ _____ _____    ______ ____
ROOT
ATOM      1  C   UNL     1       7.090   4.956  17.016  0.00  0.00    +0.000 C 
ATOM      2  C   UNL     1       6.564   4.233  15.764  0.00  0.00    +0.000 C 
ATOM      3  C   UNL     1       5.043   4.039  15.703  0.00  0.00    +0.000 C 
ATOM      4  C   UNL     1       4.414   3.680  17.049  0.00  0.00    +0.000 C 
ATOM      5  N   UNL     1       4.938   4.502  18.140  0.00  0.00    +0.000 N 
ATOM      6  C   UNL     1       4.187   5.027  19.200  0.00  0.00    +0.000 C 
ATOM      7  O   UNL     1       4.732   5.463  20.216  0.00  0.00    +0.000 OA
ATOM      8  C   UNL     1       6.391   4.484  18.283  0.00  0.00    +0.000 C 
ENDROOT
BRANCH   1  15
ATOM      9  C   UNL     1       8.910  12.566  18.782  0.00  0.00    +0.000 C 
ATOM     10  C   UNL     1       8.684  11.105  18.560  0.00  0.00    +0.000 A 
ATOM     11  C   UNL     1       9.315  10.134  19.333  0.00  0.00    +0.000 A 
ATOM     12  C   UNL     1       9.083   8.788  19.055  0.00  0.00    +0.000 A 
ATOM     13  C   UNL     1       8.222   8.442  18.016  0.00  0.00    +0.000 A 
ATOM     14  N   UNL     1       8.053   7.075  17.773  0.00  0.00    +0.000 N 
ATOM     15  C   UNL     1       7.120   6.492  16.951  0.00  0.00    +0.000 C 
ATOM     16  O   UNL     1       6.342   7.072  16.198  0.00  0.00    +0.000 OA
ATOM     17  N   UNL     1       7.581   9.362  17.288  0.00  0.00    +0.000 NA
ATOM     18  C   UNL     1       7.833  10.663  17.556  0.00  0.00    +0.000 A 
ATOM     19  H   UNL     1       8.718   6.482  18.226  0.00  0.00    +0.000 HD
ENDBRANCH   1  15
BRANCH   6  20
ATOM     20  C   UNL     1       2.646   5.023  19.071  0.00  0.00    +0.000 C 
ATOM     21  C   UNL     1       1.929   5.579  20.318  0.00  0.00    +0.000 C 
ATOM     22  C   UNL     1       1.760   6.984  19.874  0.00  0.00    +0.000 A 
ATOM     23  C   UNL     1       1.454   8.121  20.599  0.00  0.00    +0.000 A 
ATOM     24  C   UNL     1       1.469   9.348  19.929  0.00  0.00    +0.000 A 
ATOM     25  C   UNL     1       1.743   9.412  18.552  0.00  0.00    +0.000 A 
ATOM     26  C   UNL     1       1.965   8.246  17.822  0.00  0.00    +0.000 A 
ATOM     27  C   UNL     1       1.985   7.053  18.510  0.00  0.00    +0.000 A 
ATOM     28  O   UNL     1       2.264   5.842  17.937  0.00  0.00    +0.000 OA
ENDBRANCH   6  20
TORSDOF 2
ENDMDL
MODEL 8
REMARK VINA RESULT:      -6.4      8.804     10.388
REMARK  Name = 
REMARK  3 active torsions:
REMARK  status: ('A' for Active; 'I' for Inactive)
REMARK    1  A    between atoms: C_1  and  C_2
REMARK    2  A    between atoms: C_7  and  C_9
REMARK    3  A    between atoms: C_14  and  C_16
REMARK                            x       y       z     vdW  Elec       q    Type
REMARK                         _______ _______ _______ _____ _____    ______ ____
ROOT
ATOM      1  C   UNL     1       9.495  12.662  17.952  0.00  0.00    +0.000 C 
ATOM      2  C   UNL     1       9.621  11.146  18.188  0.00  0.00    +0.000 C 
ATOM      3  C   UNL     1       9.415  10.684  19.636  0.00  0.00    +0.000 C 
ATOM      4  C   UNL     1      10.033  11.619  20.675  0.00  0.00    +0.000 C 
ATOM      5  N   UNL     1       9.763  13.027  20.381  0.00  0.00    +0.000 N 
ATOM      6  C   UNL     1       9.450  14.012  21.325  0.00  0.00    +0.000 C 
ATOM      7  O   UNL     1       9.513  15.211  21.043  0.00  0.00    +0.000 OA
ATOM      8  C   UNL     1      10.174  13.468  19.050  0.00  0.00    +0.000 C 
ENDROOT
BRANCH   1  15
ATOM      9  C   UNL     1       2.736  16.909  18.736  0.00  0.00    +0.000 C 
ATOM     10  C   UNL     1       4.059  16.213  18.703  0.00  0.00    +0.000 A 
ATOM     11  C   UNL     1       5.071  16.509  19.612  0.00  0.00    +0.000 A 
ATOM     12  C   UNL     1       6.292  15.844  19.510  0.00  0.00    +0.000 A 
ATOM     13  C   UNL     1       6.471  14.894  18.507  0.00  0.00    +0.000 A 
ATOM     14  N   UNL     1       7.727  14.282  18.443  0.00  0.00    +0.000 N 
ATOM     15  C   UNL     1       8.077  13.191  17.685  0.00  0.00    +0.000 C 
ATOM     16  O   UNL     1       7.379  12.629  16.845  0.00  0.00    +0.000 OA
ATOM     17  N   UNL     1       5.497  14.573  17.649  0.00  0.00    +0.000 NA
ATOM     18  C   UNL     1       4.326  15.242  17.749  0.00  0.00    +0.000 A 
ATOM     19  H   UNL     1       8.440  14.727  18.985  0.00  0.00    +0.000 HD
ENDBRANCH   1  15
BRANCH   6  20
ATOM     20  C   UNL     1       9.043  13.556  22.746  0.00  0.00    +0.000 C 
ATOM     21  C   UNL     1       8.835  14.729  23.726  0.00  0.00    +0.000 C 
ATOM     22  C   UNL     1       7.369  14.891  23.578  0.00  0.00    +0.000 A 
ATOM     23  C   UNL     1       6.543  15.938  23.941  0.00  0.00    +0.000 A 
ATOM     24  C   UNL     1       5.196  15.867  23.573  0.00  0.00    +0.000 A 
ATOM     25  C   UNL     1       4.694  14.744  22.896  0.00  0.00    +0.000 A 
ATOM     26  C   UNL     1       5.524  13.660  22.614  0.00  0.00    +0.000 A 
ATOM     27  C   UNL     1       6.855  13.769  22.949  0.00  0.00    +0.000 A 
ATOM     28  O   UNL     1       7.798  12.818  22.666  0.00  0.00    +0.000 OA
ENDBRANCH   6  20
TORSDOF 2
ENDMDL
MODEL 9
REMARK VINA RESULT:      -6.4      7.500     10.929
REMARK  Name = 
REMARK  3 active torsions:
REMARK  status: ('A' for Active; 'I' for Inactive)
REMARK    1  A    between atoms: C_1  and  C_2
REMARK    2  A    between atoms: C_7  and  C_9
REMARK    3  A    between atoms: C_14  and  C_16
REMARK                            x       y       z     vdW  Elec       q    Type
REMARK                         _______ _______ _______ _____ _____    ______ ____
ROOT
ATOM      1  C   UNL     1       0.386  11.151  21.221  0.00  0.00    +0.000 C 
ATOM      2  C   UNL     1       0.253  10.258  22.468  0.00  0.00    +0.000 C 
ATOM      3  C   UNL     1      -1.101  10.325  23.187  0.00  0.00    +0.000 C 
ATOM      4  C   UNL     1      -1.694  11.732  23.252  0.00  0.00    +0.000 C 
ATOM      5  N   UNL     1      -1.582  12.438  21.975  0.00  0.00    +0.000 N 
ATOM      6  C   UNL     1      -2.561  13.267  21.412  0.00  0.00    +0.000 C 
ATOM      7  O   UNL     1      -2.292  14.040  20.490  0.00  0.00    +0.000 OA
ATOM      8  C   UNL     1      -0.228  12.527  21.436  0.00  0.00    +0.000 C 
ENDROOT
BRANCH   1  15
ATOM      9  C   UNL     1      -3.881  10.029  14.523  0.00  0.00    +0.000 C 
ATOM     10  C   UNL     1      -3.165  10.378  15.788  0.00  0.00    +0.000 A 
ATOM     11  C   UNL     1      -3.513  11.489  16.551  0.00  0.00    +0.000 A 
ATOM     12  C   UNL     1      -2.787  11.775  17.705  0.00  0.00    +0.000 A 
ATOM     13  C   UNL     1      -1.734  10.941  18.074  0.00  0.00    +0.000 A 
ATOM     14  N   UNL     1      -1.028  11.298  19.228  0.00  0.00    +0.000 N 
ATOM     15  C   UNL     1      -0.097  10.540  19.895  0.00  0.00    +0.000 C 
ATOM     16  O   UNL     1       0.364   9.461  19.533  0.00  0.00    +0.000 OA
ATOM     17  N   UNL     1      -1.410   9.850  17.372  0.00  0.00    +0.000 NA
ATOM     18  C   UNL     1      -2.111   9.599  16.244  0.00  0.00    +0.000 A 
ATOM     19  H   UNL     1      -1.210  12.223  19.563  0.00  0.00    +0.000 HD
ENDBRANCH   1  15
BRANCH   6  20
ATOM     20  C   UNL     1      -3.992  13.203  21.996  0.00  0.00    +0.000 C 
ATOM     21  C   UNL     1      -4.848  14.438  21.646  0.00  0.00    +0.000 C 
ATOM     22  C   UNL     1      -5.533  13.904  20.444  0.00  0.00    +0.000 A 
ATOM     23  C   UNL     1      -6.231  14.561  19.447  0.00  0.00    +0.000 A 
ATOM     24  C   UNL     1      -6.682  13.806  18.359  0.00  0.00    +0.000 A 
ATOM     25  C   UNL     1      -6.469  12.418  18.309  0.00  0.00    +0.000 A 
ATOM     26  C   UNL     1      -5.838  11.763  19.365  0.00  0.00    +0.000 A 
ATOM     27  C   UNL     1      -5.367  12.530  20.406  0.00  0.00    +0.000 A 
ATOM     28  O   UNL     1      -4.666  12.032  21.470  0.00  0.00    +0.000 OA
ENDBRANCH   6  20
TORSDOF 2
ENDMDL
