MODEL 1
REMARK VINA RESULT:      -8.1      0.000      0.000
REMARK  Name = 
REMARK  3 active torsions:
REMARK  status: ('A' for Active; 'I' for Inactive)
REMARK    1  A    between atoms: C_2  and  C_3
REMARK    2  A    between atoms: C_7  and  N_8
REMARK    3  A    between atoms: C_12  and  C_13
REMARK                            x       y       z     vdW  Elec       q    Type
REMARK                         _______ _______ _______ _____ _____    ______ ____
ROOT
ATOM      1  C   UNL     1       3.954   5.850  18.851  0.00  0.00    +0.000 A 
ATOM      2  C   UNL     1       4.193   6.336  17.565  0.00  0.00    +0.000 A 
ATOM      3  C   UNL     1       3.604   7.515  17.124  0.00  0.00    +0.000 A 
ATOM      4  C   UNL     1       2.700   8.178  17.944  0.00  0.00    +0.000 A 
ATOM      5  C   UNL     1       2.406   7.679  19.221  0.00  0.00    +0.000 A 
ATOM      6  C   UNL     1       3.023   6.502  19.671  0.00  0.00    +0.000 A 
ENDROOT
BRANCH   1   8
ATOM      7  O   UNL     1       5.765   4.657  19.722  0.00  0.00    +0.000 OA
ATOM      8  C   UNL     1       4.605   4.600  19.331  0.00  0.00    +0.000 C 
ATOM      9  N   UNL     1       3.874   3.428  19.348  0.00  0.00    +0.000 N 
ATOM     10  C   UNL     1       4.371   2.113  19.751  0.00  0.00    +0.000 C 
ATOM     11  C   UNL     1       3.452   1.506  18.680  0.00  0.00    +0.000 C 
ATOM     12  C   UNL     1       2.834   2.873  18.517  0.00  0.00    +0.000 C 
ATOM     13  C   UNL     1       1.361   2.974  18.833  0.00  0.00    +0.000 C 
ATOM     14  O   UNL     1       1.145   3.702  17.583  0.00  0.00    +0.000 OA
ATOM     15  C   UNL     1       2.474   3.301  17.118  0.00  0.00    +0.000 C 
ENDBRANCH   1   8
BRANCH   5  16
ATOM     16  N   UNL     1       1.433   8.362  20.000  0.00  0.00    +0.000 N 
ATOM     17  N   UNL     1       1.109   7.839  21.221  0.00  0.00    +0.000 NA
ATOM     18  C   UNL     1       0.406   8.793  21.825  0.00  0.00    +0.000 A 
ATOM     19  C   UNL     1       0.141   9.867  20.971  0.00  0.00    +0.000 A 
ATOM     20  C   UNL     1       0.741   9.527  19.770  0.00  0.00    +0.000 A 
BRANCH  20  21
ATOM     21  C   UNL     1       0.605  10.185  18.464  0.00  0.00    +0.000 C 
ATOM     22  F   UNL     1       0.190   9.382  17.457  0.00  0.00    +0.000 F 
ATOM     23  F   UNL     1      -0.309  11.194  18.527  0.00  0.00    +0.000 F 
ATOM     24  F   UNL     1       1.773  10.751  18.068  0.00  0.00    +0.000 F 
ENDBRANCH  20  21
ENDBRANCH   5  16
TORSDOF 3
ENDMDL
MODEL 2
REMARK VINA RESULT:      -8.0      4.441      5.920
REMARK  Name = 
REMARK  3 active torsions:
REMARK  status: ('A' for Active; 'I' for Inactive)
REMARK    1  A    between atoms: C_2  and  C_3
REMARK    2  A    between atoms: C_7  and  N_8
REMARK    3  A    between atoms: C_12  and  C_13
REMARK                            x       y       z     vdW  Elec       q    Type
REMARK                         _______ _______ _______ _____ _____    ______ ____
ROOT
ATOM      1  C   UNL     1       3.629   4.885  17.393  0.00  0.00    +0.000 A 
ATOM      2  C   UNL     1       3.839   4.134  16.236  0.00  0.00    +0.000 A 
ATOM      3  C   UNL     1       5.067   4.146  15.586  0.00  0.00    +0.000 A 
ATOM      4  C   UNL     1       6.077   4.981  16.046  0.00  0.00    +0.000 A 
ATOM      5  C   UNL     1       5.870   5.784  17.178  0.00  0.00    +0.000 A 
ATOM      6  C   UNL     1       4.637   5.748  17.845  0.00  0.00    +0.000 A 
ENDROOT
BRANCH   1   8
ATOM      7  O   UNL     1       1.594   5.836  18.037  0.00  0.00    +0.000 OA
ATOM      8  C   UNL     1       2.321   4.852  18.102  0.00  0.00    +0.000 C 
ATOM      9  N   UNL     1       1.957   3.707  18.785  0.00  0.00    +0.000 N 
ATOM     10  C   UNL     1       0.732   3.524  19.562  0.00  0.00    +0.000 C 
ATOM     11  C   UNL     1       1.546   2.647  20.525  0.00  0.00    +0.000 C 
ATOM     12  C   UNL     1       2.676   2.700  19.526  0.00  0.00    +0.000 C 
ATOM     13  C   UNL     1       3.108   1.375  18.946  0.00  0.00    +0.000 C 
ATOM     14  O   UNL     1       4.505   1.716  19.211  0.00  0.00    +0.000 OA
ATOM     15  C   UNL     1       4.073   2.814  20.077  0.00  0.00    +0.000 C 
ENDBRANCH   1   8
BRANCH   5  16
ATOM     16  N   UNL     1       6.915   6.662  17.576  0.00  0.00    +0.000 N 
ATOM     17  N   UNL     1       7.073   7.825  16.876  0.00  0.00    +0.000 NA
ATOM     18  C   UNL     1       7.911   8.553  17.608  0.00  0.00    +0.000 A 
ATOM     19  C   UNL     1       8.416   7.833  18.694  0.00  0.00    +0.000 A 
ATOM     20  C   UNL     1       7.824   6.584  18.604  0.00  0.00    +0.000 A 
BRANCH  20  21
ATOM     21  C   UNL     1       8.145   5.365  19.357  0.00  0.00    +0.000 C 
ATOM     22  F   UNL     1       9.131   5.501  20.275  0.00  0.00    +0.000 F 
ATOM     23  F   UNL     1       7.058   4.927  20.051  0.00  0.00    +0.000 F 
ATOM     24  F   UNL     1       8.506   4.351  18.530  0.00  0.00    +0.000 F 
ENDBRANCH  20  21
ENDBRANCH   5  16
TORSDOF 3
ENDMDL
MODEL 3
REMARK VINA RESULT:      -7.8      2.074      3.129
REMARK  Name = 
REMARK  3 active torsions:
REMARK  status: ('A' for Active; 'I' for Inactive)
REMARK    1  A    between atoms: C_2  and  C_3
REMARK    2  A    between atoms: C_7  and  N_8
REMARK    3  A    between atoms: C_12  and  C_13
REMARK                            x       y       z     vdW  Elec       q    Type
REMARK                         _______ _______ _______ _____ _____    ______ ____
ROOT
ATOM      1  C   UNL     1       4.566   4.906  19.391  0.00  0.00    +0.000 A 
ATOM      2  C   UNL     1       3.861   3.704  19.450  0.00  0.00    +0.000 A 
ATOM      3  C   UNL     1       2.485   3.689  19.642  0.00  0.00    +0.000 A 
ATOM      4  C   UNL     1       1.810   4.883  19.860  0.00  0.00    +0.000 A 
ATOM      5  C   UNL     1       2.507   6.100  19.856  0.00  0.00    +0.000 A 
ATOM      6  C   UNL     1       3.893   6.111  19.637  0.00  0.00    +0.000 A 
ENDROOT
BRANCH   1   8
ATOM      7  O   UNL     1       6.769   5.273  20.080  0.00  0.00    +0.000 OA
ATOM      8  C   UNL     1       6.036   4.923  19.162  0.00  0.00    +0.000 C 
ATOM      9  N   UNL     1       6.528   4.516  17.936  0.00  0.00    +0.000 N 
ATOM     10  C   UNL     1       7.935   4.509  17.536  0.00  0.00    +0.000 C 
ATOM     11  C   UNL     1       7.469   4.866  16.116  0.00  0.00    +0.000 C 
ATOM     12  C   UNL     1       6.055   4.607  16.577  0.00  0.00    +0.000 C 
ATOM     13  C   UNL     1       5.322   3.495  15.865  0.00  0.00    +0.000 C 
ATOM     14  O   UNL     1       4.164   4.370  15.695  0.00  0.00    +0.000 OA
ATOM     15  C   UNL     1       4.984   5.528  16.056  0.00  0.00    +0.000 C 
ENDBRANCH   1   8
BRANCH   5  16
ATOM     16  N   UNL     1       1.782   7.289  20.140  0.00  0.00    +0.000 N 
ATOM     17  N   UNL     1       1.110   7.360  21.327  0.00  0.00    +0.000 NA
ATOM     18  C   UNL     1       0.761   8.638  21.446  0.00  0.00    +0.000 A 
ATOM     19  C   UNL     1       1.063   9.371  20.296  0.00  0.00    +0.000 A 
ATOM     20  C   UNL     1       1.644   8.459  19.431  0.00  0.00    +0.000 A 
BRANCH  20  21
ATOM     21  C   UNL     1       1.964   8.627  18.008  0.00  0.00    +0.000 C 
ATOM     22  F   UNL     1       1.519   9.778  17.451  0.00  0.00    +0.000 F 
ATOM     23  F   UNL     1       3.313   8.627  17.814  0.00  0.00    +0.000 F 
ATOM     24  F   UNL     1       1.471   7.606  17.263  0.00  0.00    +0.000 F 
ENDBRANCH  20  21
ENDBRANCH   5  16
TORSDOF 3
ENDMDL
MODEL 4
REMARK VINA RESULT:      -7.8      3.581      7.402
REMARK  Name = 
REMARK  3 active torsions:
REMARK  status: ('A' for Active; 'I' for Inactive)
REMARK    1  A    between atoms: C_2  and  C_3
REMARK    2  A    between atoms: C_7  and  N_8
REMARK    3  A    between atoms: C_12  and  C_13
REMARK                            x       y       z     vdW  Elec       q    Type
REMARK                         _______ _______ _______ _____ _____    ______ ____
ROOT
ATOM      1  C   UNL     1       0.520   9.325  18.956  0.00  0.00    +0.000 A 
ATOM      2  C   UNL     1       0.461   9.092  20.329  0.00  0.00    +0.000 A 
ATOM      3  C   UNL     1       1.335   8.204  20.944  0.00  0.00    +0.000 A 
ATOM      4  C   UNL     1       2.227   7.474  20.171  0.00  0.00    +0.000 A 
ATOM      5  C   UNL     1       2.269   7.655  18.780  0.00  0.00    +0.000 A 
ATOM      6  C   UNL     1       1.402   8.572  18.168  0.00  0.00    +0.000 A 
ENDROOT
BRANCH   1   8
ATOM      7  O   UNL     1      -1.060   9.919  17.340  0.00  0.00    +0.000 OA
ATOM      8  C   UNL     1      -0.399  10.296  18.301  0.00  0.00    +0.000 C 
ATOM      9  N   UNL     1      -0.500  11.574  18.814  0.00  0.00    +0.000 N 
ATOM     10  C   UNL     1      -1.322  12.655  18.270  0.00  0.00    +0.000 C 
ATOM     11  C   UNL     1      -0.222  13.632  18.712  0.00  0.00    +0.000 C 
ATOM     12  C   UNL     1       0.421  12.484  19.451  0.00  0.00    +0.000 C 
ATOM     13  C   UNL     1       0.543  12.647  20.947  0.00  0.00    +0.000 C 
ATOM     14  O   UNL     1       1.941  12.224  20.877  0.00  0.00    +0.000 OA
ATOM     15  C   UNL     1       1.925  12.407  19.424  0.00  0.00    +0.000 C 
ENDBRANCH   1   8
BRANCH   5  16
ATOM     16  N   UNL     1       3.160   6.844  18.025  0.00  0.00    +0.000 N 
ATOM     17  N   UNL     1       4.263   7.441  17.483  0.00  0.00    +0.000 NA
ATOM     18  C   UNL     1       5.033   6.434  17.080  0.00  0.00    +0.000 A 
ATOM     19  C   UNL     1       4.391   5.200  17.215  0.00  0.00    +0.000 A 
ATOM     20  C   UNL     1       3.148   5.498  17.747  0.00  0.00    +0.000 A 
BRANCH  20  21
ATOM     21  C   UNL     1       1.986   4.614  17.900  0.00  0.00    +0.000 C 
ATOM     22  F   UNL     1       0.869   5.016  17.249  0.00  0.00    +0.000 F 
ATOM     23  F   UNL     1       2.261   3.370  17.418  0.00  0.00    +0.000 F 
ATOM     24  F   UNL     1       1.652   4.453  19.205  0.00  0.00    +0.000 F 
ENDBRANCH  20  21
ENDBRANCH   5  16
TORSDOF 3
ENDMDL
MODEL 5
REMARK VINA RESULT:      -7.8      4.019      6.241
REMARK  Name = 
REMARK  3 active torsions:
REMARK  status: ('A' for Active; 'I' for Inactive)
REMARK    1  A    between atoms: C_2  and  C_3
REMARK    2  A    between atoms: C_7  and  N_8
REMARK    3  A    between atoms: C_12  and  C_13
REMARK                            x       y       z     vdW  Elec       q    Type
REMARK                         _______ _______ _______ _____ _____    ______ ____
ROOT
ATOM      1  C   UNL     1       0.217  10.483  18.762  0.00  0.00    +0.000 A 
ATOM      2  C   UNL     1       0.800  11.691  19.143  0.00  0.00    +0.000 A 
ATOM      3  C   UNL     1       0.029  12.832  19.331  0.00  0.00    +0.000 A 
ATOM      4  C   UNL     1      -1.331  12.792  19.058  0.00  0.00    +0.000 A 
ATOM      5  C   UNL     1      -1.931  11.600  18.624  0.00  0.00    +0.000 A 
ATOM      6  C   UNL     1      -1.152  10.445  18.460  0.00  0.00    +0.000 A 
ENDROOT
BRANCH   1   8
ATOM      7  O   UNL     1       1.295   8.882  17.444  0.00  0.00    +0.000 OA
ATOM      8  C   UNL     1       1.040   9.256  18.583  0.00  0.00    +0.000 C 
ATOM      9  N   UNL     1       1.511   8.597  19.702  0.00  0.00    +0.000 N 
ATOM     10  C   UNL     1       2.296   7.363  19.703  0.00  0.00    +0.000 C 
ATOM     11  C   UNL     1       1.571   6.975  21.001  0.00  0.00    +0.000 C 
ATOM     12  C   UNL     1       1.003   8.373  21.033  0.00  0.00    +0.000 C 
ATOM     13  C   UNL     1       1.381   9.213  22.229  0.00  0.00    +0.000 C 
ATOM     14  O   UNL     1      -0.020   9.592  22.403  0.00  0.00    +0.000 OA
ATOM     15  C   UNL     1      -0.424   8.523  21.488  0.00  0.00    +0.000 C 
ENDBRANCH   1   8
BRANCH   5  16
ATOM     16  N   UNL     1      -3.316  11.625  18.304  0.00  0.00    +0.000 N 
ATOM     17  N   UNL     1      -4.189  12.032  19.273  0.00  0.00    +0.000 NA
ATOM     18  C   UNL     1      -5.343  12.214  18.638  0.00  0.00    +0.000 A 
ATOM     19  C   UNL     1      -5.279  11.794  17.307  0.00  0.00    +0.000 A 
ATOM     20  C   UNL     1      -3.983  11.336  17.137  0.00  0.00    +0.000 A 
BRANCH  20  21
ATOM     21  C   UNL     1      -3.420  10.591  16.004  0.00  0.00    +0.000 C 
ATOM     22  F   UNL     1      -2.305  11.131  15.458  0.00  0.00    +0.000 F 
ATOM     23  F   UNL     1      -3.065   9.332  16.386  0.00  0.00    +0.000 F 
ATOM     24  F   UNL     1      -4.325  10.446  15.004  0.00  0.00    +0.000 F 
ENDBRANCH  20  21
ENDBRANCH   5  16
TORSDOF 3
ENDMDL
MODEL 6
REMARK VINA RESULT:      -7.7      3.303      5.183
REMARK  Name = 
REMARK  3 active torsions:
REMARK  status: ('A' for Active; 'I' for Inactive)
REMARK    1  A    between atoms: C_2  and  C_3
REMARK    2  A    between atoms: C_7  and  N_8
REMARK    3  A    between atoms: C_12  and  C_13
REMARK                            x       y       z     vdW  Elec       q    Type
REMARK                         _______ _______ _______ _____ _____    ______ ____
ROOT
ATOM      1  C   UNL     1       3.948   6.692  17.542  0.00  0.00    +0.000 A 
ATOM      2  C   UNL     1       3.240   7.877  17.737  0.00  0.00    +0.000 A 
ATOM      3  C   UNL     1       2.284   7.984  18.739  0.00  0.00    +0.000 A 
ATOM      4  C   UNL     1       1.968   6.871  19.507  0.00  0.00    +0.000 A 
ATOM      5  C   UNL     1       2.631   5.654  19.293  0.00  0.00    +0.000 A 
ATOM      6  C   UNL     1       3.614   5.559  18.297  0.00  0.00    +0.000 A 
ENDROOT
BRANCH   1   8
ATOM      7  O   UNL     1       4.699   6.919  15.340  0.00  0.00    +0.000 OA
ATOM      8  C   UNL     1       4.989   6.586  16.483  0.00  0.00    +0.000 C 
ATOM      9  N   UNL     1       6.252   6.144  16.828  0.00  0.00    +0.000 N 
ATOM     10  C   UNL     1       7.372   5.946  15.908  0.00  0.00    +0.000 C 
ATOM     11  C   UNL     1       7.799   4.757  16.781  0.00  0.00    +0.000 C 
ATOM     12  C   UNL     1       6.766   5.199  17.788  0.00  0.00    +0.000 C 
ATOM     13  C   UNL     1       7.293   5.585  19.149  0.00  0.00    +0.000 C 
ATOM     14  O   UNL     1       6.264   4.759  19.780  0.00  0.00    +0.000 OA
ATOM     15  C   UNL     1       5.988   4.118  18.493  0.00  0.00    +0.000 C 
ENDBRANCH   1   8
BRANCH   5  16
ATOM     16  N   UNL     1       2.234   4.529  20.066  0.00  0.00    +0.000 N 
ATOM     17  N   UNL     1       2.603   4.494  21.381  0.00  0.00    +0.000 NA
ATOM     18  C   UNL     1       1.890   3.504  21.910  0.00  0.00    +0.000 A 
ATOM     19  C   UNL     1       1.175   2.799  20.939  0.00  0.00    +0.000 A 
ATOM     20  C   UNL     1       1.480   3.426  19.742  0.00  0.00    +0.000 A 
BRANCH  20  21
ATOM     21  C   UNL     1       1.177   2.981  18.376  0.00  0.00    +0.000 C 
ATOM     22  F   UNL     1       2.204   2.386  17.725  0.00  0.00    +0.000 F 
ATOM     23  F   UNL     1       0.168   2.065  18.380  0.00  0.00    +0.000 F 
ATOM     24  F   UNL     1       0.755   4.011  17.599  0.00  0.00    +0.000 F 
ENDBRANCH  20  21
ENDBRANCH   5  16
TORSDOF 3
ENDMDL
MODEL 7
REMARK VINA RESULT:      -7.7      6.165      9.969
REMARK  Name = 
REMARK  3 active torsions:
REMARK  status: ('A' for Active; 'I' for Inactive)
REMARK    1  A    between atoms: C_2  and  C_3
REMARK    2  A    between atoms: C_7  and  N_8
REMARK    3  A    between atoms: C_12  and  C_13
REMARK                            x       y       z     vdW  Elec       q    Type
REMARK                         _______ _______ _______ _____ _____    ______ ____
ROOT
ATOM      1  C   UNL     1      -3.142  12.901  23.641  0.00  0.00    +0.000 A 
ATOM      2  C   UNL     1      -2.543  14.160  23.603  0.00  0.00    +0.000 A 
ATOM      3  C   UNL     1      -1.302  14.347  23.006  0.00  0.00    +0.000 A 
ATOM      4  C   UNL     1      -0.608  13.251  22.512  0.00  0.00    +0.000 A 
ATOM      5  C   UNL     1      -1.169  11.966  22.587  0.00  0.00    +0.000 A 
ATOM      6  C   UNL     1      -2.433  11.788  23.167  0.00  0.00    +0.000 A 
ENDROOT
BRANCH   1   8
ATOM      7  O   UNL     1      -4.547  12.187  25.366  0.00  0.00    +0.000 OA
ATOM      8  C   UNL     1      -4.482  12.707  24.258  0.00  0.00    +0.000 C 
ATOM      9  N   UNL     1      -5.603  13.143  23.578  0.00  0.00    +0.000 N 
ATOM     10  C   UNL     1      -6.988  12.995  24.023  0.00  0.00    +0.000 C 
ATOM     11  C   UNL     1      -7.379  12.821  22.548  0.00  0.00    +0.000 C 
ATOM     12  C   UNL     1      -5.972  13.229  22.187  0.00  0.00    +0.000 C 
ATOM     13  C   UNL     1      -5.840  14.484  21.357  0.00  0.00    +0.000 C 
ATOM     14  O   UNL     1      -4.924  13.788  20.455  0.00  0.00    +0.000 OA
ATOM     15  C   UNL     1      -5.322  12.505  21.037  0.00  0.00    +0.000 C 
ENDBRANCH   1   8
BRANCH   5  16
ATOM     16  N   UNL     1      -0.395  10.869  22.118  0.00  0.00    +0.000 N 
ATOM     17  N   UNL     1       0.370  10.193  23.026  0.00  0.00    +0.000 NA
ATOM     18  C   UNL     1       0.757   9.090  22.392  0.00  0.00    +0.000 A 
ATOM     19  C   UNL     1       0.382   9.102  21.046  0.00  0.00    +0.000 A 
ATOM     20  C   UNL     1      -0.287  10.303  20.870  0.00  0.00    +0.000 A 
BRANCH  20  21
ATOM     21  C   UNL     1      -0.714  10.934  19.616  0.00  0.00    +0.000 C 
ATOM     22  F   UNL     1      -2.011  11.322  19.580  0.00  0.00    +0.000 F 
ATOM     23  F   UNL     1       0.010  12.062  19.374  0.00  0.00    +0.000 F 
ATOM     24  F   UNL     1      -0.513  10.115  18.553  0.00  0.00    +0.000 F 
ENDBRANCH  20  21
ENDBRANCH   5  16
TORSDOF 3
ENDMDL
MODEL 8
REMARK VINA RESULT:      -7.6      2.120      2.955
REMARK  Name = 
REMARK  3 active torsions:
REMARK  status: ('A' for Active; 'I' for Inactive)
REMARK    1  A    between atoms: C_2  and  C_3
REMARK    2  A    between atoms: C_7  and  N_8
REMARK    3  A    between atoms: C_12  and  C_13
REMARK                            x       y       z     vdW  Elec       q    Type
REMARK                         _______ _______ _______ _____ _____    ______ ____
ROOT
ATOM      1  C   UNL     1       4.411   5.096  18.999  0.00  0.00    +0.000 A 
ATOM      2  C   UNL     1       3.615   4.005  18.652  0.00  0.00    +0.000 A 
ATOM      3  C   UNL     1       2.228   4.099  18.656  0.00  0.00    +0.000 A 
ATOM      4  C   UNL     1       1.622   5.270  19.090  0.00  0.00    +0.000 A 
ATOM      5  C   UNL     1       2.403   6.363  19.493  0.00  0.00    +0.000 A 
ATOM      6  C   UNL     1       3.803   6.272  19.463  0.00  0.00    +0.000 A 
ENDROOT
BRANCH   1   8
ATOM      7  O   UNL     1       6.521   5.299  19.983  0.00  0.00    +0.000 OA
ATOM      8  C   UNL     1       5.896   5.003  18.971  0.00  0.00    +0.000 C 
ATOM      9  N   UNL     1       6.518   4.559  17.820  0.00  0.00    +0.000 N 
ATOM     10  C   UNL     1       7.962   4.446  17.614  0.00  0.00    +0.000 C 
ATOM     11  C   UNL     1       7.721   4.836  16.148  0.00  0.00    +0.000 C 
ATOM     12  C   UNL     1       6.243   4.683  16.410  0.00  0.00    +0.000 C 
ATOM     13  C   UNL     1       5.533   3.629  15.596  0.00  0.00    +0.000 C 
ATOM     14  O   UNL     1       4.476   4.588  15.278  0.00  0.00    +0.000 OA
ATOM     15  C   UNL     1       5.324   5.682  15.757  0.00  0.00    +0.000 C 
ENDBRANCH   1   8
BRANCH   5  16
ATOM     16  N   UNL     1       1.737   7.520  19.983  0.00  0.00    +0.000 N 
ATOM     17  N   UNL     1       1.208   7.468  21.242  0.00  0.00    +0.000 NA
ATOM     18  C   UNL     1       0.899   8.728  21.534  0.00  0.00    +0.000 A 
ATOM     19  C   UNL     1       1.078   9.577  20.439  0.00  0.00    +0.000 A 
ATOM     20  C   UNL     1       1.539   8.759  19.421  0.00  0.00    +0.000 A 
BRANCH  20  21
ATOM     21  C   UNL     1       1.694   9.075  17.996  0.00  0.00    +0.000 C 
ATOM     22  F   UNL     1       2.424   8.183  17.286  0.00  0.00    +0.000 F 
ATOM     23  F   UNL     1       0.480   9.125  17.379  0.00  0.00    +0.000 F 
ATOM     24  F   UNL     1       2.265  10.293  17.815  0.00  0.00    +0.000 F 
ENDBRANCH  20  21
ENDBRANCH   5  16
TORSDOF 3
ENDMDL
MODEL 9
REMARK VINA RESULT:      -7.6      3.620      6.665
REMARK  Name = 
REMARK  3 active torsions:
REMARK  status: ('A' for Active; 'I' for Inactive)
REMARK    1  A    between atoms: C_2  and  C_3
REMARK    2  A    between atoms: C_7  and  N_8
REMARK    3  A    between atoms: C_12  and  C_13
REMARK                            x       y       z     vdW  Elec       q    Type
REMARK                         _______ _______ _______ _____ _____    ______ ____
ROOT
ATOM      1  C   UNL     1       2.426   7.584  18.091  0.00  0.00    +0.000 A 
ATOM      2  C   UNL     1       1.510   6.536  18.173  0.00  0.00    +0.000 A 
ATOM      3  C   UNL     1       1.934   5.213  18.202  0.00  0.00    +0.000 A 
ATOM      4  C   UNL     1       3.285   4.924  18.067  0.00  0.00    +0.000 A 
ATOM      5  C   UNL     1       4.220   5.961  17.931  0.00  0.00    +0.000 A 
ATOM      6  C   UNL     1       3.788   7.296  17.928  0.00  0.00    +0.000 A 
ENDROOT
BRANCH   1   8
ATOM      7  O   UNL     1       2.368   9.739  17.188  0.00  0.00    +0.000 OA
ATOM      8  C   UNL     1       1.972   9.002  18.084  0.00  0.00    +0.000 C 
ATOM      9  N   UNL     1       1.100   9.431  19.066  0.00  0.00    +0.000 N 
ATOM     10  C   UNL     1       0.591  10.793  19.226  0.00  0.00    +0.000 C 
ATOM     11  C   UNL     1       0.621  10.561  20.744  0.00  0.00    +0.000 C 
ATOM     12  C   UNL     1       0.906   9.107  20.458  0.00  0.00    +0.000 C 
ATOM     13  C   UNL     1      -0.124   8.122  20.956  0.00  0.00    +0.000 C 
ATOM     14  O   UNL     1       0.941   7.301  21.530  0.00  0.00    +0.000 OA
ATOM     15  C   UNL     1       1.885   8.409  21.365  0.00  0.00    +0.000 C 
ENDBRANCH   1   8
BRANCH   5  16
ATOM     16  N   UNL     1       5.585   5.613  17.740  0.00  0.00    +0.000 N 
ATOM     17  N   UNL     1       6.424   5.697  18.815  0.00  0.00    +0.000 NA
ATOM     18  C   UNL     1       7.534   5.073  18.432  0.00  0.00    +0.000 A 
ATOM     19  C   UNL     1       7.491   4.713  17.083  0.00  0.00    +0.000 A 
ATOM     20  C   UNL     1       6.256   5.148  16.633  0.00  0.00    +0.000 A 
BRANCH  20  21
ATOM     21  C   UNL     1       5.762   5.222  15.253  0.00  0.00    +0.000 C 
ATOM     22  F   UNL     1       5.113   6.367  14.935  0.00  0.00    +0.000 F 
ATOM     23  F   UNL     1       6.793   5.130  14.367  0.00  0.00    +0.000 F 
ATOM     24  F   UNL     1       4.922   4.195  14.969  0.00  0.00    +0.000 F 
ENDBRANCH  20  21
ENDBRANCH   5  16
TORSDOF 3
ENDMDL
