MODEL 1
REMARK VINA RESULT:      -9.0      0.000      0.000
REMARK  Name = 
REMARK  6 active torsions:
REMARK  status: ('A' for Active; 'I' for Inactive)
REMARK    1  A    between atoms: C_1  and  C_2
REMARK    2  A    between atoms: C_5  and  C_6
REMARK    3  A    between atoms: C_11  and  C_13
REMARK    4  A    between atoms: C_13  and  C_14
REMARK    5  A    between atoms: C_14  and  C_15
REMARK    6  A    between atoms: C_29  and  C_30
REMARK                            x       y       z     vdW  Elec       q    Type
REMARK                         _______ _______ _______ _____ _____    ______ ____
ROOT
ATOM      1  C   UNL     1       1.429   6.964  20.557  0.00  0.00    +0.000 C 
ENDROOT
BRANCH   1   7
ATOM      2  C   UNL     1       3.237   3.701  19.642  0.00  0.00    +0.000 C 
ATOM      3  C   UNL     1       2.381   2.436  19.470  0.00  0.00    +0.000 C 
ATOM      4  C   UNL     1       1.271   2.619  20.494  0.00  0.00    +0.000 C 
ATOM      5  C   UNL     1       1.075   4.126  20.569  0.00  0.00    +0.000 C 
ATOM      6  N   UNL     1       2.232   4.728  19.919  0.00  0.00    +0.000 N 
ATOM      7  C   UNL     1       2.507   6.091  19.930  0.00  0.00    +0.000 C 
ATOM      8  O   UNL     1       3.496   6.599  19.407  0.00  0.00    +0.000 OA
BRANCH   2  13
ATOM      9  C   UNL     1       6.880   4.722  15.196  0.00  0.00    +0.000 C 
ATOM     10  C   UNL     1       5.970   4.411  16.351  0.00  0.00    +0.000 A 
ATOM     11  C   UNL     1       4.625   4.091  16.100  0.00  0.00    +0.000 A 
ATOM     12  C   UNL     1       3.737   3.851  17.149  0.00  0.00    +0.000 A 
ATOM     13  C   UNL     1       4.170   3.919  18.476  0.00  0.00    +0.000 A 
ATOM     14  C   UNL     1       5.522   4.217  18.725  0.00  0.00    +0.000 A 
ATOM     15  C   UNL     1       6.428   4.466  17.678  0.00  0.00    +0.000 A 
ATOM     16  C   UNL     1       7.853   4.815  18.009  0.00  0.00    +0.000 C 
ENDBRANCH   2  13
ENDBRANCH   1   7
BRANCH   1  17
ATOM     17  C   UNL     1       1.482   8.424  20.120  0.00  0.00    +0.000 C 
BRANCH  17  18
ATOM     18  C   UNL     1       0.580   9.314  20.982  0.00  0.00    +0.000 C 
ATOM     19  O   UNL     1      -0.020   8.813  21.935  0.00  0.00    +0.000 OA
ATOM     20  N   UNL     1       0.536  10.676  20.661  0.00  0.00    +0.000 N 
ATOM     21  C   UNL     1       1.080  11.217  19.407  0.00  0.00    +0.000 C 
ATOM     22  C   UNL     1       1.741  12.575  19.515  0.00  0.00    +0.000 C 
ATOM     23  O   UNL     1       2.555  12.981  18.693  0.00  0.00    +0.000 OA
ATOM     24  N   UNL     1       1.243  13.404  20.478  0.00  0.00    +0.000 N 
ATOM     25  C   UNL     1       0.266  13.005  21.393  0.00  0.00    +0.000 A 
ATOM     26  C   UNL     1      -0.275  13.980  22.236  0.00  0.00    +0.000 A 
ATOM     27  C   UNL     1      -1.241  13.634  23.173  0.00  0.00    +0.000 A 
ATOM     28  C   UNL     1      -1.654  12.312  23.275  0.00  0.00    +0.000 A 
ATOM     29  C   UNL     1      -1.097  11.326  22.451  0.00  0.00    +0.000 A 
ATOM     30  C   UNL     1      -0.119  11.652  21.497  0.00  0.00    +0.000 A 
ATOM     31  H   UNL     1       1.601  14.349  20.486  0.00  0.00    +0.000 HD
ENDBRANCH  17  18
ENDBRANCH   1  17
TORSDOF 4
ENDMDL
MODEL 2
REMARK VINA RESULT:      -8.9      1.526      1.615
REMARK  Name = 
REMARK  6 active torsions:
REMARK  status: ('A' for Active; 'I' for Inactive)
REMARK    1  A    between atoms: C_1  and  C_2
REMARK    2  A    between atoms: C_5  and  C_6
REMARK    3  A    between atoms: C_11  and  C_13
REMARK    4  A    between atoms: C_13  and  C_14
REMARK    5  A    between atoms: C_14  and  C_15
REMARK    6  A    between atoms: C_29  and  C_30
REMARK                            x       y       z     vdW  Elec       q    Type
REMARK                         _______ _______ _______ _____ _____    ______ ____
ROOT
ATOM      1  C   UNL     1       1.395   7.299  20.483  0.00  0.00    +0.000 C 
ENDROOT
BRANCH   1   7
ATOM      2  C   UNL     1       3.176   3.983  19.716  0.00  0.00    +0.000 C 
ATOM      3  C   UNL     1       2.312   2.716  19.620  0.00  0.00    +0.000 C 
ATOM      4  C   UNL     1       1.215   2.957  20.645  0.00  0.00    +0.000 C 
ATOM      5  C   UNL     1       1.028   4.467  20.645  0.00  0.00    +0.000 C 
ATOM      6  N   UNL     1       2.180   5.029  19.952  0.00  0.00    +0.000 N 
ATOM      7  C   UNL     1       2.462   6.388  19.889  0.00  0.00    +0.000 C 
ATOM      8  O   UNL     1       3.446   6.864  19.330  0.00  0.00    +0.000 OA
BRANCH   2  13
ATOM      9  C   UNL     1       6.782   4.751  15.190  0.00  0.00    +0.000 C 
ATOM     10  C   UNL     1       5.879   4.504  16.366  0.00  0.00    +0.000 A 
ATOM     11  C   UNL     1       4.513   4.261  16.144  0.00  0.00    +0.000 A 
ATOM     12  C   UNL     1       3.634   4.083  17.213  0.00  0.00    +0.000 A 
ATOM     13  C   UNL     1       4.097   4.137  18.530  0.00  0.00    +0.000 A 
ATOM     14  C   UNL     1       5.468   4.357  18.750  0.00  0.00    +0.000 A 
ATOM     15  C   UNL     1       6.366   4.543  17.682  0.00  0.00    +0.000 A 
ATOM     16  C   UNL     1       7.815   4.810  17.983  0.00  0.00    +0.000 C 
ENDBRANCH   2  13
ENDBRANCH   1   7
BRANCH   1  17
ATOM     17  C   UNL     1       1.366   8.697  19.877  0.00  0.00    +0.000 C 
BRANCH  17  18
ATOM     18  C   UNL     1       0.734   9.721  20.826  0.00  0.00    +0.000 C 
ATOM     19  O   UNL     1       1.241   9.902  21.935  0.00  0.00    +0.000 OA
ATOM     20  N   UNL     1      -0.368  10.440  20.345  0.00  0.00    +0.000 N 
ATOM     21  C   UNL     1      -1.087  10.068  19.117  0.00  0.00    +0.000 C 
ATOM     22  C   UNL     1      -1.587  11.226  18.279  0.00  0.00    +0.000 C 
ATOM     23  O   UNL     1      -1.849  11.114  17.087  0.00  0.00    +0.000 OA
ATOM     24  N   UNL     1      -1.911  12.361  18.965  0.00  0.00    +0.000 N 
ATOM     25  C   UNL     1      -1.693  12.508  20.337  0.00  0.00    +0.000 A 
ATOM     26  C   UNL     1      -2.199  13.652  20.959  0.00  0.00    +0.000 A 
ATOM     27  C   UNL     1      -1.999  13.853  22.319  0.00  0.00    +0.000 A 
ATOM     28  C   UNL     1      -1.283  12.917  23.052  0.00  0.00    +0.000 A 
ATOM     29  C   UNL     1      -0.751  11.781  22.430  0.00  0.00    +0.000 A 
ATOM     30  C   UNL     1      -0.939  11.557  21.057  0.00  0.00    +0.000 A 
ATOM     31  H   UNL     1      -2.348  13.099  18.431  0.00  0.00    +0.000 HD
ENDBRANCH  17  18
ENDBRANCH   1  17
TORSDOF 4
ENDMDL
MODEL 3
REMARK VINA RESULT:      -8.7      1.886      3.131
REMARK  Name = 
REMARK  6 active torsions:
REMARK  status: ('A' for Active; 'I' for Inactive)
REMARK    1  A    between atoms: C_1  and  C_2
REMARK    2  A    between atoms: C_5  and  C_6
REMARK    3  A    between atoms: C_11  and  C_13
REMARK    4  A    between atoms: C_13  and  C_14
REMARK    5  A    between atoms: C_14  and  C_15
REMARK    6  A    between atoms: C_29  and  C_30
REMARK                            x       y       z     vdW  Elec       q    Type
REMARK                         _______ _______ _______ _____ _____    ______ ____
ROOT
ATOM      1  C   UNL     1       1.937   6.430  18.936  0.00  0.00    +0.000 C 
ENDROOT
BRANCH   1   7
ATOM      2  C   UNL     1       4.380   3.631  17.958  0.00  0.00    +0.000 C 
ATOM      3  C   UNL     1       3.802   2.224  17.744  0.00  0.00    +0.000 C 
ATOM      4  C   UNL     1       2.672   2.148  18.759  0.00  0.00    +0.000 C 
ATOM      5  C   UNL     1       2.172   3.580  18.870  0.00  0.00    +0.000 C 
ATOM      6  N   UNL     1       3.185   4.424  18.250  0.00  0.00    +0.000 N 
ATOM      7  C   UNL     1       3.175   5.813  18.299  0.00  0.00    +0.000 C 
ATOM      8  O   UNL     1       4.041   6.527  17.800  0.00  0.00    +0.000 OA
BRANCH   2  13
ATOM      9  C   UNL     1       7.784   5.141  13.462  0.00  0.00    +0.000 C 
ATOM     10  C   UNL     1       6.870   4.791  14.603  0.00  0.00    +0.000 A 
ATOM     11  C   UNL     1       7.271   5.081  15.918  0.00  0.00    +0.000 A 
ATOM     12  C   UNL     1       6.475   4.721  17.006  0.00  0.00    +0.000 A 
ATOM     13  C   UNL     1       5.256   4.068  16.809  0.00  0.00    +0.000 A 
ATOM     14  C   UNL     1       4.845   3.800  15.491  0.00  0.00    +0.000 A 
ATOM     15  C   UNL     1       5.639   4.153  14.384  0.00  0.00    +0.000 A 
ATOM     16  C   UNL     1       5.161   3.806  13.001  0.00  0.00    +0.000 C 
ENDBRANCH   2  13
ENDBRANCH   1   7
BRANCH   1  17
ATOM     17  C   UNL     1       2.223   7.674  19.769  0.00  0.00    +0.000 C 
BRANCH  17  18
ATOM     18  C   UNL     1       1.422   8.887  19.283  0.00  0.00    +0.000 C 
ATOM     19  O   UNL     1       1.245   9.041  18.072  0.00  0.00    +0.000 OA
ATOM     20  N   UNL     1       0.885   9.730  20.263  0.00  0.00    +0.000 N 
ATOM     21  C   UNL     1       1.279   9.658  21.678  0.00  0.00    +0.000 C 
ATOM     22  C   UNL     1       0.169   9.908  22.677  0.00  0.00    +0.000 C 
ATOM     23  O   UNL     1       0.227   9.520  23.838  0.00  0.00    +0.000 OA
ATOM     24  N   UNL     1      -0.821  10.753  22.267  0.00  0.00    +0.000 N 
ATOM     25  C   UNL     1      -0.888  11.274  20.973  0.00  0.00    +0.000 A 
ATOM     26  C   UNL     1      -1.859  12.244  20.710  0.00  0.00    +0.000 A 
ATOM     27  C   UNL     1      -1.977  12.786  19.435  0.00  0.00    +0.000 A 
ATOM     28  C   UNL     1      -1.133  12.347  18.424  0.00  0.00    +0.000 A 
ATOM     29  C   UNL     1      -0.175  11.357  18.674  0.00  0.00    +0.000 A 
ATOM     30  C   UNL     1      -0.038  10.794  19.953  0.00  0.00    +0.000 A 
ATOM     31  H   UNL     1      -1.506  11.013  22.963  0.00  0.00    +0.000 HD
ENDBRANCH  17  18
ENDBRANCH   1  17
TORSDOF 4
ENDMDL
MODEL 4
REMARK VINA RESULT:      -8.6      1.298      2.163
REMARK  Name = 
REMARK  6 active torsions:
REMARK  status: ('A' for Active; 'I' for Inactive)
REMARK    1  A    between atoms: C_1  and  C_2
REMARK    2  A    between atoms: C_5  and  C_6
REMARK    3  A    between atoms: C_11  and  C_13
REMARK    4  A    between atoms: C_13  and  C_14
REMARK    5  A    between atoms: C_14  and  C_15
REMARK    6  A    between atoms: C_29  and  C_30
REMARK                            x       y       z     vdW  Elec       q    Type
REMARK                         _______ _______ _______ _____ _____    ______ ____
ROOT
ATOM      1  C   UNL     1       2.094   6.768  18.790  0.00  0.00    +0.000 C 
ENDROOT
BRANCH   1   7
ATOM      2  C   UNL     1       4.482   3.882  17.940  0.00  0.00    +0.000 C 
ATOM      3  C   UNL     1       3.883   2.472  17.820  0.00  0.00    +0.000 C 
ATOM      4  C   UNL     1       2.770   2.473  18.856  0.00  0.00    +0.000 C 
ATOM      5  C   UNL     1       2.290   3.916  18.890  0.00  0.00    +0.000 C 
ATOM      6  N   UNL     1       3.303   4.707  18.204  0.00  0.00    +0.000 N 
ATOM      7  C   UNL     1       3.312   6.097  18.170  0.00  0.00    +0.000 C 
ATOM      8  O   UNL     1       4.179   6.767  17.616  0.00  0.00    +0.000 OA
BRANCH   2  13
ATOM      9  C   UNL     1       7.821   5.075  13.301  0.00  0.00    +0.000 C 
ATOM     10  C   UNL     1       6.925   4.807  14.479  0.00  0.00    +0.000 A 
ATOM     11  C   UNL     1       7.374   5.129  15.770  0.00  0.00    +0.000 A 
ATOM     12  C   UNL     1       6.594   4.845  16.893  0.00  0.00    +0.000 A 
ATOM     13  C   UNL     1       5.344   4.238  16.753  0.00  0.00    +0.000 A 
ATOM     14  C   UNL     1       4.886   3.937  15.457  0.00  0.00    +0.000 A 
ATOM     15  C   UNL     1       5.663   4.214  14.317  0.00  0.00    +0.000 A 
ATOM     16  C   UNL     1       5.134   3.836  12.961  0.00  0.00    +0.000 C 
ENDBRANCH   2  13
ENDBRANCH   1   7
BRANCH   1  17
ATOM     17  C   UNL     1       2.228   8.279  18.941  0.00  0.00    +0.000 C 
BRANCH  17  18
ATOM     18  C   UNL     1       1.300   8.832  20.028  0.00  0.00    +0.000 C 
ATOM     19  O   UNL     1       0.992   8.108  20.977  0.00  0.00    +0.000 OA
ATOM     20  N   UNL     1       0.896  10.167  19.902  0.00  0.00    +0.000 N 
ATOM     21  C   UNL     1       1.093  10.945  18.670  0.00  0.00    +0.000 C 
ATOM     22  C   UNL     1       1.437  12.406  18.870  0.00  0.00    +0.000 C 
ATOM     23  O   UNL     1       1.993  13.078  18.009  0.00  0.00    +0.000 OA
ATOM     24  N   UNL     1       0.926  12.989  19.994  0.00  0.00    +0.000 N 
ATOM     25  C   UNL     1       0.227  12.275  20.969  0.00  0.00    +0.000 A 
ATOM     26  C   UNL     1      -0.378  12.999  22.000  0.00  0.00    +0.000 A 
ATOM     27  C   UNL     1      -1.075  12.336  23.003  0.00  0.00    +0.000 A 
ATOM     28  C   UNL     1      -1.156  10.951  22.981  0.00  0.00    +0.000 A 
ATOM     29  C   UNL     1      -0.530  10.217  21.965  0.00  0.00    +0.000 A 
ATOM     30  C   UNL     1       0.181  10.864  20.942  0.00  0.00    +0.000 A 
ATOM     31  H   UNL     1       1.056  13.987  20.081  0.00  0.00    +0.000 HD
ENDBRANCH  17  18
ENDBRANCH   1  17
TORSDOF 4
ENDMDL
MODEL 5
REMARK VINA RESULT:      -8.6      2.319      9.327
REMARK  Name = 
REMARK  6 active torsions:
REMARK  status: ('A' for Active; 'I' for Inactive)
REMARK    1  A    between atoms: C_1  and  C_2
REMARK    2  A    between atoms: C_5  and  C_6
REMARK    3  A    between atoms: C_11  and  C_13
REMARK    4  A    between atoms: C_13  and  C_14
REMARK    5  A    between atoms: C_14  and  C_15
REMARK    6  A    between atoms: C_29  and  C_30
REMARK                            x       y       z     vdW  Elec       q    Type
REMARK                         _______ _______ _______ _____ _____    ______ ____
ROOT
ATOM      1  C   UNL     1       1.044   9.061  17.811  0.00  0.00    +0.000 C 
ENDROOT
BRANCH   1   7
ATOM      2  C   UNL     1      -1.524  11.877  18.287  0.00  0.00    +0.000 C 
ATOM      3  C   UNL     1      -3.001  11.548  18.019  0.00  0.00    +0.000 C 
ATOM      4  C   UNL     1      -2.937  10.542  16.881  0.00  0.00    +0.000 C 
ATOM      5  C   UNL     1      -1.628   9.801  17.108  0.00  0.00    +0.000 C 
ATOM      6  N   UNL     1      -0.867  10.588  18.070  0.00  0.00    +0.000 N 
ATOM      7  C   UNL     1       0.455  10.331  18.411  0.00  0.00    +0.000 C 
ATOM      8  O   UNL     1       1.108  11.007  19.201  0.00  0.00    +0.000 OA
BRANCH   2  13
ATOM      9  C   UNL     1      -0.942  14.520  23.461  0.00  0.00    +0.000 C 
ATOM     10  C   UNL     1      -1.056  13.799  22.146  0.00  0.00    +0.000 A 
ATOM     11  C   UNL     1      -0.526  14.393  20.989  0.00  0.00    +0.000 A 
ATOM     12  C   UNL     1      -0.662  13.781  19.742  0.00  0.00    +0.000 A 
ATOM     13  C   UNL     1      -1.325  12.558  19.619  0.00  0.00    +0.000 A 
ATOM     14  C   UNL     1      -1.835  11.953  20.783  0.00  0.00    +0.000 A 
ATOM     15  C   UNL     1      -1.709  12.560  22.046  0.00  0.00    +0.000 A 
ATOM     16  C   UNL     1      -2.307  11.881  23.247  0.00  0.00    +0.000 C 
ENDBRANCH   2  13
ENDBRANCH   1   7
BRANCH   1  17
ATOM     17  C   UNL     1       2.389   8.659  18.405  0.00  0.00    +0.000 C 
BRANCH  17  18
ATOM     18  C   UNL     1       2.266   7.454  19.343  0.00  0.00    +0.000 C 
ATOM     19  O   UNL     1       1.482   7.513  20.293  0.00  0.00    +0.000 OA
ATOM     20  N   UNL     1       3.024   6.320  19.027  0.00  0.00    +0.000 N 
ATOM     21  C   UNL     1       4.103   6.338  18.028  0.00  0.00    +0.000 C 
ATOM     22  C   UNL     1       4.234   5.084  17.189  0.00  0.00    +0.000 C 
ATOM     23  O   UNL     1       4.795   5.075  16.099  0.00  0.00    +0.000 OA
ATOM     24  N   UNL     1       3.858   3.920  17.794  0.00  0.00    +0.000 N 
ATOM     25  C   UNL     1       3.276   3.878  19.063  0.00  0.00    +0.000 A 
ATOM     26  C   UNL     1       3.070   2.624  19.644  0.00  0.00    +0.000 A 
ATOM     27  C   UNL     1       2.483   2.524  20.900  0.00  0.00    +0.000 A 
ATOM     28  C   UNL     1       2.093   3.677  21.567  0.00  0.00    +0.000 A 
ATOM     29  C   UNL     1       2.274   4.936  20.980  0.00  0.00    +0.000 A 
ATOM     30  C   UNL     1       2.863   5.061  19.712  0.00  0.00    +0.000 A 
ATOM     31  H   UNL     1       4.044   3.068  17.284  0.00  0.00    +0.000 HD
ENDBRANCH  17  18
ENDBRANCH   1  17
TORSDOF 4
ENDMDL
MODEL 6
REMARK VINA RESULT:      -8.5      1.876      2.619
REMARK  Name = 
REMARK  6 active torsions:
REMARK  status: ('A' for Active; 'I' for Inactive)
REMARK    1  A    between atoms: C_1  and  C_2
REMARK    2  A    between atoms: C_5  and  C_6
REMARK    3  A    between atoms: C_11  and  C_13
REMARK    4  A    between atoms: C_13  and  C_14
REMARK    5  A    between atoms: C_14  and  C_15
REMARK    6  A    between atoms: C_29  and  C_30
REMARK                            x       y       z     vdW  Elec       q    Type
REMARK                         _______ _______ _______ _____ _____    ______ ____
ROOT
ATOM      1  C   UNL     1       1.821   7.057  18.194  0.00  0.00    +0.000 C 
ENDROOT
BRANCH   1   7
ATOM      2  C   UNL     1       4.375   4.218  17.772  0.00  0.00    +0.000 C 
ATOM      3  C   UNL     1       3.841   2.778  17.745  0.00  0.00    +0.000 C 
ATOM      4  C   UNL     1       2.660   2.821  18.702  0.00  0.00    +0.000 C 
ATOM      5  C   UNL     1       2.122   4.237  18.571  0.00  0.00    +0.000 C 
ATOM      6  N   UNL     1       3.148   5.009  17.882  0.00  0.00    +0.000 N 
ATOM      7  C   UNL     1       3.105   6.389  17.720  0.00  0.00    +0.000 C 
ATOM      8  O   UNL     1       3.981   7.046  17.164  0.00  0.00    +0.000 OA
BRANCH   2  13
ATOM      9  C   UNL     1       7.981   5.141  13.275  0.00  0.00    +0.000 C 
ATOM     10  C   UNL     1       7.015   4.939  14.409  0.00  0.00    +0.000 A 
ATOM     11  C   UNL     1       7.342   5.428  15.685  0.00  0.00    +0.000 A 
ATOM     12  C   UNL     1       6.497   5.211  16.774  0.00  0.00    +0.000 A 
ATOM     13  C   UNL     1       5.301   4.505  16.616  0.00  0.00    +0.000 A 
ATOM     14  C   UNL     1       4.965   4.036  15.334  0.00  0.00    +0.000 A 
ATOM     15  C   UNL     1       5.809   4.243  14.227  0.00  0.00    +0.000 A 
ATOM     16  C   UNL     1       5.411   3.685  12.888  0.00  0.00    +0.000 C 
ENDBRANCH   2  13
ENDBRANCH   1   7
BRANCH   1  17
ATOM     17  C   UNL     1       1.984   8.530  18.552  0.00  0.00    +0.000 C 
BRANCH  17  18
ATOM     18  C   UNL     1       1.266   8.886  19.857  0.00  0.00    +0.000 C 
ATOM     19  O   UNL     1       1.687   8.420  20.918  0.00  0.00    +0.000 OA
ATOM     20  N   UNL     1       0.191   9.779  19.770  0.00  0.00    +0.000 N 
ATOM     21  C   UNL     1      -0.429  10.156  18.491  0.00  0.00    +0.000 C 
ATOM     22  C   UNL     1      -0.886  11.596  18.388  0.00  0.00    +0.000 C 
ATOM     23  O   UNL     1      -1.057  12.159  17.313  0.00  0.00    +0.000 OA
ATOM     24  N   UNL     1      -1.279  12.181  19.557  0.00  0.00    +0.000 N 
ATOM     25  C   UNL     1      -1.165  11.550  20.798  0.00  0.00    +0.000 A 
ATOM     26  C   UNL     1      -1.736  12.182  21.906  0.00  0.00    +0.000 A 
ATOM     27  C   UNL     1      -1.640  11.604  23.166  0.00  0.00    +0.000 A 
ATOM     28  C   UNL     1      -0.964  10.401  23.318  0.00  0.00    +0.000 A 
ATOM     29  C   UNL     1      -0.368   9.775  22.216  0.00  0.00    +0.000 A 
ATOM     30  C   UNL     1      -0.450  10.341  20.934  0.00  0.00    +0.000 A 
ATOM     31  H   UNL     1      -1.688  13.102  19.483  0.00  0.00    +0.000 HD
ENDBRANCH  17  18
ENDBRANCH   1  17
TORSDOF 4
ENDMDL
MODEL 7
REMARK VINA RESULT:      -8.4      2.272      8.941
REMARK  Name = 
REMARK  6 active torsions:
REMARK  status: ('A' for Active; 'I' for Inactive)
REMARK    1  A    between atoms: C_1  and  C_2
REMARK    2  A    between atoms: C_5  and  C_6
REMARK    3  A    between atoms: C_11  and  C_13
REMARK    4  A    between atoms: C_13  and  C_14
REMARK    5  A    between atoms: C_14  and  C_15
REMARK    6  A    between atoms: C_29  and  C_30
REMARK                            x       y       z     vdW  Elec       q    Type
REMARK                         _______ _______ _______ _____ _____    ______ ____
ROOT
ATOM      1  C   UNL     1       1.554   9.182  17.834  0.00  0.00    +0.000 C 
ENDROOT
BRANCH   1   7
ATOM      2  C   UNL     1       0.522  12.522  19.426  0.00  0.00    +0.000 C 
ATOM      3  C   UNL     1      -0.314  12.469  20.714  0.00  0.00    +0.000 C 
ATOM      4  C   UNL     1      -1.179  11.232  20.523  0.00  0.00    +0.000 C 
ATOM      5  C   UNL     1      -0.319  10.300  19.684  0.00  0.00    +0.000 C 
ATOM      6  N   UNL     1       0.772  11.106  19.151  0.00  0.00    +0.000 N 
ATOM      7  C   UNL     1       1.679  10.655  18.200  0.00  0.00    +0.000 C 
ATOM      8  O   UNL     1       2.583  11.341  17.729  0.00  0.00    +0.000 OA
BRANCH   2  13
ATOM      9  C   UNL     1       5.202  15.995  19.774  0.00  0.00    +0.000 C 
ATOM     10  C   UNL     1       3.964  15.146  19.692  0.00  0.00    +0.000 A 
ATOM     11  C   UNL     1       3.693  14.225  20.718  0.00  0.00    +0.000 A 
ATOM     12  C   UNL     1       2.583  13.381  20.649  0.00  0.00    +0.000 A 
ATOM     13  C   UNL     1       1.713  13.438  19.557  0.00  0.00    +0.000 A 
ATOM     14  C   UNL     1       1.974  14.376  18.543  0.00  0.00    +0.000 A 
ATOM     15  C   UNL     1       3.090  15.231  18.596  0.00  0.00    +0.000 A 
ATOM     16  C   UNL     1       3.335  16.188  17.462  0.00  0.00    +0.000 C 
ENDBRANCH   2  13
ENDBRANCH   1   7
BRANCH   1  17
ATOM     17  C   UNL     1       2.804   8.361  18.132  0.00  0.00    +0.000 C 
BRANCH  17  18
ATOM     18  C   UNL     1       2.525   7.232  19.130  0.00  0.00    +0.000 C 
ATOM     19  O   UNL     1       1.753   7.440  20.067  0.00  0.00    +0.000 OA
ATOM     20  N   UNL     1       3.133   5.996  18.879  0.00  0.00    +0.000 N 
ATOM     21  C   UNL     1       4.209   5.823  17.892  0.00  0.00    +0.000 C 
ATOM     22  C   UNL     1       4.181   4.521  17.119  0.00  0.00    +0.000 C 
ATOM     23  O   UNL     1       4.739   4.384  16.037  0.00  0.00    +0.000 OA
ATOM     24  N   UNL     1       3.657   3.448  17.780  0.00  0.00    +0.000 N 
ATOM     25  C   UNL     1       3.072   3.546  19.044  0.00  0.00    +0.000 A 
ATOM     26  C   UNL     1       2.705   2.361  19.687  0.00  0.00    +0.000 A 
ATOM     27  C   UNL     1       2.107   2.403  20.941  0.00  0.00    +0.000 A 
ATOM     28  C   UNL     1       1.866   3.630  21.544  0.00  0.00    +0.000 A 
ATOM     29  C   UNL     1       2.208   4.822  20.894  0.00  0.00    +0.000 A 
ATOM     30  C   UNL     1       2.811   4.805  19.627  0.00  0.00    +0.000 A 
ATOM     31  H   UNL     1       3.734   2.554  17.316  0.00  0.00    +0.000 HD
ENDBRANCH  17  18
ENDBRANCH   1  17
TORSDOF 4
ENDMDL
MODEL 8
REMARK VINA RESULT:      -8.4      1.225      1.314
REMARK  Name = 
REMARK  6 active torsions:
REMARK  status: ('A' for Active; 'I' for Inactive)
REMARK    1  A    between atoms: C_1  and  C_2
REMARK    2  A    between atoms: C_5  and  C_6
REMARK    3  A    between atoms: C_11  and  C_13
REMARK    4  A    between atoms: C_13  and  C_14
REMARK    5  A    between atoms: C_14  and  C_15
REMARK    6  A    between atoms: C_29  and  C_30
REMARK                            x       y       z     vdW  Elec       q    Type
REMARK                         _______ _______ _______ _____ _____    ______ ____
ROOT
ATOM      1  C   UNL     1       1.171   6.898  20.552  0.00  0.00    +0.000 C 
ENDROOT
BRANCH   1   7
ATOM      2  C   UNL     1       3.208   3.744  19.744  0.00  0.00    +0.000 C 
ATOM      3  C   UNL     1       2.444   2.419  19.603  0.00  0.00    +0.000 C 
ATOM      4  C   UNL     1       1.315   2.553  20.613  0.00  0.00    +0.000 C 
ATOM      5  C   UNL     1       1.015   4.044  20.643  0.00  0.00    +0.000 C 
ATOM      6  N   UNL     1       2.133   4.707  19.984  0.00  0.00    +0.000 N 
ATOM      7  C   UNL     1       2.313   6.085  19.957  0.00  0.00    +0.000 C 
ATOM      8  O   UNL     1       3.268   6.645  19.427  0.00  0.00    +0.000 OA
BRANCH   2  13
ATOM      9  C   UNL     1       6.818   4.888  15.300  0.00  0.00    +0.000 C 
ATOM     10  C   UNL     1       5.918   4.546  16.455  0.00  0.00    +0.000 A 
ATOM     11  C   UNL     1       4.587   4.177  16.203  0.00  0.00    +0.000 A 
ATOM     12  C   UNL     1       3.706   3.907  17.252  0.00  0.00    +0.000 A 
ATOM     13  C   UNL     1       4.135   3.994  18.579  0.00  0.00    +0.000 A 
ATOM     14  C   UNL     1       5.474   4.342  18.828  0.00  0.00    +0.000 A 
ATOM     15  C   UNL     1       6.372   4.621  17.782  0.00  0.00    +0.000 A 
ATOM     16  C   UNL     1       7.783   5.022  18.115  0.00  0.00    +0.000 C 
ENDBRANCH   2  13
ENDBRANCH   1   7
BRANCH   1  17
ATOM     17  C   UNL     1       1.628   8.093  21.382  0.00  0.00    +0.000 C 
BRANCH  17  18
ATOM     18  C   UNL     1       0.570   9.202  21.422  0.00  0.00    +0.000 C 
ATOM     19  O   UNL     1      -0.122   9.331  22.434  0.00  0.00    +0.000 OA
ATOM     20  N   UNL     1       0.492  10.048  20.310  0.00  0.00    +0.000 N 
ATOM     21  C   UNL     1       1.167   9.755  19.037  0.00  0.00    +0.000 C 
ATOM     22  C   UNL     1       1.729  10.956  18.305  0.00  0.00    +0.000 C 
ATOM     23  O   UNL     1       2.621  10.862  17.470  0.00  0.00    +0.000 OA
ATOM     24  N   UNL     1       1.061  12.131  18.490  0.00  0.00    +0.000 N 
ATOM     25  C   UNL     1      -0.005  12.268  19.382  0.00  0.00    +0.000 A 
ATOM     26  C   UNL     1      -0.708  13.475  19.379  0.00  0.00    +0.000 A 
ATOM     27  C   UNL     1      -1.769  13.667  20.256  0.00  0.00    +0.000 A 
ATOM     28  C   UNL     1      -2.117  12.657  21.142  0.00  0.00    +0.000 A 
ATOM     29  C   UNL     1      -1.400  11.455  21.169  0.00  0.00    +0.000 A 
ATOM     30  C   UNL     1      -0.323  11.238  20.293  0.00  0.00    +0.000 A 
ATOM     31  H   UNL     1       1.360  12.912  17.923  0.00  0.00    +0.000 HD
ENDBRANCH  17  18
ENDBRANCH   1  17
TORSDOF 4
ENDMDL
MODEL 9
REMARK VINA RESULT:      -8.4      2.808      9.516
REMARK  Name = 
REMARK  6 active torsions:
REMARK  status: ('A' for Active; 'I' for Inactive)
REMARK    1  A    between atoms: C_1  and  C_2
REMARK    2  A    between atoms: C_5  and  C_6
REMARK    3  A    between atoms: C_11  and  C_13
REMARK    4  A    between atoms: C_13  and  C_14
REMARK    5  A    between atoms: C_14  and  C_15
REMARK    6  A    between atoms: C_29  and  C_30
REMARK                            x       y       z     vdW  Elec       q    Type
REMARK                         _______ _______ _______ _____ _____    ______ ____
ROOT
ATOM      1  C   UNL     1       1.381   9.480  21.102  0.00  0.00    +0.000 C 
ENDROOT
BRANCH   1   7
ATOM      2  C   UNL     1      -0.419  12.549  19.654  0.00  0.00    +0.000 C 
ATOM      3  C   UNL     1       0.325  13.379  18.597  0.00  0.00    +0.000 C 
ATOM      4  C   UNL     1       1.779  13.284  19.032  0.00  0.00    +0.000 C 
ATOM      5  C   UNL     1       1.885  11.916  19.688  0.00  0.00    +0.000 C 
ATOM      6  N   UNL     1       0.520  11.460  19.922  0.00  0.00    +0.000 N 
ATOM      7  C   UNL     1       0.195  10.326  20.656  0.00  0.00    +0.000 C 
ATOM      8  O   UNL     1      -0.954   9.953  20.878  0.00  0.00    +0.000 OA
BRANCH   2  13
ATOM      9  C   UNL     1      -5.798  11.247  17.794  0.00  0.00    +0.000 C 
ATOM     10  C   UNL     1      -4.404  11.527  18.282  0.00  0.00    +0.000 A 
ATOM     11  C   UNL     1      -4.226  12.221  19.491  0.00  0.00    +0.000 A 
ATOM     12  C   UNL     1      -2.949  12.549  19.948  0.00  0.00    +0.000 A 
ATOM     13  C   UNL     1      -1.816  12.187  19.214  0.00  0.00    +0.000 A 
ATOM     14  C   UNL     1      -1.996  11.472  18.016  0.00  0.00    +0.000 A 
ATOM     15  C   UNL     1      -3.277  11.138  17.540  0.00  0.00    +0.000 A 
ATOM     16  C   UNL     1      -3.405  10.404  16.234  0.00  0.00    +0.000 C 
ENDBRANCH   2  13
ENDBRANCH   1   7
BRANCH   1  17
ATOM     17  C   UNL     1       1.178   7.981  20.916  0.00  0.00    +0.000 C 
BRANCH  17  18
ATOM     18  C   UNL     1       2.008   7.429  19.753  0.00  0.00    +0.000 C 
ATOM     19  O   UNL     1       2.460   8.212  18.915  0.00  0.00    +0.000 OA
ATOM     20  N   UNL     1       2.254   6.050  19.743  0.00  0.00    +0.000 N 
ATOM     21  C   UNL     1       1.540   5.108  20.618  0.00  0.00    +0.000 C 
ATOM     22  C   UNL     1       2.367   3.956  21.148  0.00  0.00    +0.000 C 
ATOM     23  O   UNL     1       2.056   3.327  22.153  0.00  0.00    +0.000 OA
ATOM     24  N   UNL     1       3.381   3.531  20.340  0.00  0.00    +0.000 N 
ATOM     25  C   UNL     1       3.727   4.176  19.151  0.00  0.00    +0.000 A 
ATOM     26  C   UNL     1       4.681   3.567  18.331  0.00  0.00    +0.000 A 
ATOM     27  C   UNL     1       5.070   4.174  17.143  0.00  0.00    +0.000 A 
ATOM     28  C   UNL     1       4.514   5.394  16.782  0.00  0.00    +0.000 A 
ATOM     29  C   UNL     1       3.576   6.022  17.611  0.00  0.00    +0.000 A 
ATOM     30  C   UNL     1       3.168   5.429  18.817  0.00  0.00    +0.000 A 
ATOM     31  H   UNL     1       3.868   2.695  20.632  0.00  0.00    +0.000 HD
ENDBRANCH  17  18
ENDBRANCH   1  17
TORSDOF 4
ENDMDL
