MODEL 1
REMARK VINA RESULT:      -8.7      0.000      0.000
REMARK  Name = 
REMARK  5 active torsions:
REMARK  status: ('A' for Active; 'I' for Inactive)
REMARK    1  A    between atoms: C_2  and  C_12
REMARK    2  A    between atoms: C_7  and  C_8
REMARK    3  A    between atoms: C_16  and  S_17
REMARK    4  A    between atoms: S_17  and  N_20
REMARK    5  A    between atoms: N_20  and  C_21
REMARK                            x       y       z     vdW  Elec       q    Type
REMARK                         _______ _______ _______ _____ _____    ______ ____
ROOT
ATOM      1  C   UNL     1       2.074   5.576  20.163  0.00  0.00    +0.000 A 
ATOM      2  C   UNL     1       1.071   4.881  20.864  0.00  0.00    +0.000 A 
ATOM      3  C   UNL     1       1.155   3.500  21.069  0.00  0.00    +0.000 A 
ATOM      4  C   UNL     1       2.242   2.788  20.566  0.00  0.00    +0.000 A 
ATOM      5  C   UNL     1       3.246   3.472  19.875  0.00  0.00    +0.000 A 
ATOM      6  C   UNL     1       3.174   4.860  19.677  0.00  0.00    +0.000 A 
ENDROOT
BRANCH   1   8
ATOM      7  O   UNL     1       2.261   7.546  18.926  0.00  0.00    +0.000 OA
ATOM      8  C   UNL     1       1.904   7.057  19.993  0.00  0.00    +0.000 C 
ATOM      9  N   UNL     1       1.389   7.750  21.068  0.00  0.00    +0.000 N 
ATOM     10  C   UNL     1       1.135   9.102  21.111  0.00  0.00    +0.000 A 
ATOM     11  N   UNL     1       0.780   9.713  22.221  0.00  0.00    +0.000 NA
ATOM     12  N   UNL     1       0.610  11.074  22.036  0.00  0.00    +0.000 NA
ATOM     13  C   UNL     1       0.822  11.422  20.785  0.00  0.00    +0.000 A 
ATOM     14  S   UNL     1       1.210  10.120  19.746  0.00  0.00    +0.000 S 
ATOM     15  H   UNL     1       1.261   7.309  21.966  0.00  0.00    +0.000 HD
BRANCH  13  16
ATOM     16  C   UNL     1       0.744  12.862  20.285  0.00  0.00    +0.000 C 
ATOM     17  C   UNL     1      -0.536  13.317  19.610  0.00  0.00    +0.000 C 
ATOM     18  C   UNL     1       0.694  13.120  18.792  0.00  0.00    +0.000 C 
ENDBRANCH  13  16
ENDBRANCH   1   8
BRANCH   5  19
ATOM     19  S   UNL     1       4.584   2.562  19.127  0.00  0.00    +0.000 S 
ATOM     20  O   UNL     1       5.234   1.811  20.179  0.00  0.00    +0.000 OA
ATOM     21  O   UNL     1       4.065   1.908  17.946  0.00  0.00    +0.000 OA
BRANCH  19  22
ATOM     22  N   UNL     1       5.659   3.757  18.675  0.00  0.00    +0.000 N 
ATOM     23  H   UNL     1       6.515   3.830  19.220  0.00  0.00    +0.000 HD
BRANCH  22  24
ATOM     24  C   UNL     1       5.541   4.425  17.434  0.00  0.00    +0.000 A 
ATOM     25  C   UNL     1       5.210   5.781  17.443  0.00  0.00    +0.000 A 
ATOM     26  C   UNL     1       5.140   6.491  16.245  0.00  0.00    +0.000 A 
ATOM     27  C   UNL     1       5.421   5.845  15.042  0.00  0.00    +0.000 A 
ATOM     28  C   UNL     1       5.763   4.492  15.042  0.00  0.00    +0.000 A 
ATOM     29 CL   UNL     1       6.137   3.716  13.553  0.00  0.00    +0.000 Cl
ATOM     30  C   UNL     1       5.822   3.771  16.236  0.00  0.00    +0.000 A 
ENDBRANCH  22  24
ENDBRANCH  19  22
ENDBRANCH   5  19
TORSDOF 5
ENDMDL
MODEL 2
REMARK VINA RESULT:      -8.7      1.632      1.839
REMARK  Name = 
REMARK  5 active torsions:
REMARK  status: ('A' for Active; 'I' for Inactive)
REMARK    1  A    between atoms: C_2  and  C_12
REMARK    2  A    between atoms: C_7  and  C_8
REMARK    3  A    between atoms: C_16  and  S_17
REMARK    4  A    between atoms: S_17  and  N_20
REMARK    5  A    between atoms: N_20  and  C_21
REMARK                            x       y       z     vdW  Elec       q    Type
REMARK                         _______ _______ _______ _____ _____    ______ ____
ROOT
ATOM      1  C   UNL     1       2.213   5.973  19.942  0.00  0.00    +0.000 A 
ATOM      2  C   UNL     1       2.146   5.437  21.241  0.00  0.00    +0.000 A 
ATOM      3  C   UNL     1       2.411   4.085  21.482  0.00  0.00    +0.000 A 
ATOM      4  C   UNL     1       2.739   3.242  20.422  0.00  0.00    +0.000 A 
ATOM      5  C   UNL     1       2.816   3.768  19.129  0.00  0.00    +0.000 A 
ATOM      6  C   UNL     1       2.563   5.127  18.882  0.00  0.00    +0.000 A 
ENDROOT
BRANCH   1   8
ATOM      7  O   UNL     1       2.130   7.931  18.674  0.00  0.00    +0.000 OA
ATOM      8  C   UNL     1       1.918   7.434  19.776  0.00  0.00    +0.000 C 
ATOM      9  N   UNL     1       1.461   8.105  20.890  0.00  0.00    +0.000 N 
ATOM     10  C   UNL     1       1.112   9.435  20.946  0.00  0.00    +0.000 A 
ATOM     11  N   UNL     1       0.823  10.037  22.080  0.00  0.00    +0.000 NA
ATOM     12  N   UNL     1       0.534  11.379  21.900  0.00  0.00    +0.000 NA
ATOM     13  C   UNL     1       0.595  11.720  20.631  0.00  0.00    +0.000 A 
ATOM     14  S   UNL     1       0.976  10.434  19.572  0.00  0.00    +0.000 S 
ATOM     15  H   UNL     1       1.455   7.671  21.801  0.00  0.00    +0.000 HD
BRANCH  13  16
ATOM     16  C   UNL     1       0.360  13.143  20.128  0.00  0.00    +0.000 C 
ATOM     17  C   UNL     1      -1.045  13.532  19.713  0.00  0.00    +0.000 C 
ATOM     18  C   UNL     1       0.005  13.357  18.671  0.00  0.00    +0.000 C 
ENDBRANCH  13  16
ENDBRANCH   1   8
BRANCH   5  19
ATOM     19  S   UNL     1       3.122   2.684  17.748  0.00  0.00    +0.000 S 
ATOM     20  O   UNL     1       2.971   1.327  18.225  0.00  0.00    +0.000 OA
ATOM     21  O   UNL     1       2.355   3.176  16.624  0.00  0.00    +0.000 OA
BRANCH  19  22
ATOM     22  N   UNL     1       4.751   2.893  17.445  0.00  0.00    +0.000 N 
ATOM     23  H   UNL     1       5.279   2.058  17.198  0.00  0.00    +0.000 HD
BRANCH  22  24
ATOM     24  C   UNL     1       5.304   4.178  17.241  0.00  0.00    +0.000 A 
ATOM     25  C   UNL     1       4.757   4.982  16.240  0.00  0.00    +0.000 A 
ATOM     26  C   UNL     1       5.235   6.276  16.043  0.00  0.00    +0.000 A 
ATOM     27  C   UNL     1       6.249   6.770  16.863  0.00  0.00    +0.000 A 
ATOM     28  C   UNL     1       6.784   5.964  17.870  0.00  0.00    +0.000 A 
ATOM     29 CL   UNL     1       8.012   6.597  18.894  0.00  0.00    +0.000 Cl
ATOM     30  C   UNL     1       6.319   4.663  18.064  0.00  0.00    +0.000 A 
ENDBRANCH  22  24
ENDBRANCH  19  22
ENDBRANCH   5  19
TORSDOF 5
ENDMDL
MODEL 3
REMARK VINA RESULT:      -8.6      2.712      3.500
REMARK  Name = 
REMARK  5 active torsions:
REMARK  status: ('A' for Active; 'I' for Inactive)
REMARK    1  A    between atoms: C_2  and  C_12
REMARK    2  A    between atoms: C_7  and  C_8
REMARK    3  A    between atoms: C_16  and  S_17
REMARK    4  A    between atoms: S_17  and  N_20
REMARK    5  A    between atoms: N_20  and  C_21
REMARK                            x       y       z     vdW  Elec       q    Type
REMARK                         _______ _______ _______ _____ _____    ______ ____
ROOT
ATOM      1  C   UNL     1       2.675   6.724  19.136  0.00  0.00    +0.000 A 
ATOM      2  C   UNL     1       2.475   5.372  19.473  0.00  0.00    +0.000 A 
ATOM      3  C   UNL     1       3.253   4.360  18.902  0.00  0.00    +0.000 A 
ATOM      4  C   UNL     1       4.241   4.684  17.974  0.00  0.00    +0.000 A 
ATOM      5  C   UNL     1       4.450   6.025  17.639  0.00  0.00    +0.000 A 
ATOM      6  C   UNL     1       3.681   7.047  18.218  0.00  0.00    +0.000 A 
ENDROOT
BRANCH   1   8
ATOM      7  O   UNL     1       1.459   7.526  20.960  0.00  0.00    +0.000 OA
ATOM      8  C   UNL     1       1.797   7.743  19.800  0.00  0.00    +0.000 C 
ATOM      9  N   UNL     1       1.417   8.826  19.037  0.00  0.00    +0.000 N 
ATOM     10  C   UNL     1       0.638   9.879  19.460  0.00  0.00    +0.000 A 
ATOM     11  N   UNL     1       0.198  10.803  18.632  0.00  0.00    +0.000 NA
ATOM     12  N   UNL     1      -0.592  11.743  19.271  0.00  0.00    +0.000 NA
ATOM     13  C   UNL     1      -0.690  11.497  20.559  0.00  0.00    +0.000 A 
ATOM     14  S   UNL     1       0.192  10.130  21.086  0.00  0.00    +0.000 S 
ATOM     15  H   UNL     1       1.604   8.865  18.047  0.00  0.00    +0.000 HD
BRANCH  13  16
ATOM     16  C   UNL     1      -1.525  12.342  21.518  0.00  0.00    +0.000 C 
ATOM     17  C   UNL     1      -0.820  13.006  22.685  0.00  0.00    +0.000 C 
ATOM     18  C   UNL     1      -1.730  11.854  22.938  0.00  0.00    +0.000 C 
ENDBRANCH  13  16
ENDBRANCH   1   8
BRANCH   5  19
ATOM     19  S   UNL     1       5.629   6.447  16.370  0.00  0.00    +0.000 S 
ATOM     20  O   UNL     1       4.886   6.997  15.259  0.00  0.00    +0.000 OA
ATOM     21  O   UNL     1       6.704   7.186  16.997  0.00  0.00    +0.000 OA
BRANCH  19  22
ATOM     22  N   UNL     1       6.198   4.961  15.861  0.00  0.00    +0.000 N 
ATOM     23  H   UNL     1       6.111   4.190  16.521  0.00  0.00    +0.000 HD
BRANCH  22  24
ATOM     24  C   UNL     1       6.498   4.712  14.503  0.00  0.00    +0.000 A 
ATOM     25  C   UNL     1       7.545   5.424  13.916  0.00  0.00    +0.000 A 
ATOM     26  C   UNL     1       7.910   5.168  12.595  0.00  0.00    +0.000 A 
ATOM     27  C   UNL     1       7.239   4.183  11.870  0.00  0.00    +0.000 A 
ATOM     28  C   UNL     1       6.201   3.467  12.469  0.00  0.00    +0.000 A 
ATOM     29 CL   UNL     1       5.402   2.233  11.574  0.00  0.00    +0.000 Cl
ATOM     30  C   UNL     1       5.821   3.727  13.786  0.00  0.00    +0.000 A 
ENDBRANCH  22  24
ENDBRANCH  19  22
ENDBRANCH   5  19
TORSDOF 5
ENDMDL
MODEL 4
REMARK VINA RESULT:      -8.6      2.348      3.025
REMARK  Name = 
REMARK  5 active torsions:
REMARK  status: ('A' for Active; 'I' for Inactive)
REMARK    1  A    between atoms: C_2  and  C_12
REMARK    2  A    between atoms: C_7  and  C_8
REMARK    3  A    between atoms: C_16  and  S_17
REMARK    4  A    between atoms: S_17  and  N_20
REMARK    5  A    between atoms: N_20  and  C_21
REMARK                            x       y       z     vdW  Elec       q    Type
REMARK                         _______ _______ _______ _____ _____    ______ ____
ROOT
ATOM      1  C   UNL     1       2.946   6.512  19.212  0.00  0.00    +0.000 A 
ATOM      2  C   UNL     1       2.653   5.292  19.848  0.00  0.00    +0.000 A 
ATOM      3  C   UNL     1       3.406   4.142  19.593  0.00  0.00    +0.000 A 
ATOM      4  C   UNL     1       4.464   4.193  18.687  0.00  0.00    +0.000 A 
ATOM      5  C   UNL     1       4.767   5.403  18.058  0.00  0.00    +0.000 A 
ATOM      6  C   UNL     1       4.022   6.564  18.319  0.00  0.00    +0.000 A 
ENDROOT
BRANCH   1   8
ATOM      7  O   UNL     1       1.694   8.390  18.617  0.00  0.00    +0.000 OA
ATOM      8  C   UNL     1       2.088   7.696  19.549  0.00  0.00    +0.000 C 
ATOM      9  N   UNL     1       1.840   7.923  20.886  0.00  0.00    +0.000 N 
ATOM     10  C   UNL     1       1.064   8.934  21.404  0.00  0.00    +0.000 A 
ATOM     11  N   UNL     1       0.993   9.172  22.697  0.00  0.00    +0.000 NA
ATOM     12  N   UNL     1       0.180  10.255  22.984  0.00  0.00    +0.000 NA
ATOM     13  C   UNL     1      -0.345  10.768  21.893  0.00  0.00    +0.000 A 
ATOM     14  S   UNL     1       0.087   9.956  20.452  0.00  0.00    +0.000 S 
ATOM     15  H   UNL     1       2.320   7.404  21.606  0.00  0.00    +0.000 HD
BRANCH  13  16
ATOM     16  C   UNL     1      -1.256  11.994  21.891  0.00  0.00    +0.000 C 
ATOM     17  C   UNL     1      -0.609  13.365  21.885  0.00  0.00    +0.000 C 
ATOM     18  C   UNL     1      -1.293  12.883  23.117  0.00  0.00    +0.000 C 
ENDBRANCH  13  16
ENDBRANCH   1   8
BRANCH   5  19
ATOM     19  S   UNL     1       6.042   5.458  16.812  0.00  0.00    +0.000 S 
ATOM     20  O   UNL     1       6.534   6.817  16.762  0.00  0.00    +0.000 OA
ATOM     21  O   UNL     1       6.934   4.343  17.045  0.00  0.00    +0.000 OA
BRANCH  19  22
ATOM     22  N   UNL     1       5.203   5.213  15.389  0.00  0.00    +0.000 N 
ATOM     23  H   UNL     1       4.262   5.600  15.342  0.00  0.00    +0.000 HD
BRANCH  22  24
ATOM     24  C   UNL     1       5.854   4.770  14.215  0.00  0.00    +0.000 A 
ATOM     25  C   UNL     1       7.075   5.354  13.877  0.00  0.00    +0.000 A 
ATOM     26  C   UNL     1       7.778   4.907  12.759  0.00  0.00    +0.000 A 
ATOM     27  C   UNL     1       7.266   3.861  11.993  0.00  0.00    +0.000 A 
ATOM     28  C   UNL     1       6.049   3.273  12.345  0.00  0.00    +0.000 A 
ATOM     29 CL   UNL     1       5.443   1.963  11.409  0.00  0.00    +0.000 Cl
ATOM     30  C   UNL     1       5.333   3.725  13.454  0.00  0.00    +0.000 A 
ENDBRANCH  22  24
ENDBRANCH  19  22
ENDBRANCH   5  19
TORSDOF 5
ENDMDL
MODEL 5
REMARK VINA RESULT:      -8.5      6.059      7.216
REMARK  Name = 
REMARK  5 active torsions:
REMARK  status: ('A' for Active; 'I' for Inactive)
REMARK    1  A    between atoms: C_2  and  C_12
REMARK    2  A    between atoms: C_7  and  C_8
REMARK    3  A    between atoms: C_16  and  S_17
REMARK    4  A    between atoms: S_17  and  N_20
REMARK    5  A    between atoms: N_20  and  C_21
REMARK                            x       y       z     vdW  Elec       q    Type
REMARK                         _______ _______ _______ _____ _____    ______ ____
ROOT
ATOM      1  C   UNL     1       8.045   7.735  18.190  0.00  0.00    +0.000 A 
ATOM      2  C   UNL     1       8.387   6.928  19.290  0.00  0.00    +0.000 A 
ATOM      3  C   UNL     1       8.084   5.563  19.310  0.00  0.00    +0.000 A 
ATOM      4  C   UNL     1       7.422   4.983  18.229  0.00  0.00    +0.000 A 
ATOM      5  C   UNL     1       7.086   5.777  17.129  0.00  0.00    +0.000 A 
ATOM      6  C   UNL     1       7.399   7.145  17.097  0.00  0.00    +0.000 A 
ENDROOT
BRANCH   1   8
ATOM      7  O   UNL     1       7.954   9.924  17.383  0.00  0.00    +0.000 OA
ATOM      8  C   UNL     1       8.413   9.189  18.252  0.00  0.00    +0.000 C 
ATOM      9  N   UNL     1       9.264   9.570  19.266  0.00  0.00    +0.000 N 
ATOM     10  C   UNL     1       9.704  10.851  19.514  0.00  0.00    +0.000 A 
ATOM     11  N   UNL     1      10.630  11.113  20.411  0.00  0.00    +0.000 NA
ATOM     12  N   UNL     1      10.938  12.461  20.465  0.00  0.00    +0.000 NA
ATOM     13  C   UNL     1      10.209  13.157  19.620  0.00  0.00    +0.000 A 
ATOM     14  S   UNL     1       9.084  12.230  18.727  0.00  0.00    +0.000 S 
ATOM     15  H   UNL     1       9.724   8.890  19.853  0.00  0.00    +0.000 HD
BRANCH  13  16
ATOM     16  C   UNL     1      10.350  14.666  19.428  0.00  0.00    +0.000 C 
ATOM     17  C   UNL     1      11.416  15.169  18.474  0.00  0.00    +0.000 C 
ATOM     18  C   UNL     1      11.596  15.358  19.941  0.00  0.00    +0.000 C 
ENDBRANCH  13  16
ENDBRANCH   1   8
BRANCH   5  19
ATOM     19  S   UNL     1       6.140   5.078  15.789  0.00  0.00    +0.000 S 
ATOM     20  O   UNL     1       6.566   5.734  14.574  0.00  0.00    +0.000 OA
ATOM     21  O   UNL     1       6.185   3.637  15.923  0.00  0.00    +0.000 OA
BRANCH  19  22
ATOM     22  N   UNL     1       4.587   5.615  16.091  0.00  0.00    +0.000 N 
ATOM     23  H   UNL     1       4.083   6.014  15.301  0.00  0.00    +0.000 HD
BRANCH  22  24
ATOM     24  C   UNL     1       3.902   5.266  17.277  0.00  0.00    +0.000 A 
ATOM     25  C   UNL     1       3.853   6.201  18.311  0.00  0.00    +0.000 A 
ATOM     26  C   UNL     1       3.140   5.919  19.475  0.00  0.00    +0.000 A 
ATOM     27  C   UNL     1       2.459   4.708  19.593  0.00  0.00    +0.000 A 
ATOM     28  C   UNL     1       2.503   3.783  18.548  0.00  0.00    +0.000 A 
ATOM     29 CL   UNL     1       1.633   2.305  18.694  0.00  0.00    +0.000 Cl
ATOM     30  C   UNL     1       3.226   4.052  17.386  0.00  0.00    +0.000 A 
ENDBRANCH  22  24
ENDBRANCH  19  22
ENDBRANCH   5  19
TORSDOF 5
ENDMDL
MODEL 6
REMARK VINA RESULT:      -8.5      6.054      7.242
REMARK  Name = 
REMARK  5 active torsions:
REMARK  status: ('A' for Active; 'I' for Inactive)
REMARK    1  A    between atoms: C_2  and  C_12
REMARK    2  A    between atoms: C_7  and  C_8
REMARK    3  A    between atoms: C_16  and  S_17
REMARK    4  A    between atoms: S_17  and  N_20
REMARK    5  A    between atoms: N_20  and  C_21
REMARK                            x       y       z     vdW  Elec       q    Type
REMARK                         _______ _______ _______ _____ _____    ______ ____
ROOT
ATOM      1  C   UNL     1       7.937   7.737  18.107  0.00  0.00    +0.000 A 
ATOM      2  C   UNL     1       8.318   6.881  19.157  0.00  0.00    +0.000 A 
ATOM      3  C   UNL     1       7.987   5.523  19.141  0.00  0.00    +0.000 A 
ATOM      4  C   UNL     1       7.260   4.998  18.074  0.00  0.00    +0.000 A 
ATOM      5  C   UNL     1       6.885   5.839  17.023  0.00  0.00    +0.000 A 
ATOM      6  C   UNL     1       7.225   7.202  17.027  0.00  0.00    +0.000 A 
ENDROOT
BRANCH   1   8
ATOM      7  O   UNL     1       7.919   9.941  17.339  0.00  0.00    +0.000 OA
ATOM      8  C   UNL     1       8.338   9.179  18.205  0.00  0.00    +0.000 C 
ATOM      9  N   UNL     1       9.173   9.522  19.247  0.00  0.00    +0.000 N 
ATOM     10  C   UNL     1       9.637  10.787  19.529  0.00  0.00    +0.000 A 
ATOM     11  N   UNL     1      10.546  11.010  20.454  0.00  0.00    +0.000 NA
ATOM     12  N   UNL     1      10.884  12.349  20.540  0.00  0.00    +0.000 NA
ATOM     13  C   UNL     1      10.194  13.078  19.690  0.00  0.00    +0.000 A 
ATOM     14  S   UNL     1       9.070  12.195  18.753  0.00  0.00    +0.000 S 
ATOM     15  H   UNL     1       9.601   8.820  19.832  0.00  0.00    +0.000 HD
BRANCH  13  16
ATOM     16  C   UNL     1      10.375  14.586  19.530  0.00  0.00    +0.000 C 
ATOM     17  C   UNL     1      10.880  15.108  18.198  0.00  0.00    +0.000 C 
ATOM     18  C   UNL     1      11.776  15.146  19.388  0.00  0.00    +0.000 C 
ENDBRANCH  13  16
ENDBRANCH   1   8
BRANCH   5  19
ATOM     19  S   UNL     1       5.858   5.211  15.709  0.00  0.00    +0.000 S 
ATOM     20  O   UNL     1       5.385   6.349  14.952  0.00  0.00    +0.000 OA
ATOM     21  O   UNL     1       6.574   4.128  15.070  0.00  0.00    +0.000 OA
BRANCH  19  22
ATOM     22  N   UNL     1       4.529   4.601  16.514  0.00  0.00    +0.000 N 
ATOM     23  H   UNL     1       4.330   3.611  16.380  0.00  0.00    +0.000 HD
BRANCH  22  24
ATOM     24  C   UNL     1       3.899   5.323  17.554  0.00  0.00    +0.000 A 
ATOM     25  C   UNL     1       3.584   6.664  17.329  0.00  0.00    +0.000 A 
ATOM     26  C   UNL     1       2.912   7.397  18.306  0.00  0.00    +0.000 A 
ATOM     27  C   UNL     1       2.539   6.780  19.499  0.00  0.00    +0.000 A 
ATOM     28  C   UNL     1       2.848   5.435  19.712  0.00  0.00    +0.000 A 
ATOM     29 CL   UNL     1       2.355   4.678  21.176  0.00  0.00    +0.000 Cl
ATOM     30  C   UNL     1       3.532   4.699  18.744  0.00  0.00    +0.000 A 
ENDBRANCH  22  24
ENDBRANCH  19  22
ENDBRANCH   5  19
TORSDOF 5
ENDMDL
MODEL 7
REMARK VINA RESULT:      -8.5      2.435      3.150
REMARK  Name = 
REMARK  5 active torsions:
REMARK  status: ('A' for Active; 'I' for Inactive)
REMARK    1  A    between atoms: C_2  and  C_12
REMARK    2  A    between atoms: C_7  and  C_8
REMARK    3  A    between atoms: C_16  and  S_17
REMARK    4  A    between atoms: S_17  and  N_20
REMARK    5  A    between atoms: N_20  and  C_21
REMARK                            x       y       z     vdW  Elec       q    Type
REMARK                         _______ _______ _______ _____ _____    ______ ____
ROOT
ATOM      1  C   UNL     1       2.777   6.695  18.336  0.00  0.00    +0.000 A 
ATOM      2  C   UNL     1       1.992   5.544  18.141  0.00  0.00    +0.000 A 
ATOM      3  C   UNL     1       2.552   4.358  17.655  0.00  0.00    +0.000 A 
ATOM      4  C   UNL     1       3.910   4.308  17.346  0.00  0.00    +0.000 A 
ATOM      5  C   UNL     1       4.698   5.444  17.545  0.00  0.00    +0.000 A 
ATOM      6  C   UNL     1       4.145   6.634  18.044  0.00  0.00    +0.000 A 
ENDROOT
BRANCH   1   8
ATOM      7  O   UNL     1       1.858   8.824  18.067  0.00  0.00    +0.000 OA
ATOM      8  C   UNL     1       2.094   7.922  18.865  0.00  0.00    +0.000 C 
ATOM      9  N   UNL     1       1.817   7.944  20.215  0.00  0.00    +0.000 N 
ATOM     10  C   UNL     1       1.178   8.958  20.892  0.00  0.00    +0.000 A 
ATOM     11  N   UNL     1       1.080   8.971  22.205  0.00  0.00    +0.000 NA
ATOM     12  N   UNL     1       0.428  10.101  22.668  0.00  0.00    +0.000 NA
ATOM     13  C   UNL     1       0.043  10.877  21.678  0.00  0.00    +0.000 A 
ATOM     14  S   UNL     1       0.418  10.275  20.122  0.00  0.00    +0.000 S 
ATOM     15  H   UNL     1       2.174   7.236  20.839  0.00  0.00    +0.000 HD
BRANCH  13  16
ATOM     16  C   UNL     1      -0.668  12.213  21.881  0.00  0.00    +0.000 C 
ATOM     17  C   UNL     1      -1.468  12.411  23.154  0.00  0.00    +0.000 C 
ATOM     18  C   UNL     1      -2.183  12.249  21.856  0.00  0.00    +0.000 C 
ENDBRANCH  13  16
ENDBRANCH   1   8
BRANCH   5  19
ATOM     19  S   UNL     1       6.410   5.432  17.049  0.00  0.00    +0.000 S 
ATOM     20  O   UNL     1       6.617   6.576  16.189  0.00  0.00    +0.000 OA
ATOM     21  O   UNL     1       7.212   5.229  18.237  0.00  0.00    +0.000 OA
BRANCH  19  22
ATOM     22  N   UNL     1       6.519   4.085  16.067  0.00  0.00    +0.000 N 
ATOM     23  H   UNL     1       6.316   3.187  16.502  0.00  0.00    +0.000 HD
BRANCH  22  24
ATOM     24  C   UNL     1       6.585   4.201  14.660  0.00  0.00    +0.000 A 
ATOM     25  C   UNL     1       7.654   4.904  14.104  0.00  0.00    +0.000 A 
ATOM     26  C   UNL     1       7.788   4.993  12.719  0.00  0.00    +0.000 A 
ATOM     27  C   UNL     1       6.860   4.360  11.893  0.00  0.00    +0.000 A 
ATOM     28  C   UNL     1       5.799   3.649  12.456  0.00  0.00    +0.000 A 
ATOM     29 CL   UNL     1       4.679   2.846  11.426  0.00  0.00    +0.000 Cl
ATOM     30  C   UNL     1       5.651   3.566  13.842  0.00  0.00    +0.000 A 
ENDBRANCH  22  24
ENDBRANCH  19  22
ENDBRANCH   5  19
TORSDOF 5
ENDMDL
MODEL 8
REMARK VINA RESULT:      -8.5      5.927      7.090
REMARK  Name = 
REMARK  5 active torsions:
REMARK  status: ('A' for Active; 'I' for Inactive)
REMARK    1  A    between atoms: C_2  and  C_12
REMARK    2  A    between atoms: C_7  and  C_8
REMARK    3  A    between atoms: C_16  and  S_17
REMARK    4  A    between atoms: S_17  and  N_20
REMARK    5  A    between atoms: N_20  and  C_21
REMARK                            x       y       z     vdW  Elec       q    Type
REMARK                         _______ _______ _______ _____ _____    ______ ____
ROOT
ATOM      1  C   UNL     1       8.063   7.901  18.136  0.00  0.00    +0.000 A 
ATOM      2  C   UNL     1       8.425   7.065  19.209  0.00  0.00    +0.000 A 
ATOM      3  C   UNL     1       8.130   5.698  19.194  0.00  0.00    +0.000 A 
ATOM      4  C   UNL     1       7.457   5.145  18.107  0.00  0.00    +0.000 A 
ATOM      5  C   UNL     1       7.101   5.967  17.034  0.00  0.00    +0.000 A 
ATOM      6  C   UNL     1       7.405   7.337  17.037  0.00  0.00    +0.000 A 
ENDROOT
BRANCH   1   8
ATOM      7  O   UNL     1       7.972  10.105  17.375  0.00  0.00    +0.000 OA
ATOM      8  C   UNL     1       8.423   9.354  18.234  0.00  0.00    +0.000 C 
ATOM      9  N   UNL     1       9.259   9.718  19.267  0.00  0.00    +0.000 N 
ATOM     10  C   UNL     1       9.690  10.995  19.547  0.00  0.00    +0.000 A 
ATOM     11  N   UNL     1      10.603  11.242  20.462  0.00  0.00    +0.000 NA
ATOM     12  N   UNL     1      10.904  12.590  20.549  0.00  0.00    +0.000 NA
ATOM     13  C   UNL     1      10.183  13.301  19.709  0.00  0.00    +0.000 A 
ATOM     14  S   UNL     1       9.074  12.388  18.783  0.00  0.00    +0.000 S 
ATOM     15  H   UNL     1       9.715   9.027  19.845  0.00  0.00    +0.000 HD
BRANCH  13  16
ATOM     16  C   UNL     1      10.319  14.814  19.551  0.00  0.00    +0.000 C 
ATOM     17  C   UNL     1       9.218  15.693  20.113  0.00  0.00    +0.000 C 
ATOM     18  C   UNL     1       9.357  15.546  18.637  0.00  0.00    +0.000 C 
ENDBRANCH  13  16
ENDBRANCH   1   8
BRANCH   5  19
ATOM     19  S   UNL     1       6.139   5.300  15.689  0.00  0.00    +0.000 S 
ATOM     20  O   UNL     1       5.181   6.311  15.302  0.00  0.00    +0.000 OA
ATOM     21  O   UNL     1       7.061   4.730  14.730  0.00  0.00    +0.000 OA
BRANCH  19  22
ATOM     22  N   UNL     1       5.261   4.077  16.411  0.00  0.00    +0.000 N 
ATOM     23  H   UNL     1       5.740   3.188  16.541  0.00  0.00    +0.000 HD
BRANCH  22  24
ATOM     24  C   UNL     1       4.041   4.337  17.077  0.00  0.00    +0.000 A 
ATOM     25  C   UNL     1       3.024   3.387  16.988  0.00  0.00    +0.000 A 
ATOM     26  C   UNL     1       1.827   3.578  17.676  0.00  0.00    +0.000 A 
ATOM     27  C   UNL     1       1.658   4.712  18.468  0.00  0.00    +0.000 A 
ATOM     28  C   UNL     1       2.685   5.653  18.562  0.00  0.00    +0.000 A 
ATOM     29 CL   UNL     1       2.477   7.033  19.568  0.00  0.00    +0.000 Cl
ATOM     30  C   UNL     1       3.881   5.475  17.865  0.00  0.00    +0.000 A 
ENDBRANCH  22  24
ENDBRANCH  19  22
ENDBRANCH   5  19
TORSDOF 5
ENDMDL
MODEL 9
REMARK VINA RESULT:      -8.4      3.640      8.996
REMARK  Name = 
REMARK  5 active torsions:
REMARK  status: ('A' for Active; 'I' for Inactive)
REMARK    1  A    between atoms: C_2  and  C_12
REMARK    2  A    between atoms: C_7  and  C_8
REMARK    3  A    between atoms: C_16  and  S_17
REMARK    4  A    between atoms: S_17  and  N_20
REMARK    5  A    between atoms: N_20  and  C_21
REMARK                            x       y       z     vdW  Elec       q    Type
REMARK                         _______ _______ _______ _____ _____    ______ ____
ROOT
ATOM      1  C   UNL     1       0.933   9.159  20.611  0.00  0.00    +0.000 A 
ATOM      2  C   UNL     1       0.210   8.515  21.632  0.00  0.00    +0.000 A 
ATOM      3  C   UNL     1      -0.528   9.246  22.568  0.00  0.00    +0.000 A 
ATOM      4  C   UNL     1      -0.547  10.637  22.505  0.00  0.00    +0.000 A 
ATOM      5  C   UNL     1       0.163  11.284  21.490  0.00  0.00    +0.000 A 
ATOM      6  C   UNL     1       0.896  10.556  20.538  0.00  0.00    +0.000 A 
ENDROOT
BRANCH   1   8
ATOM      7  O   UNL     1       1.762   8.678  18.483  0.00  0.00    +0.000 OA
ATOM      8  C   UNL     1       1.694   8.296  19.647  0.00  0.00    +0.000 C 
ATOM      9  N   UNL     1       2.226   7.128  20.147  0.00  0.00    +0.000 N 
ATOM     10  C   UNL     1       2.973   6.212  19.440  0.00  0.00    +0.000 A 
ATOM     11  N   UNL     1       3.323   5.050  19.949  0.00  0.00    +0.000 NA
ATOM     12  N   UNL     1       4.040   4.281  19.050  0.00  0.00    +0.000 NA
ATOM     13  C   UNL     1       4.219   4.912  17.909  0.00  0.00    +0.000 A 
ATOM     14  S   UNL     1       3.557   6.488  17.863  0.00  0.00    +0.000 S 
ATOM     15  H   UNL     1       2.002   6.801  21.075  0.00  0.00    +0.000 HD
BRANCH  13  16
ATOM     16  C   UNL     1       4.943   4.301  16.712  0.00  0.00    +0.000 C 
ATOM     17  C   UNL     1       6.439   4.520  16.593  0.00  0.00    +0.000 C 
ATOM     18  C   UNL     1       5.518   5.221  15.654  0.00  0.00    +0.000 C 
ENDBRANCH  13  16
ENDBRANCH   1   8
BRANCH   5  19
ATOM     19  S   UNL     1       0.244  13.065  21.461  0.00  0.00    +0.000 S 
ATOM     20  O   UNL     1      -0.696  13.554  22.446  0.00  0.00    +0.000 OA
ATOM     21  O   UNL     1       1.641  13.443  21.502  0.00  0.00    +0.000 OA
BRANCH  19  22
ATOM     22  N   UNL     1      -0.395  13.458  19.970  0.00  0.00    +0.000 N 
ATOM     23  H   UNL     1       0.177  14.050  19.371  0.00  0.00    +0.000 HD
BRANCH  22  24
ATOM     24  C   UNL     1      -1.513  12.771  19.441  0.00  0.00    +0.000 A 
ATOM     25  C   UNL     1      -2.728  12.867  20.120  0.00  0.00    +0.000 A 
ATOM     26  C   UNL     1      -3.868  12.253  19.603  0.00  0.00    +0.000 A 
ATOM     27  C   UNL     1      -3.792  11.560  18.396  0.00  0.00    +0.000 A 
ATOM     28  C   UNL     1      -2.575  11.478  17.717  0.00  0.00    +0.000 A 
ATOM     29 CL   UNL     1      -2.502  10.646  16.212  0.00  0.00    +0.000 Cl
ATOM     30  C   UNL     1      -1.427  12.079  18.235  0.00  0.00    +0.000 A 
ENDBRANCH  22  24
ENDBRANCH  19  22
ENDBRANCH   5  19
TORSDOF 5
ENDMDL
