MODEL 1
REMARK VINA RESULT:      -8.6      0.000      0.000
REMARK  Name = 
REMARK  4 active torsions:
REMARK  status: ('A' for Active; 'I' for Inactive)
REMARK    1  A    between atoms: C_2  and  C_14
REMARK    2  A    between atoms: N_3  and  C_4
REMARK    3  A    between atoms: C_4  and  C_5
REMARK    4  A    between atoms: N_18  and  C_19
REMARK                            x       y       z     vdW  Elec       q    Type
REMARK                         _______ _______ _______ _____ _____    ______ ____
ROOT
ATOM      1  C   UNL     1       1.282   3.521  18.421  0.00  0.00    +0.000 C 
ATOM      2  C   UNL     1       1.770   2.079  18.531  0.00  0.00    +0.000 C 
ATOM      3  C   UNL     1       3.204   2.148  18.062  0.00  0.00    +0.000 C 
ATOM      4  O   UNL     1       4.016   1.251  18.217  0.00  0.00    +0.000 OA
ATOM      5  N   UNL     1       3.392   3.397  17.474  0.00  0.00    +0.000 N 
ATOM      6  C   UNL     1       2.166   4.142  17.362  0.00  0.00    +0.000 C 
ENDROOT
BRANCH   5   7
ATOM      7  C   UNL     1       4.583   3.838  16.863  0.00  0.00    +0.000 A 
ATOM      8  C   UNL     1       4.743   3.554  15.499  0.00  0.00    +0.000 A 
ATOM      9  C   UNL     1       5.864   4.007  14.814  0.00  0.00    +0.000 A 
ATOM     10  C   UNL     1       6.846   4.725  15.492  0.00  0.00    +0.000 A 
ATOM     11  C   UNL     1       6.728   4.988  16.866  0.00  0.00    +0.000 A 
ATOM     12  C   UNL     1       7.747   5.680  17.544  0.00  0.00    +0.000 A 
ATOM     13  C   UNL     1       7.669   5.913  18.917  0.00  0.00    +0.000 A 
ATOM     14  C   UNL     1       6.571   5.456  19.633  0.00  0.00    +0.000 A 
ATOM     15  C   UNL     1       5.545   4.785  18.971  0.00  0.00    +0.000 A 
ATOM     16  C   UNL     1       5.586   4.542  17.577  0.00  0.00    +0.000 A 
ENDBRANCH   5   7
BRANCH   1  18
ATOM     17  O   UNL     1       0.975   3.795  20.779  0.00  0.00    +0.000 OA
ATOM     18  C   UNL     1       1.380   4.290  19.728  0.00  0.00    +0.000 C 
ATOM     19  N   UNL     1       1.897   5.555  19.666  0.00  0.00    +0.000 N 
ATOM     20  H   UNL     1       2.390   5.903  18.847  0.00  0.00    +0.000 HD
BRANCH  19  21
ATOM     21  C   UNL     1       2.020   6.366  20.854  0.00  0.00    +0.000 C 
BRANCH  21  22
ATOM     22  C   UNL     1       1.467   7.724  20.587  0.00  0.00    +0.000 A 
ATOM     23  C   UNL     1       0.692   8.513  21.413  0.00  0.00    +0.000 A 
ATOM     24  N   UNL     1       0.500   9.690  20.737  0.00  0.00    +0.000 N 
ATOM     25  C   UNL     1      -0.183  10.836  21.135  0.00  0.00    +0.000 A 
ATOM     26  C   UNL     1      -0.220  11.897  20.310  0.00  0.00    +0.000 A 
ATOM     27  C   UNL     1       0.457  11.809  19.025  0.00  0.00    +0.000 A 
ATOM     28  C   UNL     1       1.108  10.692  18.644  0.00  0.00    +0.000 A 
ATOM     29  C   UNL     1       1.150   9.563  19.515  0.00  0.00    +0.000 A 
ATOM     30  N   UNL     1       1.721   8.381  19.396  0.00  0.00    +0.000 NA
ENDBRANCH  21  22
ENDBRANCH  19  21
ENDBRANCH   1  18
TORSDOF 4
ENDMDL
MODEL 2
REMARK VINA RESULT:      -8.5      0.505      1.090
REMARK  Name = 
REMARK  4 active torsions:
REMARK  status: ('A' for Active; 'I' for Inactive)
REMARK    1  A    between atoms: C_2  and  C_14
REMARK    2  A    between atoms: N_3  and  C_4
REMARK    3  A    between atoms: C_4  and  C_5
REMARK    4  A    between atoms: N_18  and  C_19
REMARK                            x       y       z     vdW  Elec       q    Type
REMARK                         _______ _______ _______ _____ _____    ______ ____
ROOT
ATOM      1  C   UNL     1       1.277   3.492  18.381  0.00  0.00    +0.000 C 
ATOM      2  C   UNL     1       1.796   2.060  18.463  0.00  0.00    +0.000 C 
ATOM      3  C   UNL     1       3.224   2.166  17.982  0.00  0.00    +0.000 C 
ATOM      4  O   UNL     1       4.056   1.284  18.115  0.00  0.00    +0.000 OA
ATOM      5  N   UNL     1       3.379   3.427  17.412  0.00  0.00    +0.000 N 
ATOM      6  C   UNL     1       2.137   4.148  17.323  0.00  0.00    +0.000 C 
ENDROOT
BRANCH   5   7
ATOM      7  C   UNL     1       4.555   3.903  16.796  0.00  0.00    +0.000 A 
ATOM      8  C   UNL     1       4.704   3.649  15.426  0.00  0.00    +0.000 A 
ATOM      9  C   UNL     1       5.809   4.138  14.737  0.00  0.00    +0.000 A 
ATOM     10  C   UNL     1       6.785   4.861  15.418  0.00  0.00    +0.000 A 
ATOM     11  C   UNL     1       6.677   5.094  16.799  0.00  0.00    +0.000 A 
ATOM     12  C   UNL     1       7.691   5.792  17.479  0.00  0.00    +0.000 A 
ATOM     13  C   UNL     1       7.624   5.997  18.857  0.00  0.00    +0.000 A 
ATOM     14  C   UNL     1       6.543   5.505  19.575  0.00  0.00    +0.000 A 
ATOM     15  C   UNL     1       5.522   4.827  18.912  0.00  0.00    +0.000 A 
ATOM     16  C   UNL     1       5.552   4.612  17.513  0.00  0.00    +0.000 A 
ENDBRANCH   5   7
BRANCH   1  18
ATOM     17  O   UNL     1       0.985   3.724  20.745  0.00  0.00    +0.000 OA
ATOM     18  C   UNL     1       1.371   4.243  19.698  0.00  0.00    +0.000 C 
ATOM     19  N   UNL     1       1.863   5.518  19.652  0.00  0.00    +0.000 N 
ATOM     20  H   UNL     1       2.342   5.888  18.834  0.00  0.00    +0.000 HD
BRANCH  19  21
ATOM     21  C   UNL     1       1.981   6.313  20.852  0.00  0.00    +0.000 C 
BRANCH  21  22
ATOM     22  C   UNL     1       1.568   7.714  20.560  0.00  0.00    +0.000 A 
ATOM     23  C   UNL     1       1.733   8.433  19.393  0.00  0.00    +0.000 A 
ATOM     24  N   UNL     1       1.128   9.644  19.608  0.00  0.00    +0.000 N 
ATOM     25  C   UNL     1       0.979  10.724  18.742  0.00  0.00    +0.000 A 
ATOM     26  C   UNL     1       0.317  11.816  19.162  0.00  0.00    +0.000 A 
ATOM     27  C   UNL     1      -0.224  11.829  20.513  0.00  0.00    +0.000 A 
ATOM     28  C   UNL     1      -0.068  10.783  21.348  0.00  0.00    +0.000 A 
ATOM     29  C   UNL     1       0.635   9.623  20.908  0.00  0.00    +0.000 A 
ATOM     30  N   UNL     1       0.906   8.480  21.505  0.00  0.00    +0.000 NA
ENDBRANCH  21  22
ENDBRANCH  19  21
ENDBRANCH   1  18
TORSDOF 4
ENDMDL
MODEL 3
REMARK VINA RESULT:      -8.2      4.757      7.460
REMARK  Name = 
REMARK  4 active torsions:
REMARK  status: ('A' for Active; 'I' for Inactive)
REMARK    1  A    between atoms: C_2  and  C_14
REMARK    2  A    between atoms: N_3  and  C_4
REMARK    3  A    between atoms: C_4  and  C_5
REMARK    4  A    between atoms: N_18  and  C_19
REMARK                            x       y       z     vdW  Elec       q    Type
REMARK                         _______ _______ _______ _____ _____    ______ ____
ROOT
ATOM      1  C   UNL     1       7.596   5.750  17.783  0.00  0.00    +0.000 C 
ATOM      2  C   UNL     1       7.229   4.783  16.662  0.00  0.00    +0.000 C 
ATOM      3  C   UNL     1       5.905   4.206  17.103  0.00  0.00    +0.000 C 
ATOM      4  O   UNL     1       5.162   3.567  16.375  0.00  0.00    +0.000 OA
ATOM      5  N   UNL     1       5.715   4.566  18.435  0.00  0.00    +0.000 N 
ATOM      6  C   UNL     1       6.868   5.217  18.999  0.00  0.00    +0.000 C 
ENDROOT
BRANCH   5   7
ATOM      7  C   UNL     1       4.621   4.179  19.235  0.00  0.00    +0.000 A 
ATOM      8  C   UNL     1       4.588   2.846  19.669  0.00  0.00    +0.000 A 
ATOM      9  C   UNL     1       3.571   2.405  20.509  0.00  0.00    +0.000 A 
ATOM     10  C   UNL     1       2.567   3.286  20.901  0.00  0.00    +0.000 A 
ATOM     11  C   UNL     1       2.557   4.616  20.448  0.00  0.00    +0.000 A 
ATOM     12  C   UNL     1       1.514   5.482  20.822  0.00  0.00    +0.000 A 
ATOM     13  C   UNL     1       1.463   6.792  20.348  0.00  0.00    +0.000 A 
ATOM     14  C   UNL     1       2.452   7.256  19.493  0.00  0.00    +0.000 A 
ATOM     15  C   UNL     1       3.501   6.415  19.129  0.00  0.00    +0.000 A 
ATOM     16  C   UNL     1       3.591   5.083  19.600  0.00  0.00    +0.000 A 
ENDBRANCH   5   7
BRANCH   1  18
ATOM     17  O   UNL     1       6.241   7.433  16.756  0.00  0.00    +0.000 OA
ATOM     18  C   UNL     1       7.192   7.186  17.496  0.00  0.00    +0.000 C 
ATOM     19  N   UNL     1       7.953   8.170  18.065  0.00  0.00    +0.000 N 
ATOM     20  H   UNL     1       8.622   7.981  18.808  0.00  0.00    +0.000 HD
BRANCH  19  21
ATOM     21  C   UNL     1       7.651   9.564  17.841  0.00  0.00    +0.000 C 
BRANCH  21  22
ATOM     22  C   UNL     1       8.860  10.386  18.133  0.00  0.00    +0.000 A 
ATOM     23  C   UNL     1       9.485  11.311  17.322  0.00  0.00    +0.000 A 
ATOM     24  N   UNL     1      10.506  11.838  18.071  0.00  0.00    +0.000 N 
ATOM     25  C   UNL     1      11.423  12.832  17.739  0.00  0.00    +0.000 A 
ATOM     26  C   UNL     1      12.333  13.216  18.652  0.00  0.00    +0.000 A 
ATOM     27  C   UNL     1      12.326  12.576  19.958  0.00  0.00    +0.000 A 
ATOM     28  C   UNL     1      11.441  11.608  20.268  0.00  0.00    +0.000 A 
ATOM     29  C   UNL     1      10.475  11.196  19.303  0.00  0.00    +0.000 A 
ATOM     30  N   UNL     1       9.505  10.305  19.355  0.00  0.00    +0.000 NA
ENDBRANCH  21  22
ENDBRANCH  19  21
ENDBRANCH   1  18
TORSDOF 4
ENDMDL
MODEL 4
REMARK VINA RESULT:      -8.1      0.829      2.168
REMARK  Name = 
REMARK  4 active torsions:
REMARK  status: ('A' for Active; 'I' for Inactive)
REMARK    1  A    between atoms: C_2  and  C_14
REMARK    2  A    between atoms: N_3  and  C_4
REMARK    3  A    between atoms: C_4  and  C_5
REMARK    4  A    between atoms: N_18  and  C_19
REMARK                            x       y       z     vdW  Elec       q    Type
REMARK                         _______ _______ _______ _____ _____    ______ ____
ROOT
ATOM      1  C   UNL     1       1.840   3.400  18.841  0.00  0.00    +0.000 C 
ATOM      2  C   UNL     1       2.585   2.129  19.235  0.00  0.00    +0.000 C 
ATOM      3  C   UNL     1       4.041   2.527  19.160  0.00  0.00    +0.000 C 
ATOM      4  O   UNL     1       4.954   1.864  19.624  0.00  0.00    +0.000 OA
ATOM      5  N   UNL     1       4.104   3.757  18.509  0.00  0.00    +0.000 N 
ATOM      6  C   UNL     1       2.827   4.173  17.993  0.00  0.00    +0.000 C 
ENDROOT
BRANCH   5   7
ATOM      7  C   UNL     1       5.290   4.450  18.192  0.00  0.00    +0.000 A 
ATOM      8  C   UNL     1       5.964   5.078  19.249  0.00  0.00    +0.000 A 
ATOM      9  C   UNL     1       7.170   5.731  19.024  0.00  0.00    +0.000 A 
ATOM     10  C   UNL     1       7.699   5.784  17.737  0.00  0.00    +0.000 A 
ATOM     11  C   UNL     1       7.023   5.196  16.655  0.00  0.00    +0.000 A 
ATOM     12  C   UNL     1       7.551   5.293  15.355  0.00  0.00    +0.000 A 
ATOM     13  C   UNL     1       6.874   4.754  14.262  0.00  0.00    +0.000 A 
ATOM     14  C   UNL     1       5.658   4.112  14.451  0.00  0.00    +0.000 A 
ATOM     15  C   UNL     1       5.132   3.993  15.736  0.00  0.00    +0.000 A 
ATOM     16  C   UNL     1       5.798   4.518  16.869  0.00  0.00    +0.000 A 
ENDBRANCH   5   7
BRANCH   1  18
ATOM     17  O   UNL     1       0.664   3.734  20.898  0.00  0.00    +0.000 OA
ATOM     18  C   UNL     1       1.387   4.226  20.033  0.00  0.00    +0.000 C 
ATOM     19  N   UNL     1       1.787   5.534  20.070  0.00  0.00    +0.000 N 
ATOM     20  H   UNL     1       2.518   5.897  19.463  0.00  0.00    +0.000 HD
BRANCH  19  21
ATOM     21  C   UNL     1       1.398   6.398  21.159  0.00  0.00    +0.000 C 
BRANCH  21  22
ATOM     22  C   UNL     1       1.280   7.798  20.662  0.00  0.00    +0.000 A 
ATOM     23  C   UNL     1       0.796   8.907  21.326  0.00  0.00    +0.000 A 
ATOM     24  N   UNL     1       0.960   9.962  20.467  0.00  0.00    +0.000 N 
ATOM     25  C   UNL     1       0.665  11.310  20.656  0.00  0.00    +0.000 A 
ATOM     26  C   UNL     1       0.938  12.185  19.672  0.00  0.00    +0.000 A 
ATOM     27  C   UNL     1       1.535  11.690  18.441  0.00  0.00    +0.000 A 
ATOM     28  C   UNL     1       1.809  10.383  18.263  0.00  0.00    +0.000 A 
ATOM     29  C   UNL     1       1.520   9.450  19.302  0.00  0.00    +0.000 A 
ATOM     30  N   UNL     1       1.702   8.147  19.391  0.00  0.00    +0.000 NA
ENDBRANCH  21  22
ENDBRANCH  19  21
ENDBRANCH   1  18
TORSDOF 4
ENDMDL
MODEL 5
REMARK VINA RESULT:      -7.9      0.884      2.395
REMARK  Name = 
REMARK  4 active torsions:
REMARK  status: ('A' for Active; 'I' for Inactive)
REMARK    1  A    between atoms: C_2  and  C_14
REMARK    2  A    between atoms: N_3  and  C_4
REMARK    3  A    between atoms: C_4  and  C_5
REMARK    4  A    between atoms: N_18  and  C_19
REMARK                            x       y       z     vdW  Elec       q    Type
REMARK                         _______ _______ _______ _____ _____    ______ ____
ROOT
ATOM      1  C   UNL     1       1.791   3.632  18.848  0.00  0.00    +0.000 C 
ATOM      2  C   UNL     1       2.484   2.316  19.186  0.00  0.00    +0.000 C 
ATOM      3  C   UNL     1       3.955   2.649  19.091  0.00  0.00    +0.000 C 
ATOM      4  O   UNL     1       4.846   1.932  19.513  0.00  0.00    +0.000 OA
ATOM      5  N   UNL     1       4.062   3.895  18.476  0.00  0.00    +0.000 N 
ATOM      6  C   UNL     1       2.794   4.385  18.002  0.00  0.00    +0.000 C 
ENDROOT
BRANCH   5   7
ATOM      7  C   UNL     1       5.271   4.543  18.154  0.00  0.00    +0.000 A 
ATOM      8  C   UNL     1       5.962   5.162  19.205  0.00  0.00    +0.000 A 
ATOM      9  C   UNL     1       7.191   5.771  18.974  0.00  0.00    +0.000 A 
ATOM     10  C   UNL     1       7.725   5.788  17.689  0.00  0.00    +0.000 A 
ATOM     11  C   UNL     1       7.033   5.209  16.613  0.00  0.00    +0.000 A 
ATOM     12  C   UNL     1       7.568   5.269  15.313  0.00  0.00    +0.000 A 
ATOM     13  C   UNL     1       6.876   4.739  14.225  0.00  0.00    +0.000 A 
ATOM     14  C   UNL     1       5.638   4.141  14.419  0.00  0.00    +0.000 A 
ATOM     15  C   UNL     1       5.105   4.058  15.704  0.00  0.00    +0.000 A 
ATOM     16  C   UNL     1       5.784   4.576  16.832  0.00  0.00    +0.000 A 
ENDBRANCH   5   7
BRANCH   1  18
ATOM     17  O   UNL     1       0.771   3.919  20.994  0.00  0.00    +0.000 OA
ATOM     18  C   UNL     1       1.401   4.439  20.074  0.00  0.00    +0.000 C 
ATOM     19  N   UNL     1       1.750   5.763  20.082  0.00  0.00    +0.000 N 
ATOM     20  H   UNL     1       2.413   6.155  19.419  0.00  0.00    +0.000 HD
BRANCH  19  21
ATOM     21  C   UNL     1       1.414   6.611  21.201  0.00  0.00    +0.000 C 
BRANCH  21  22
ATOM     22  C   UNL     1       1.299   8.022  20.735  0.00  0.00    +0.000 A 
ATOM     23  C   UNL     1       1.598   8.543  19.492  0.00  0.00    +0.000 A 
ATOM     24  N   UNL     1       1.260   9.870  19.549  0.00  0.00    +0.000 N 
ATOM     25  C   UNL     1       1.331  10.843  18.555  0.00  0.00    +0.000 A 
ATOM     26  C   UNL     1       0.915  12.092  18.829  0.00  0.00    +0.000 A 
ATOM     27  C   UNL     1       0.403  12.382  20.160  0.00  0.00    +0.000 A 
ATOM     28  C   UNL     1       0.346  11.436  21.118  0.00  0.00    +0.000 A 
ATOM     29  C   UNL     1       0.787  10.111  20.833  0.00  0.00    +0.000 A 
ATOM     30  N   UNL     1       0.821   9.018  21.569  0.00  0.00    +0.000 NA
ENDBRANCH  21  22
ENDBRANCH  19  21
ENDBRANCH   1  18
TORSDOF 4
ENDMDL
MODEL 6
REMARK VINA RESULT:      -7.9      4.600      7.034
REMARK  Name = 
REMARK  4 active torsions:
REMARK  status: ('A' for Active; 'I' for Inactive)
REMARK    1  A    between atoms: C_2  and  C_14
REMARK    2  A    between atoms: N_3  and  C_4
REMARK    3  A    between atoms: C_4  and  C_5
REMARK    4  A    between atoms: N_18  and  C_19
REMARK                            x       y       z     vdW  Elec       q    Type
REMARK                         _______ _______ _______ _____ _____    ______ ____
ROOT
ATOM      1  C   UNL     1       7.590   5.571  18.354  0.00  0.00    +0.000 C 
ATOM      2  C   UNL     1       7.162   4.342  17.559  0.00  0.00    +0.000 C 
ATOM      3  C   UNL     1       5.663   4.298  17.743  0.00  0.00    +0.000 C 
ATOM      4  O   UNL     1       4.914   3.601  17.078  0.00  0.00    +0.000 OA
ATOM      5  N   UNL     1       5.341   5.195  18.758  0.00  0.00    +0.000 N 
ATOM      6  C   UNL     1       6.507   5.746  19.397  0.00  0.00    +0.000 C 
ENDROOT
BRANCH   5   7
ATOM      7  C   UNL     1       4.046   5.414  19.271  0.00  0.00    +0.000 A 
ATOM      8  C   UNL     1       3.473   6.672  19.039  0.00  0.00    +0.000 A 
ATOM      9  C   UNL     1       2.176   6.943  19.463  0.00  0.00    +0.000 A 
ATOM     10  C   UNL     1       1.454   5.967  20.144  0.00  0.00    +0.000 A 
ATOM     11  C   UNL     1       2.020   4.713  20.423  0.00  0.00    +0.000 A 
ATOM     12  C   UNL     1       1.291   3.752  21.147  0.00  0.00    +0.000 A 
ATOM     13  C   UNL     1       1.851   2.517  21.471  0.00  0.00    +0.000 A 
ATOM     14  C   UNL     1       3.150   2.225  21.078  0.00  0.00    +0.000 A 
ATOM     15  C   UNL     1       3.878   3.159  20.345  0.00  0.00    +0.000 A 
ATOM     16  C   UNL     1       3.336   4.418  19.989  0.00  0.00    +0.000 A 
ENDBRANCH   5   7
BRANCH   1  18
ATOM     17  O   UNL     1       7.519   6.780  16.290  0.00  0.00    +0.000 OA
ATOM     18  C   UNL     1       7.729   6.821  17.501  0.00  0.00    +0.000 C 
ATOM     19  N   UNL     1       8.131   7.964  18.137  0.00  0.00    +0.000 N 
ATOM     20  H   UNL     1       8.137   8.051  19.150  0.00  0.00    +0.000 HD
BRANCH  19  21
ATOM     21  C   UNL     1       8.300   9.198  17.407  0.00  0.00    +0.000 C 
BRANCH  21  22
ATOM     22  C   UNL     1       8.756  10.267  18.340  0.00  0.00    +0.000 A 
ATOM     23  C   UNL     1       9.043  11.588  18.058  0.00  0.00    +0.000 A 
ATOM     24  N   UNL     1       9.355  12.170  19.259  0.00  0.00    +0.000 N 
ATOM     25  C   UNL     1       9.688  13.492  19.541  0.00  0.00    +0.000 A 
ATOM     26  C   UNL     1       9.932  13.851  20.813  0.00  0.00    +0.000 A 
ATOM     27  C   UNL     1       9.839  12.839  21.855  0.00  0.00    +0.000 A 
ATOM     28  C   UNL     1       9.525  11.559  21.573  0.00  0.00    +0.000 A 
ATOM     29  C   UNL     1       9.266  11.174  20.225  0.00  0.00    +0.000 A 
ATOM     30  N   UNL     1       8.927  10.017  19.690  0.00  0.00    +0.000 NA
ENDBRANCH  21  22
ENDBRANCH  19  21
ENDBRANCH   1  18
TORSDOF 4
ENDMDL
MODEL 7
REMARK VINA RESULT:      -7.8      4.677      7.050
REMARK  Name = 
REMARK  4 active torsions:
REMARK  status: ('A' for Active; 'I' for Inactive)
REMARK    1  A    between atoms: C_2  and  C_14
REMARK    2  A    between atoms: N_3  and  C_4
REMARK    3  A    between atoms: C_4  and  C_5
REMARK    4  A    between atoms: N_18  and  C_19
REMARK                            x       y       z     vdW  Elec       q    Type
REMARK                         _______ _______ _______ _____ _____    ______ ____
ROOT
ATOM      1  C   UNL     1       7.616   5.614  18.390  0.00  0.00    +0.000 C 
ATOM      2  C   UNL     1       7.211   4.365  17.613  0.00  0.00    +0.000 C 
ATOM      3  C   UNL     1       5.714   4.291  17.806  0.00  0.00    +0.000 C 
ATOM      4  O   UNL     1       4.977   3.570  17.154  0.00  0.00    +0.000 OA
ATOM      5  N   UNL     1       5.378   5.195  18.811  0.00  0.00    +0.000 N 
ATOM      6  C   UNL     1       6.535   5.779  19.436  0.00  0.00    +0.000 C 
ENDROOT
BRANCH   5   7
ATOM      7  C   UNL     1       4.081   5.392  19.327  0.00  0.00    +0.000 A 
ATOM      8  C   UNL     1       3.495   6.648  19.116  0.00  0.00    +0.000 A 
ATOM      9  C   UNL     1       2.197   6.899  19.545  0.00  0.00    +0.000 A 
ATOM     10  C   UNL     1       1.484   5.905  20.211  0.00  0.00    +0.000 A 
ATOM     11  C   UNL     1       2.063   4.652  20.469  0.00  0.00    +0.000 A 
ATOM     12  C   UNL     1       1.343   3.673  21.177  0.00  0.00    +0.000 A 
ATOM     13  C   UNL     1       1.916   2.438  21.481  0.00  0.00    +0.000 A 
ATOM     14  C   UNL     1       3.217   2.165  21.083  0.00  0.00    +0.000 A 
ATOM     15  C   UNL     1       3.935   3.119  20.365  0.00  0.00    +0.000 A 
ATOM     16  C   UNL     1       3.382   4.377  20.029  0.00  0.00    +0.000 A 
ENDBRANCH   5   7
BRANCH   1  18
ATOM     17  O   UNL     1       7.489   6.798  16.315  0.00  0.00    +0.000 OA
ATOM     18  C   UNL     1       7.724   6.855  17.521  0.00  0.00    +0.000 C 
ATOM     19  N   UNL     1       8.127   8.009  18.135  0.00  0.00    +0.000 N 
ATOM     20  H   UNL     1       8.153   8.108  19.147  0.00  0.00    +0.000 HD
BRANCH  19  21
ATOM     21  C   UNL     1       8.268   9.236  17.388  0.00  0.00    +0.000 C 
BRANCH  21  22
ATOM     22  C   UNL     1       8.709  10.326  18.303  0.00  0.00    +0.000 A 
ATOM     23  C   UNL     1       9.198  10.220  19.590  0.00  0.00    +0.000 A 
ATOM     24  N   UNL     1       9.521  11.495  19.976  0.00  0.00    +0.000 N 
ATOM     25  C   UNL     1      10.083  11.943  21.169  0.00  0.00    +0.000 A 
ATOM     26  C   UNL     1      10.343  13.253  21.321  0.00  0.00    +0.000 A 
ATOM     27  C   UNL     1      10.028  14.160  20.228  0.00  0.00    +0.000 A 
ATOM     28  C   UNL     1       9.476  13.720  19.080  0.00  0.00    +0.000 A 
ATOM     29  C   UNL     1       9.197  12.332  18.914  0.00  0.00    +0.000 A 
ATOM     30  N   UNL     1       8.688  11.651  17.906  0.00  0.00    +0.000 NA
ENDBRANCH  21  22
ENDBRANCH  19  21
ENDBRANCH   1  18
TORSDOF 4
ENDMDL
MODEL 8
REMARK VINA RESULT:      -7.8      4.650      7.163
REMARK  Name = 
REMARK  4 active torsions:
REMARK  status: ('A' for Active; 'I' for Inactive)
REMARK    1  A    between atoms: C_2  and  C_14
REMARK    2  A    between atoms: N_3  and  C_4
REMARK    3  A    between atoms: C_4  and  C_5
REMARK    4  A    between atoms: N_18  and  C_19
REMARK                            x       y       z     vdW  Elec       q    Type
REMARK                         _______ _______ _______ _____ _____    ______ ____
ROOT
ATOM      1  C   UNL     1       7.453   5.719  17.862  0.00  0.00    +0.000 C 
ATOM      2  C   UNL     1       7.455   4.868  16.595  0.00  0.00    +0.000 C 
ATOM      3  C   UNL     1       6.134   4.137  16.651  0.00  0.00    +0.000 C 
ATOM      4  O   UNL     1       5.648   3.533  15.709  0.00  0.00    +0.000 OA
ATOM      5  N   UNL     1       5.610   4.317  17.929  0.00  0.00    +0.000 N 
ATOM      6  C   UNL     1       6.529   4.986  18.811  0.00  0.00    +0.000 C 
ENDROOT
BRANCH   5   7
ATOM      7  C   UNL     1       4.410   3.750  18.405  0.00  0.00    +0.000 A 
ATOM      8  C   UNL     1       4.208   2.385  18.157  0.00  0.00    +0.000 A 
ATOM      9  C   UNL     1       3.076   1.743  18.646  0.00  0.00    +0.000 A 
ATOM     10  C   UNL     1       2.126   2.465  19.363  0.00  0.00    +0.000 A 
ATOM     11  C   UNL     1       2.287   3.842  19.590  0.00  0.00    +0.000 A 
ATOM     12  C   UNL     1       1.299   4.564  20.283  0.00  0.00    +0.000 A 
ATOM     13  C   UNL     1       1.419   5.939  20.481  0.00  0.00    +0.000 A 
ATOM     14  C   UNL     1       2.528   6.613  19.988  0.00  0.00    +0.000 A 
ATOM     15  C   UNL     1       3.524   5.906  19.316  0.00  0.00    +0.000 A 
ATOM     16  C   UNL     1       3.440   4.509  19.108  0.00  0.00    +0.000 A 
ENDBRANCH   5   7
BRANCH   1  18
ATOM     17  O   UNL     1       5.841   7.360  17.204  0.00  0.00    +0.000 OA
ATOM     18  C   UNL     1       6.974   7.142  17.630  0.00  0.00    +0.000 C 
ATOM     19  N   UNL     1       7.870   8.146  17.879  0.00  0.00    +0.000 N 
ATOM     20  H   UNL     1       8.734   7.990  18.391  0.00  0.00    +0.000 HD
BRANCH  19  21
ATOM     21  C   UNL     1       7.508   9.529  17.678  0.00  0.00    +0.000 C 
BRANCH  21  22
ATOM     22  C   UNL     1       8.612  10.405  18.163  0.00  0.00    +0.000 A 
ATOM     23  C   UNL     1       9.569  10.130  19.119  0.00  0.00    +0.000 A 
ATOM     24  N   UNL     1      10.390  11.227  19.155  0.00  0.00    +0.000 N 
ATOM     25  C   UNL     1      11.530  11.452  19.922  0.00  0.00    +0.000 A 
ATOM     26  C   UNL     1      12.204  12.606  19.772  0.00  0.00    +0.000 A 
ATOM     27  C   UNL     1      11.716  13.581  18.809  0.00  0.00    +0.000 A 
ATOM     28  C   UNL     1      10.607  13.358  18.076  0.00  0.00    +0.000 A 
ATOM     29  C   UNL     1       9.888  12.137  18.233  0.00  0.00    +0.000 A 
ATOM     30  N   UNL     1       8.806  11.671  17.640  0.00  0.00    +0.000 NA
ENDBRANCH  21  22
ENDBRANCH  19  21
ENDBRANCH   1  18
TORSDOF 4
ENDMDL
MODEL 9
REMARK VINA RESULT:      -7.8      6.864     10.046
REMARK  Name = 
REMARK  4 active torsions:
REMARK  status: ('A' for Active; 'I' for Inactive)
REMARK    1  A    between atoms: C_2  and  C_14
REMARK    2  A    between atoms: N_3  and  C_4
REMARK    3  A    between atoms: C_4  and  C_5
REMARK    4  A    between atoms: N_18  and  C_19
REMARK                            x       y       z     vdW  Elec       q    Type
REMARK                         _______ _______ _______ _____ _____    ______ ____
ROOT
ATOM      1  C   UNL     1      -1.377  13.155  23.259  0.00  0.00    +0.000 C 
ATOM      2  C   UNL     1      -1.036  14.390  22.430  0.00  0.00    +0.000 C 
ATOM      3  C   UNL     1      -0.789  13.837  21.046  0.00  0.00    +0.000 C 
ATOM      4  O   UNL     1      -0.716  14.523  20.040  0.00  0.00    +0.000 OA
ATOM      5  N   UNL     1      -0.696  12.452  21.160  0.00  0.00    +0.000 N 
ATOM      6  C   UNL     1      -0.708  12.010  22.530  0.00  0.00    +0.000 C 
ENDROOT
BRANCH   5   7
ATOM      7  C   UNL     1      -0.418  11.565  20.101  0.00  0.00    +0.000 A 
ATOM      8  C   UNL     1       0.867  11.004  20.060  0.00  0.00    +0.000 A 
ATOM      9  C   UNL     1       1.197  10.076  19.079  0.00  0.00    +0.000 A 
ATOM     10  C   UNL     1       0.255   9.721  18.117  0.00  0.00    +0.000 A 
ATOM     11  C   UNL     1      -1.025  10.298  18.114  0.00  0.00    +0.000 A 
ATOM     12  C   UNL     1      -1.951   9.958  17.111  0.00  0.00    +0.000 A 
ATOM     13  C   UNL     1      -3.212  10.552  17.065  0.00  0.00    +0.000 A 
ATOM     14  C   UNL     1      -3.565  11.497  18.019  0.00  0.00    +0.000 A 
ATOM     15  C   UNL     1      -2.664  11.830  19.029  0.00  0.00    +0.000 A 
ATOM     16  C   UNL     1      -1.381  11.238  19.112  0.00  0.00    +0.000 A 
ENDBRANCH   5   7
BRANCH   1  18
ATOM     17  O   UNL     1      -3.303  11.804  23.697  0.00  0.00    +0.000 OA
ATOM     18  C   UNL     1      -2.871  12.915  23.392  0.00  0.00    +0.000 C 
ATOM     19  N   UNL     1      -3.697  13.971  23.121  0.00  0.00    +0.000 N 
ATOM     20  H   UNL     1      -3.353  14.925  23.042  0.00  0.00    +0.000 HD
BRANCH  19  21
ATOM     21  C   UNL     1      -5.131  13.835  23.211  0.00  0.00    +0.000 C 
BRANCH  21  22
ATOM     22  C   UNL     1      -5.670  13.389  21.895  0.00  0.00    +0.000 A 
ATOM     23  C   UNL     1      -5.893  14.142  20.760  0.00  0.00    +0.000 A 
ATOM     24  N   UNL     1      -6.331  13.262  19.805  0.00  0.00    +0.000 N 
ATOM     25  C   UNL     1      -6.666  13.496  18.473  0.00  0.00    +0.000 A 
ATOM     26  C   UNL     1      -7.050  12.464  17.702  0.00  0.00    +0.000 A 
ATOM     27  C   UNL     1      -7.102  11.133  18.289  0.00  0.00    +0.000 A 
ATOM     28  C   UNL     1      -6.785  10.917  19.581  0.00  0.00    +0.000 A 
ATOM     29  C   UNL     1      -6.378  12.008  20.403  0.00  0.00    +0.000 A 
ATOM     30  N   UNL     1      -6.004  12.066  21.666  0.00  0.00    +0.000 NA
ENDBRANCH  21  22
ENDBRANCH  19  21
ENDBRANCH   1  18
TORSDOF 4
ENDMDL
