MODEL 1
REMARK VINA RESULT:      -8.8      0.000      0.000
REMARK  Name = 
REMARK  8 active torsions:
REMARK  status: ('A' for Active; 'I' for Inactive)
REMARK    1  A    between atoms: C_1  and  N_2
REMARK    2  A    between atoms: N_2  and  C_3
REMARK    3  A    between atoms: C_8  and  C_9
REMARK    4  A    between atoms: C_13  and  N_14
REMARK    5  A    between atoms: C_19  and  C_20
REMARK    6  A    between atoms: C_20  and  O_21
REMARK    7  A    between atoms: O_21  and  C_22
REMARK    8  A    between atoms: C_24  and  C_25
REMARK                            x       y       z     vdW  Elec       q    Type
REMARK                         _______ _______ _______ _____ _____    ______ ____
ROOT
ATOM      1  N   UNL     1       3.817   4.898  19.207  0.00  0.00    +0.000 N 
ATOM      2  C   UNL     1       5.185   5.443  19.352  0.00  0.00    +0.000 C 
ATOM      3  C   UNL     1       5.780   5.159  18.005  0.00  0.00    +0.000 A 
ATOM      4  C   UNL     1       5.115   4.045  17.484  0.00  0.00    +0.000 A 
ATOM      5  C   UNL     1       5.292   3.590  16.190  0.00  0.00    +0.000 A 
ATOM      6  C   UNL     1       6.183   4.294  15.376  0.00  0.00    +0.000 A 
ATOM      7  C   UNL     1       6.854   5.433  15.892  0.00  0.00    +0.000 A 
ATOM      8  C   UNL     1       6.657   5.889  17.214  0.00  0.00    +0.000 A 
ATOM      9  C   UNL     1       3.941   3.773  18.350  0.00  0.00    +0.000 C 
ATOM     10  O   UNL     1       3.146   2.884  18.161  0.00  0.00    +0.000 OA
ENDROOT
BRANCH   1  15
ATOM     11  C   UNL     1       1.979   8.057  19.541  0.00  0.00    +0.000 A 
ATOM     12  C   UNL     1       2.537   8.657  18.398  0.00  0.00    +0.000 A 
ATOM     13  C   UNL     1       3.055   7.894  17.356  0.00  0.00    +0.000 A 
ATOM     14  C   UNL     1       3.133   6.516  17.481  0.00  0.00    +0.000 A 
ATOM     15  C   UNL     1       2.912   5.946  18.739  0.00  0.00    +0.000 A 
ATOM     16  C   UNL     1       2.207   6.680  19.706  0.00  0.00    +0.000 A 
BRANCH  11  22
ATOM     17  C   UNL     1       0.285   9.864  20.157  0.00  0.00    +0.000 A 
ATOM     18  C   UNL     1      -0.275  10.593  21.209  0.00  0.00    +0.000 A 
ATOM     19  N   UNL     1       0.049  10.448  22.514  0.00  0.00    +0.000 NA
ATOM     20  N   UNL     1       0.930   9.501  22.861  0.00  0.00    +0.000 NA
ATOM     21  C   UNL     1       1.475   8.733  21.888  0.00  0.00    +0.000 A 
ATOM     22  C   UNL     1       1.218   8.872  20.521  0.00  0.00    +0.000 A 
BRANCH  17  24
ATOM     23  C   UNL     1      -1.496  10.290  18.472  0.00  0.00    +0.000 C 
ATOM     24  N   UNL     1      -0.111  10.036  18.820  0.00  0.00    +0.000 N 
ATOM     25  H   UNL     1       0.550  10.604  18.293  0.00  0.00    +0.000 HD
ENDBRANCH  17  24
ENDBRANCH  11  22
ENDBRANCH   1  15
BRANCH   8  26
ATOM     26  C   UNL     1       7.299   7.182  17.647  0.00  0.00    +0.000 C 
ATOM     27  F   UNL     1       8.183   7.696  16.749  0.00  0.00    +0.000 F 
ATOM     28  F   UNL     1       6.385   8.167  17.867  0.00  0.00    +0.000 F 
ATOM     29  F   UNL     1       7.997   7.046  18.810  0.00  0.00    +0.000 F 
ENDBRANCH   8  26
BRANCH   6  30
ATOM     30  C   UNL     1       6.367   3.902  13.932  0.00  0.00    +0.000 C 
BRANCH  30  31
ATOM     31  O   UNL     1       5.099   3.968  13.289  0.00  0.00    +0.000 OA
ATOM     32  C   UNL     1       5.102   3.257  12.059  0.00  0.00    +0.000 C 
ENDBRANCH  30  31
ENDBRANCH   6  30
TORSDOF 6
ENDMDL
MODEL 2
REMARK VINA RESULT:      -8.0      4.583      8.582
REMARK  Name = 
REMARK  8 active torsions:
REMARK  status: ('A' for Active; 'I' for Inactive)
REMARK    1  A    between atoms: C_1  and  N_2
REMARK    2  A    between atoms: N_2  and  C_3
REMARK    3  A    between atoms: C_8  and  C_9
REMARK    4  A    between atoms: C_13  and  N_14
REMARK    5  A    between atoms: C_19  and  C_20
REMARK    6  A    between atoms: C_20  and  O_21
REMARK    7  A    between atoms: O_21  and  C_22
REMARK    8  A    between atoms: C_24  and  C_25
REMARK                            x       y       z     vdW  Elec       q    Type
REMARK                         _______ _______ _______ _____ _____    ______ ____
ROOT
ATOM      1  N   UNL     1       0.345   8.674  21.082  0.00  0.00    +0.000 N 
ATOM      2  C   UNL     1      -0.869   8.876  20.259  0.00  0.00    +0.000 C 
ATOM      3  C   UNL     1      -0.889  10.366  20.092  0.00  0.00    +0.000 A 
ATOM      4  C   UNL     1      -0.234  10.917  21.197  0.00  0.00    +0.000 A 
ATOM      5  C   UNL     1       0.075  12.261  21.306  0.00  0.00    +0.000 A 
ATOM      6  C   UNL     1      -0.292  13.093  20.245  0.00  0.00    +0.000 A 
ATOM      7  C   UNL     1      -0.946  12.541  19.114  0.00  0.00    +0.000 A 
ATOM      8  C   UNL     1      -1.248  11.165  19.015  0.00  0.00    +0.000 A 
ATOM      9  C   UNL     1       0.426   9.809  21.931  0.00  0.00    +0.000 C 
ATOM     10  O   UNL     1       1.093   9.954  22.927  0.00  0.00    +0.000 OA
ENDROOT
BRANCH   1  15
ATOM     11  C   UNL     1       2.684   6.588  19.173  0.00  0.00    +0.000 A 
ATOM     12  C   UNL     1       2.450   7.220  17.939  0.00  0.00    +0.000 A 
ATOM     13  C   UNL     1       1.971   8.525  17.870  0.00  0.00    +0.000 A 
ATOM     14  C   UNL     1       1.606   9.189  19.031  0.00  0.00    +0.000 A 
ATOM     15  C   UNL     1       1.501   8.455  20.216  0.00  0.00    +0.000 A 
ATOM     16  C   UNL     1       2.168   7.223  20.316  0.00  0.00    +0.000 A 
BRANCH  11  22
ATOM     17  C   UNL     1       2.788   4.046  19.375  0.00  0.00    +0.000 A 
ATOM     18  C   UNL     1       3.639   2.944  19.495  0.00  0.00    +0.000 A 
ATOM     19  N   UNL     1       4.989   3.005  19.531  0.00  0.00    +0.000 NA
ATOM     20  N   UNL     1       5.588   4.194  19.386  0.00  0.00    +0.000 NA
ATOM     21  C   UNL     1       4.816   5.294  19.223  0.00  0.00    +0.000 A 
ATOM     22  C   UNL     1       3.418   5.299  19.229  0.00  0.00    +0.000 A 
BRANCH  17  24
ATOM     23  C   UNL     1       0.762   2.667  18.950  0.00  0.00    +0.000 C 
ATOM     24  N   UNL     1       1.390   3.922  19.312  0.00  0.00    +0.000 N 
ATOM     25  H   UNL     1       0.927   4.400  20.083  0.00  0.00    +0.000 HD
ENDBRANCH  17  24
ENDBRANCH  11  22
ENDBRANCH   1  15
BRANCH   8  26
ATOM     26  C   UNL     1      -1.820  10.630  17.727  0.00  0.00    +0.000 C 
ATOM     27  F   UNL     1      -2.103  11.587  16.801  0.00  0.00    +0.000 F 
ATOM     28  F   UNL     1      -0.979   9.757  17.108  0.00  0.00    +0.000 F 
ATOM     29  F   UNL     1      -2.988   9.956  17.924  0.00  0.00    +0.000 F 
ENDBRANCH   8  26
BRANCH   6  30
ATOM     30  C   UNL     1       0.082  14.554  20.260  0.00  0.00    +0.000 C 
BRANCH  30  31
ATOM     31  O   UNL     1       0.672  14.874  19.005  0.00  0.00    +0.000 OA
ATOM     32  C   UNL     1       2.089  14.921  19.094  0.00  0.00    +0.000 C 
ENDBRANCH  30  31
ENDBRANCH   6  30
TORSDOF 6
ENDMDL
MODEL 3
REMARK VINA RESULT:      -7.9      4.254      8.369
REMARK  Name = 
REMARK  8 active torsions:
REMARK  status: ('A' for Active; 'I' for Inactive)
REMARK    1  A    between atoms: C_1  and  N_2
REMARK    2  A    between atoms: N_2  and  C_3
REMARK    3  A    between atoms: C_8  and  C_9
REMARK    4  A    between atoms: C_13  and  N_14
REMARK    5  A    between atoms: C_19  and  C_20
REMARK    6  A    between atoms: C_20  and  O_21
REMARK    7  A    between atoms: O_21  and  C_22
REMARK    8  A    between atoms: C_24  and  C_25
REMARK                            x       y       z     vdW  Elec       q    Type
REMARK                         _______ _______ _______ _____ _____    ______ ____
ROOT
ATOM      1  N   UNL     1       0.737   8.333  21.158  0.00  0.00    +0.000 N 
ATOM      2  C   UNL     1      -0.522   8.626  20.438  0.00  0.00    +0.000 C 
ATOM      3  C   UNL     1      -0.391  10.094  20.163  0.00  0.00    +0.000 A 
ATOM      4  C   UNL     1       0.428  10.632  21.159  0.00  0.00    +0.000 A 
ATOM      5  C   UNL     1       0.896  11.934  21.139  0.00  0.00    +0.000 A 
ATOM      6  C   UNL     1       0.521  12.735  20.057  0.00  0.00    +0.000 A 
ATOM      7  C   UNL     1      -0.301  12.195  19.035  0.00  0.00    +0.000 A 
ATOM      8  C   UNL     1      -0.765  10.861  19.068  0.00  0.00    +0.000 A 
ATOM      9  C   UNL     1       1.030   9.502  21.909  0.00  0.00    +0.000 C 
ATOM     10  O   UNL     1       1.806   9.629  22.825  0.00  0.00    +0.000 OA
ENDROOT
BRANCH   1  15
ATOM     11  C   UNL     1       2.324   5.987  18.825  0.00  0.00    +0.000 A 
ATOM     12  C   UNL     1       2.288   6.855  17.719  0.00  0.00    +0.000 A 
ATOM     13  C   UNL     1       2.229   8.236  17.880  0.00  0.00    +0.000 A 
ATOM     14  C   UNL     1       2.088   8.778  19.148  0.00  0.00    +0.000 A 
ATOM     15  C   UNL     1       1.769   7.923  20.208  0.00  0.00    +0.000 A 
ATOM     16  C   UNL     1       2.029   6.549  20.079  0.00  0.00    +0.000 A 
BRANCH  11  22
ATOM     17  C   UNL     1       3.913   3.990  18.821  0.00  0.00    +0.000 A 
ATOM     18  C   UNL     1       4.039   2.631  18.519  0.00  0.00    +0.000 A 
ATOM     19  N   UNL     1       3.050   1.849  18.029  0.00  0.00    +0.000 NA
ATOM     20  N   UNL     1       1.830   2.376  17.862  0.00  0.00    +0.000 NA
ATOM     21  C   UNL     1       1.637   3.678  18.178  0.00  0.00    +0.000 A 
ATOM     22  C   UNL     1       2.630   4.546  18.639  0.00  0.00    +0.000 A 
BRANCH  17  24
ATOM     23  C   UNL     1       6.106   5.132  18.547  0.00  0.00    +0.000 C 
ATOM     24  N   UNL     1       4.967   4.748  19.357  0.00  0.00    +0.000 N 
ATOM     25  H   UNL     1       4.632   5.493  19.967  0.00  0.00    +0.000 HD
ENDBRANCH  17  24
ENDBRANCH  11  22
ENDBRANCH   1  15
BRANCH   8  26
ATOM     26  C   UNL     1      -1.520  10.318  17.881  0.00  0.00    +0.000 C 
ATOM     27  F   UNL     1      -1.919  11.266  16.991  0.00  0.00    +0.000 F 
ATOM     28  F   UNL     1      -0.785   9.426  17.162  0.00  0.00    +0.000 F 
ATOM     29  F   UNL     1      -2.656   9.662  18.251  0.00  0.00    +0.000 F 
ENDBRANCH   8  26
BRANCH   6  30
ATOM     30  C   UNL     1       1.056  14.139  19.929  0.00  0.00    +0.000 C 
BRANCH  30  31
ATOM     31  O   UNL     1       1.521  14.317  18.596  0.00  0.00    +0.000 OA
ATOM     32  C   UNL     1       2.927  14.130  18.506  0.00  0.00    +0.000 C 
ENDBRANCH  30  31
ENDBRANCH   6  30
TORSDOF 6
ENDMDL
MODEL 4
REMARK VINA RESULT:      -7.8      4.263      8.564
REMARK  Name = 
REMARK  8 active torsions:
REMARK  status: ('A' for Active; 'I' for Inactive)
REMARK    1  A    between atoms: C_1  and  N_2
REMARK    2  A    between atoms: N_2  and  C_3
REMARK    3  A    between atoms: C_8  and  C_9
REMARK    4  A    between atoms: C_13  and  N_14
REMARK    5  A    between atoms: C_19  and  C_20
REMARK    6  A    between atoms: C_20  and  O_21
REMARK    7  A    between atoms: O_21  and  C_22
REMARK    8  A    between atoms: C_24  and  C_25
REMARK                            x       y       z     vdW  Elec       q    Type
REMARK                         _______ _______ _______ _____ _____    ______ ____
ROOT
ATOM      1  N   UNL     1       0.739   8.390  21.101  0.00  0.00    +0.000 N 
ATOM      2  C   UNL     1      -0.540   8.647  20.402  0.00  0.00    +0.000 C 
ATOM      3  C   UNL     1      -0.456  10.120  20.131  0.00  0.00    +0.000 A 
ATOM      4  C   UNL     1       0.363  10.678  21.117  0.00  0.00    +0.000 A 
ATOM      5  C   UNL     1       0.792  11.993  21.094  0.00  0.00    +0.000 A 
ATOM      6  C   UNL     1       0.376  12.787  20.022  0.00  0.00    +0.000 A 
ATOM      7  C   UNL     1      -0.445  12.226  19.011  0.00  0.00    +0.000 A 
ATOM      8  C   UNL     1      -0.869  10.880  19.045  0.00  0.00    +0.000 A 
ATOM      9  C   UNL     1       1.010   9.563  21.852  0.00  0.00    +0.000 C 
ATOM     10  O   UNL     1       1.795   9.710  22.757  0.00  0.00    +0.000 OA
ENDROOT
BRANCH   1  15
ATOM     11  C   UNL     1       2.290   6.149  18.643  0.00  0.00    +0.000 A 
ATOM     12  C   UNL     1       2.279   7.080  17.589  0.00  0.00    +0.000 A 
ATOM     13  C   UNL     1       2.246   8.450  17.829  0.00  0.00    +0.000 A 
ATOM     14  C   UNL     1       2.109   8.921  19.125  0.00  0.00    +0.000 A 
ATOM     15  C   UNL     1       1.767   8.014  20.133  0.00  0.00    +0.000 A 
ATOM     16  C   UNL     1       2.000   6.644  19.926  0.00  0.00    +0.000 A 
BRANCH  11  22
ATOM     17  C   UNL     1       3.838   4.219  18.017  0.00  0.00    +0.000 A 
ATOM     18  C   UNL     1       3.900   2.855  17.718  0.00  0.00    +0.000 A 
ATOM     19  N   UNL     1       2.840   2.015  17.701  0.00  0.00    +0.000 NA
ATOM     20  N   UNL     1       1.635   2.485  18.048  0.00  0.00    +0.000 NA
ATOM     21  C   UNL     1       1.521   3.790  18.389  0.00  0.00    +0.000 A 
ATOM     22  C   UNL     1       2.569   4.715  18.376  0.00  0.00    +0.000 A 
BRANCH  17  24
ATOM     23  C   UNL     1       5.803   5.135  19.237  0.00  0.00    +0.000 C 
ATOM     24  N   UNL     1       4.978   5.040  18.049  0.00  0.00    +0.000 N 
ATOM     25  H   UNL     1       5.515   4.986  17.185  0.00  0.00    +0.000 HD
ENDBRANCH  17  24
ENDBRANCH  11  22
ENDBRANCH   1  15
BRANCH   8  26
ATOM     26  C   UNL     1      -1.627  10.319  17.868  0.00  0.00    +0.000 C 
ATOM     27  F   UNL     1      -2.748   9.625  18.204  0.00  0.00    +0.000 F 
ATOM     28  F   UNL     1      -2.039  11.288  17.006  0.00  0.00    +0.000 F 
ATOM     29  F   UNL     1      -0.870   9.456  17.134  0.00  0.00    +0.000 F 
ENDBRANCH   8  26
BRANCH   6  30
ATOM     30  C   UNL     1       0.868  14.206  19.892  0.00  0.00    +0.000 C 
BRANCH  30  31
ATOM     31  O   UNL     1       0.308  14.763  18.707  0.00  0.00    +0.000 OA
ATOM     32  C   UNL     1      -0.285  16.029  18.957  0.00  0.00    +0.000 C 
ENDBRANCH  30  31
ENDBRANCH   6  30
TORSDOF 6
ENDMDL
MODEL 5
REMARK VINA RESULT:      -7.6      1.031      1.371
REMARK  Name = 
REMARK  8 active torsions:
REMARK  status: ('A' for Active; 'I' for Inactive)
REMARK    1  A    between atoms: C_1  and  N_2
REMARK    2  A    between atoms: N_2  and  C_3
REMARK    3  A    between atoms: C_8  and  C_9
REMARK    4  A    between atoms: C_13  and  N_14
REMARK    5  A    between atoms: C_19  and  C_20
REMARK    6  A    between atoms: C_20  and  O_21
REMARK    7  A    between atoms: O_21  and  C_22
REMARK    8  A    between atoms: C_24  and  C_25
REMARK                            x       y       z     vdW  Elec       q    Type
REMARK                         _______ _______ _______ _____ _____    ______ ____
ROOT
ATOM      1  N   UNL     1       2.891   4.486  18.837  0.00  0.00    +0.000 N 
ATOM      2  C   UNL     1       4.260   4.585  19.391  0.00  0.00    +0.000 C 
ATOM      3  C   UNL     1       5.105   4.433  18.161  0.00  0.00    +0.000 A 
ATOM      4  C   UNL     1       4.368   3.683  17.240  0.00  0.00    +0.000 A 
ATOM      5  C   UNL     1       4.770   3.476  15.933  0.00  0.00    +0.000 A 
ATOM      6  C   UNL     1       5.975   4.057  15.531  0.00  0.00    +0.000 A 
ATOM      7  C   UNL     1       6.725   4.830  16.454  0.00  0.00    +0.000 A 
ATOM      8  C   UNL     1       6.297   5.037  17.785  0.00  0.00    +0.000 A 
ATOM      9  C   UNL     1       2.980   3.575  17.753  0.00  0.00    +0.000 C 
ATOM     10  O   UNL     1       2.085   3.003  17.179  0.00  0.00    +0.000 OA
ENDROOT
BRANCH   1  15
ATOM     11  C   UNL     1       1.920   7.938  19.617  0.00  0.00    +0.000 A 
ATOM     12  C   UNL     1       2.815   8.536  18.711  0.00  0.00    +0.000 A 
ATOM     13  C   UNL     1       3.295   7.846  17.602  0.00  0.00    +0.000 A 
ATOM     14  C   UNL     1       2.983   6.506  17.433  0.00  0.00    +0.000 A 
ATOM     15  C   UNL     1       2.395   5.818  18.499  0.00  0.00    +0.000 A 
ATOM     16  C   UNL     1       1.743   6.549  19.506  0.00  0.00    +0.000 A 
BRANCH  11  22
ATOM     17  C   UNL     1       0.280   9.752  20.348  0.00  0.00    +0.000 A 
ATOM     18  C   UNL     1      -0.199  10.486  21.436  0.00  0.00    +0.000 A 
ATOM     19  N   UNL     1       0.220  10.346  22.714  0.00  0.00    +0.000 NA
ATOM     20  N   UNL     1       1.124   9.399  22.999  0.00  0.00    +0.000 NA
ATOM     21  C   UNL     1       1.593   8.626  21.992  0.00  0.00    +0.000 A 
ATOM     22  C   UNL     1       1.236   8.759  20.647  0.00  0.00    +0.000 A 
BRANCH  17  24
ATOM     23  C   UNL     1      -1.320  10.814  18.767  0.00  0.00    +0.000 C 
ATOM     24  N   UNL     1      -0.215   9.918  19.044  0.00  0.00    +0.000 N 
ATOM     25  H   UNL     1       0.533   9.970  18.353  0.00  0.00    +0.000 HD
ENDBRANCH  17  24
ENDBRANCH  11  22
ENDBRANCH   1  15
BRANCH   8  26
ATOM     26  C   UNL     1       7.075   5.980  18.667  0.00  0.00    +0.000 C 
ATOM     27  F   UNL     1       6.710   5.950  19.977  0.00  0.00    +0.000 F 
ATOM     28  F   UNL     1       8.412   5.721  18.652  0.00  0.00    +0.000 F 
ATOM     29  F   UNL     1       6.937   7.279  18.278  0.00  0.00    +0.000 F 
ENDBRANCH   8  26
BRANCH   6  30
ATOM     30  C   UNL     1       6.437   3.938  14.100  0.00  0.00    +0.000 C 
BRANCH  30  31
ATOM     31  O   UNL     1       7.206   5.093  13.785  0.00  0.00    +0.000 OA
ATOM     32  C   UNL     1       7.637   5.078  12.431  0.00  0.00    +0.000 C 
ENDBRANCH  30  31
ENDBRANCH   6  30
TORSDOF 6
ENDMDL
MODEL 6
REMARK VINA RESULT:      -7.6      6.954      9.743
REMARK  Name = 
REMARK  8 active torsions:
REMARK  status: ('A' for Active; 'I' for Inactive)
REMARK    1  A    between atoms: C_1  and  N_2
REMARK    2  A    between atoms: N_2  and  C_3
REMARK    3  A    between atoms: C_8  and  C_9
REMARK    4  A    between atoms: C_13  and  N_14
REMARK    5  A    between atoms: C_19  and  C_20
REMARK    6  A    between atoms: C_20  and  O_21
REMARK    7  A    between atoms: O_21  and  C_22
REMARK    8  A    between atoms: C_24  and  C_25
REMARK                            x       y       z     vdW  Elec       q    Type
REMARK                         _______ _______ _______ _____ _____    ______ ____
ROOT
ATOM      1  N   UNL     1      -0.437  11.145  18.256  0.00  0.00    +0.000 N 
ATOM      2  C   UNL     1       0.297  10.323  19.245  0.00  0.00    +0.000 C 
ATOM      3  C   UNL     1      -0.012  11.031  20.530  0.00  0.00    +0.000 A 
ATOM      4  C   UNL     1      -0.262  12.370  20.217  0.00  0.00    +0.000 A 
ATOM      5  C   UNL     1      -0.733  13.291  21.136  0.00  0.00    +0.000 A 
ATOM      6  C   UNL     1      -0.967  12.839  22.437  0.00  0.00    +0.000 A 
ATOM      7  C   UNL     1      -0.729  11.479  22.761  0.00  0.00    +0.000 A 
ATOM      8  C   UNL     1      -0.254  10.550  21.810  0.00  0.00    +0.000 A 
ATOM      9  C   UNL     1      -0.374  12.477  18.741  0.00  0.00    +0.000 C 
ATOM     10  O   UNL     1      -0.606  13.503  18.149  0.00  0.00    +0.000 OA
ENDROOT
BRANCH   1  15
ATOM     11  C   UNL     1      -4.101  11.347  18.304  0.00  0.00    +0.000 A 
ATOM     12  C   UNL     1      -4.270  11.020  16.946  0.00  0.00    +0.000 A 
ATOM     13  C   UNL     1      -3.306  10.301  16.246  0.00  0.00    +0.000 A 
ATOM     14  C   UNL     1      -2.099   9.990  16.854  0.00  0.00    +0.000 A 
ATOM     15  C   UNL     1      -1.784  10.609  18.067  0.00  0.00    +0.000 A 
ATOM     16  C   UNL     1      -2.819  11.155  18.845  0.00  0.00    +0.000 A 
BRANCH  11  22
ATOM     17  C   UNL     1      -6.450  11.211  19.292  0.00  0.00    +0.000 A 
ATOM     18  C   UNL     1      -7.440  11.913  19.986  0.00  0.00    +0.000 A 
ATOM     19  N   UNL     1      -7.328  13.190  20.418  0.00  0.00    +0.000 NA
ATOM     20  N   UNL     1      -6.172  13.838  20.232  0.00  0.00    +0.000 NA
ATOM     21  C   UNL     1      -5.160  13.194  19.604  0.00  0.00    +0.000 A 
ATOM     22  C   UNL     1      -5.235  11.896  19.090  0.00  0.00    +0.000 A 
BRANCH  17  24
ATOM     23  C   UNL     1      -7.127   8.872  19.804  0.00  0.00    +0.000 C 
ATOM     24  N   UNL     1      -6.608   9.874  18.893  0.00  0.00    +0.000 N 
ATOM     25  H   UNL     1      -6.985   9.797  17.948  0.00  0.00    +0.000 HD
ENDBRANCH  17  24
ENDBRANCH  11  22
ENDBRANCH   1  15
BRANCH   8  26
ATOM     26  C   UNL     1      -0.153   9.094  22.192  0.00  0.00    +0.000 C 
ATOM     27  F   UNL     1       1.074   8.545  21.985  0.00  0.00    +0.000 F 
ATOM     28  F   UNL     1      -0.434   8.882  23.507  0.00  0.00    +0.000 F 
ATOM     29  F   UNL     1      -1.024   8.317  21.488  0.00  0.00    +0.000 F 
ENDBRANCH   8  26
BRANCH   6  30
ATOM     30  C   UNL     1      -1.554  13.767  23.471  0.00  0.00    +0.000 C 
BRANCH  30  31
ATOM     31  O   UNL     1      -2.772  14.292  22.955  0.00  0.00    +0.000 OA
ATOM     32  C   UNL     1      -3.868  13.432  23.232  0.00  0.00    +0.000 C 
ENDBRANCH  30  31
ENDBRANCH   6  30
TORSDOF 6
ENDMDL
MODEL 7
REMARK VINA RESULT:      -7.5      4.475      8.709
REMARK  Name = 
REMARK  8 active torsions:
REMARK  status: ('A' for Active; 'I' for Inactive)
REMARK    1  A    between atoms: C_1  and  N_2
REMARK    2  A    between atoms: N_2  and  C_3
REMARK    3  A    between atoms: C_8  and  C_9
REMARK    4  A    between atoms: C_13  and  N_14
REMARK    5  A    between atoms: C_19  and  C_20
REMARK    6  A    between atoms: C_20  and  O_21
REMARK    7  A    between atoms: O_21  and  C_22
REMARK    8  A    between atoms: C_24  and  C_25
REMARK                            x       y       z     vdW  Elec       q    Type
REMARK                         _______ _______ _______ _____ _____    ______ ____
ROOT
ATOM      1  N   UNL     1       0.242   8.566  21.300  0.00  0.00    +0.000 N 
ATOM      2  C   UNL     1      -0.930   8.788  20.424  0.00  0.00    +0.000 C 
ATOM      3  C   UNL     1      -0.858  10.264  20.174  0.00  0.00    +0.000 A 
ATOM      4  C   UNL     1      -0.209  10.840  21.270  0.00  0.00    +0.000 A 
ATOM      5  C   UNL     1       0.174  12.169  21.315  0.00  0.00    +0.000 A 
ATOM      6  C   UNL     1      -0.108  12.958  20.197  0.00  0.00    +0.000 A 
ATOM      7  C   UNL     1      -0.756  12.380  19.075  0.00  0.00    +0.000 A 
ATOM      8  C   UNL     1      -1.135  11.020  19.042  0.00  0.00    +0.000 A 
ATOM      9  C   UNL     1       0.361   9.741  22.087  0.00  0.00    +0.000 C 
ATOM     10  O   UNL     1       1.002   9.905  23.097  0.00  0.00    +0.000 OA
ENDROOT
BRANCH   1  15
ATOM     11  C   UNL     1       2.401   6.273  19.414  0.00  0.00    +0.000 A 
ATOM     12  C   UNL     1       2.330   6.989  18.205  0.00  0.00    +0.000 A 
ATOM     13  C   UNL     1       2.034   8.348  18.181  0.00  0.00    +0.000 A 
ATOM     14  C   UNL     1       1.687   9.000  19.354  0.00  0.00    +0.000 A 
ATOM     15  C   UNL     1       1.412   8.232  20.489  0.00  0.00    +0.000 A 
ATOM     16  C   UNL     1       1.902   6.917  20.559  0.00  0.00    +0.000 A 
BRANCH  11  22
ATOM     17  C   UNL     1       4.321   4.598  19.281  0.00  0.00    +0.000 A 
ATOM     18  C   UNL     1       4.652   3.241  19.246  0.00  0.00    +0.000 A 
ATOM     19  N   UNL     1       3.764   2.223  19.301  0.00  0.00    +0.000 NA
ATOM     20  N   UNL     1       2.464   2.505  19.458  0.00  0.00    +0.000 NA
ATOM     21  C   UNL     1       2.087   3.802  19.542  0.00  0.00    +0.000 A 
ATOM     22  C   UNL     1       2.952   4.895  19.440  0.00  0.00    +0.000 A 
BRANCH  17  24
ATOM     23  C   UNL     1       6.703   5.307  19.164  0.00  0.00    +0.000 C 
ATOM     24  N   UNL     1       5.289   5.615  19.252  0.00  0.00    +0.000 N 
ATOM     25  H   UNL     1       5.007   6.397  18.661  0.00  0.00    +0.000 HD
ENDBRANCH  17  24
ENDBRANCH  11  22
ENDBRANCH   1  15
BRANCH   8  26
ATOM     26  C   UNL     1      -1.694  10.445  17.766  0.00  0.00    +0.000 C 
ATOM     27  F   UNL     1      -1.987  11.374  16.815  0.00  0.00    +0.000 F 
ATOM     28  F   UNL     1      -0.838   9.570  17.171  0.00  0.00    +0.000 F 
ATOM     29  F   UNL     1      -2.853   9.759  17.975  0.00  0.00    +0.000 F 
ENDBRANCH   8  26
BRANCH   6  30
ATOM     30  C   UNL     1       0.349  14.394  20.145  0.00  0.00    +0.000 C 
BRANCH  30  31
ATOM     31  O   UNL     1       0.143  14.878  18.822  0.00  0.00    +0.000 OA
ATOM     32  C   UNL     1      -0.345  16.211  18.826  0.00  0.00    +0.000 C 
ENDBRANCH  30  31
ENDBRANCH   6  30
TORSDOF 6
ENDMDL
MODEL 8
REMARK VINA RESULT:      -7.5      5.440     10.270
REMARK  Name = 
REMARK  8 active torsions:
REMARK  status: ('A' for Active; 'I' for Inactive)
REMARK    1  A    between atoms: C_1  and  N_2
REMARK    2  A    between atoms: N_2  and  C_3
REMARK    3  A    between atoms: C_8  and  C_9
REMARK    4  A    between atoms: C_13  and  N_14
REMARK    5  A    between atoms: C_19  and  C_20
REMARK    6  A    between atoms: C_20  and  O_21
REMARK    7  A    between atoms: O_21  and  C_22
REMARK    8  A    between atoms: C_24  and  C_25
REMARK                            x       y       z     vdW  Elec       q    Type
REMARK                         _______ _______ _______ _____ _____    ______ ____
ROOT
ATOM      1  N   UNL     1      -0.437  11.865  19.694  0.00  0.00    +0.000 N 
ATOM      2  C   UNL     1      -0.677  12.754  20.853  0.00  0.00    +0.000 C 
ATOM      3  C   UNL     1      -2.175  12.771  20.929  0.00  0.00    +0.000 A 
ATOM      4  C   UNL     1      -2.659  12.529  19.640  0.00  0.00    +0.000 A 
ATOM      5  C   UNL     1      -3.996  12.318  19.356  0.00  0.00    +0.000 A 
ATOM      6  C   UNL     1      -4.893  12.350  20.427  0.00  0.00    +0.000 A 
ATOM      7  C   UNL     1      -4.411  12.584  21.740  0.00  0.00    +0.000 A 
ATOM      8  C   UNL     1      -3.041  12.790  22.014  0.00  0.00    +0.000 A 
ATOM      9  C   UNL     1      -1.512  12.103  18.799  0.00  0.00    +0.000 C 
ATOM     10  O   UNL     1      -1.599  11.799  17.634  0.00  0.00    +0.000 OA
ENDROOT
BRANCH   1  15
ATOM     11  C   UNL     1       1.326   8.660  19.989  0.00  0.00    +0.000 A 
ATOM     12  C   UNL     1       1.346   8.648  21.395  0.00  0.00    +0.000 A 
ATOM     13  C   UNL     1       0.413   9.362  22.142  0.00  0.00    +0.000 A 
ATOM     14  C   UNL     1      -0.491  10.195  21.503  0.00  0.00    +0.000 A 
ATOM     15  C   UNL     1      -0.292  10.484  20.149  0.00  0.00    +0.000 A 
ATOM     16  C   UNL     1       0.504   9.622  19.377  0.00  0.00    +0.000 A 
BRANCH  11  22
ATOM     17  C   UNL     1       2.461   6.400  19.648  0.00  0.00    +0.000 A 
ATOM     18  C   UNL     1       3.339   5.673  18.839  0.00  0.00    +0.000 A 
ATOM     19  N   UNL     1       3.947   6.149  17.729  0.00  0.00    +0.000 NA
ATOM     20  N   UNL     1       3.662   7.391  17.317  0.00  0.00    +0.000 NA
ATOM     21  C   UNL     1       2.785   8.129  18.037  0.00  0.00    +0.000 A 
ATOM     22  C   UNL     1       2.166   7.710  19.218  0.00  0.00    +0.000 A 
BRANCH  17  24
ATOM     23  C   UNL     1       2.117   4.489  21.204  0.00  0.00    +0.000 C 
ATOM     24  N   UNL     1       1.833   5.844  20.775  0.00  0.00    +0.000 N 
ATOM     25  H   UNL     1       1.770   6.508  21.546  0.00  0.00    +0.000 HD
ENDBRANCH  17  24
ENDBRANCH  11  22
ENDBRANCH   1  15
BRANCH   8  26
ATOM     26  C   UNL     1      -2.587  12.896  23.448  0.00  0.00    +0.000 C 
ATOM     27  F   UNL     1      -1.767  11.887  23.851  0.00  0.00    +0.000 F 
ATOM     28  F   UNL     1      -1.900  14.046  23.692  0.00  0.00    +0.000 F 
ATOM     29  F   UNL     1      -3.633  12.887  24.320  0.00  0.00    +0.000 F 
ENDBRANCH   8  26
BRANCH   6  30
ATOM     30  C   UNL     1      -6.354  12.053  20.204  0.00  0.00    +0.000 C 
BRANCH  30  31
ATOM     31  O   UNL     1      -6.813  11.245  21.283  0.00  0.00    +0.000 OA
ATOM     32  C   UNL     1      -7.880  10.398  20.881  0.00  0.00    +0.000 C 
ENDBRANCH  30  31
ENDBRANCH   6  30
TORSDOF 6
ENDMDL
MODEL 9
REMARK VINA RESULT:      -7.4      7.090     10.014
REMARK  Name = 
REMARK  8 active torsions:
REMARK  status: ('A' for Active; 'I' for Inactive)
REMARK    1  A    between atoms: C_1  and  N_2
REMARK    2  A    between atoms: N_2  and  C_3
REMARK    3  A    between atoms: C_8  and  C_9
REMARK    4  A    between atoms: C_13  and  N_14
REMARK    5  A    between atoms: C_19  and  C_20
REMARK    6  A    between atoms: C_20  and  O_21
REMARK    7  A    between atoms: O_21  and  C_22
REMARK    8  A    between atoms: C_24  and  C_25
REMARK                            x       y       z     vdW  Elec       q    Type
REMARK                         _______ _______ _______ _____ _____    ______ ____
ROOT
ATOM      1  N   UNL     1      -0.341  11.444  18.473  0.00  0.00    +0.000 N 
ATOM      2  C   UNL     1       0.413  10.650  19.469  0.00  0.00    +0.000 C 
ATOM      3  C   UNL     1      -0.000  11.294  20.759  0.00  0.00    +0.000 A 
ATOM      4  C   UNL     1      -0.337  12.620  20.472  0.00  0.00    +0.000 A 
ATOM      5  C   UNL     1      -0.913  13.475  21.394  0.00  0.00    +0.000 A 
ATOM      6  C   UNL     1      -1.165  12.969  22.672  0.00  0.00    +0.000 A 
ATOM      7  C   UNL     1      -0.837  11.621  22.969  0.00  0.00    +0.000 A 
ATOM      8  C   UNL     1      -0.256  10.758  22.014  0.00  0.00    +0.000 A 
ATOM      9  C   UNL     1      -0.398  12.762  18.996  0.00  0.00    +0.000 C 
ATOM     10  O   UNL     1      -0.683  13.785  18.422  0.00  0.00    +0.000 OA
ENDROOT
BRANCH   1  15
ATOM     11  C   UNL     1      -3.941  11.484  17.758  0.00  0.00    +0.000 A 
ATOM     12  C   UNL     1      -3.848  10.738  16.570  0.00  0.00    +0.000 A 
ATOM     13  C   UNL     1      -2.780   9.878  16.332  0.00  0.00    +0.000 A 
ATOM     14  C   UNL     1      -1.720   9.831  17.224  0.00  0.00    +0.000 A 
ATOM     15  C   UNL     1      -1.635  10.816  18.213  0.00  0.00    +0.000 A 
ATOM     16  C   UNL     1      -2.791  11.531  18.565  0.00  0.00    +0.000 A 
BRANCH  11  22
ATOM     17  C   UNL     1      -5.622  12.447  19.420  0.00  0.00    +0.000 A 
ATOM     18  C   UNL     1      -6.870  13.060  19.556  0.00  0.00    +0.000 A 
ATOM     19  N   UNL     1      -7.695  13.378  18.532  0.00  0.00    +0.000 NA
ATOM     20  N   UNL     1      -7.287  13.151  17.277  0.00  0.00    +0.000 NA
ATOM     21  C   UNL     1      -6.067  12.598  17.081  0.00  0.00    +0.000 A 
ATOM     22  C   UNL     1      -5.195  12.202  18.099  0.00  0.00    +0.000 A 
BRANCH  17  24
ATOM     23  C   UNL     1      -4.841  12.969  21.724  0.00  0.00    +0.000 C 
ATOM     24  N   UNL     1      -4.791  12.166  20.518  0.00  0.00    +0.000 N 
ATOM     25  H   UNL     1      -4.719  11.166  20.699  0.00  0.00    +0.000 HD
ENDBRANCH  17  24
ENDBRANCH  11  22
ENDBRANCH   1  15
BRANCH   8  26
ATOM     26  C   UNL     1      -0.061   9.304  22.361  0.00  0.00    +0.000 C 
ATOM     27  F   UNL     1      -0.898   8.456  21.703  0.00  0.00    +0.000 F 
ATOM     28  F   UNL     1       1.197   8.867  22.082  0.00  0.00    +0.000 F 
ATOM     29  F   UNL     1      -0.262   9.060  23.686  0.00  0.00    +0.000 F 
ENDBRANCH   8  26
BRANCH   6  30
ATOM     30  C   UNL     1      -1.861  13.819  23.704  0.00  0.00    +0.000 C 
BRANCH  30  31
ATOM     31  O   UNL     1      -0.882  14.633  24.341  0.00  0.00    +0.000 OA
ATOM     32  C   UNL     1      -1.268  16.000  24.349  0.00  0.00    +0.000 C 
ENDBRANCH  30  31
ENDBRANCH   6  30
TORSDOF 6
ENDMDL
