MODEL 1
REMARK VINA RESULT:      -7.8      0.000      0.000
REMARK  Name = 
REMARK  6 active torsions:
REMARK  status: ('A' for Active; 'I' for Inactive)
REMARK    1  A    between atoms: C_1  and  N_2
REMARK    2  A    between atoms: N_2  and  C_3
REMARK    3  A    between atoms: N_2  and  S_4
REMARK    4  A    between atoms: S_4  and  C_7
REMARK    5  A    between atoms: C_10  and  C_11
REMARK    6  A    between atoms: N_22  and  C_23
REMARK                            x       y       z     vdW  Elec       q    Type
REMARK                         _______ _______ _______ _____ _____    ______ ____
ROOT
ATOM      1  C   UNL     1       1.910   8.115  18.323  0.00  0.00    +0.000 C 
ATOM      2  O   UNL     1       1.666   7.685  17.199  0.00  0.00    +0.000 OA
ATOM      3  N   UNL     1       2.465   7.358  19.351  0.00  0.00    +0.000 N 
ATOM      4  C   UNL     1       2.523   5.992  19.146  0.00  0.00    +0.000 A 
ATOM      5  N   UNL     1       1.596   5.173  19.593  0.00  0.00    +0.000 NA
ATOM      6  C   UNL     1       2.043   3.913  19.300  0.00  0.00    +0.000 A 
ATOM      7  C   UNL     1       1.393   2.679  19.473  0.00  0.00    +0.000 A 
ATOM      8  C   UNL     1       2.050   1.500  19.103  0.00  0.00    +0.000 A 
ATOM      9  C   UNL     1       3.331   1.545  18.559  0.00  0.00    +0.000 A 
ATOM     10  C   UNL     1       3.985   2.765  18.362  0.00  0.00    +0.000 A 
ATOM     11  C   UNL     1       3.327   3.944  18.762  0.00  0.00    +0.000 A 
ATOM     12  N   UNL     1       3.665   5.298  18.719  0.00  0.00    +0.000 N 
ATOM     13  H   UNL     1       2.044   7.616  20.236  0.00  0.00    +0.000 HD
ENDROOT
BRANCH  12  14
ATOM     14  C   UNL     1       4.958   5.835  18.419  0.00  0.00    +0.000 A 
ATOM     15  C   UNL     1       5.146   6.730  17.361  0.00  0.00    +0.000 A 
ATOM     16  C   UNL     1       6.414   7.250  17.088  0.00  0.00    +0.000 A 
ATOM     17  C   UNL     1       7.508   6.874  17.861  0.00  0.00    +0.000 A 
ATOM     18  C   UNL     1       7.334   5.987  18.918  0.00  0.00    +0.000 A 
ATOM     19  C   UNL     1       6.065   5.479  19.205  0.00  0.00    +0.000 A 
ENDBRANCH  12  14
BRANCH   1  23
ATOM     20  C   UNL     1       1.030  11.208  19.960  0.00  0.00    +0.000 A 
ATOM     21  C   UNL     1       1.760  11.741  18.905  0.00  0.00    +0.000 A 
ATOM     22  C   UNL     1       2.185  10.666  18.091  0.00  0.00    +0.000 A 
ATOM     23  C   UNL     1       1.710   9.512  18.677  0.00  0.00    +0.000 A 
ATOM     24  O   UNL     1       1.001   9.833  19.803  0.00  0.00    +0.000 OA
BRANCH  20  25
ATOM     25  S   UNL     1       0.243  12.020  21.365  0.00  0.00    +0.000 S 
ATOM     26  O   UNL     1       1.025  13.220  21.579  0.00  0.00    +0.000 OA
ATOM     27  O   UNL     1       0.142  10.983  22.368  0.00  0.00    +0.000 OA
BRANCH  25  29
ATOM     28  C   UNL     1      -1.815  11.867  19.630  0.00  0.00    +0.000 C 
ATOM     29  N   UNL     1      -1.331  12.463  20.887  0.00  0.00    +0.000 NA
ATOM     30  C   UNL     1      -2.341  12.474  21.959  0.00  0.00    +0.000 C 
ENDBRANCH  25  29
ENDBRANCH  20  25
ENDBRANCH   1  23
TORSDOF 4
ENDMDL
MODEL 2
REMARK VINA RESULT:      -7.8      3.120      9.194
REMARK  Name = 
REMARK  6 active torsions:
REMARK  status: ('A' for Active; 'I' for Inactive)
REMARK    1  A    between atoms: C_1  and  N_2
REMARK    2  A    between atoms: N_2  and  C_3
REMARK    3  A    between atoms: N_2  and  S_4
REMARK    4  A    between atoms: S_4  and  C_7
REMARK    5  A    between atoms: C_10  and  C_11
REMARK    6  A    between atoms: N_22  and  C_23
REMARK                            x       y       z     vdW  Elec       q    Type
REMARK                         _______ _______ _______ _____ _____    ______ ____
ROOT
ATOM      1  C   UNL     1       1.716   9.287  18.669  0.00  0.00    +0.000 C 
ATOM      2  O   UNL     1       2.071   9.729  17.580  0.00  0.00    +0.000 OA
ATOM      3  N   UNL     1       1.034  10.023  19.633  0.00  0.00    +0.000 N 
ATOM      4  C   UNL     1       0.967  11.390  19.429  0.00  0.00    +0.000 A 
ATOM      5  N   UNL     1       1.820  12.225  19.980  0.00  0.00    +0.000 NA
ATOM      6  C   UNL     1       1.380  13.477  19.644  0.00  0.00    +0.000 A 
ATOM      7  C   UNL     1       1.979  14.724  19.894  0.00  0.00    +0.000 A 
ATOM      8  C   UNL     1       1.339  15.891  19.459  0.00  0.00    +0.000 A 
ATOM      9  C   UNL     1       0.127  15.821  18.778  0.00  0.00    +0.000 A 
ATOM     10  C   UNL     1      -0.474  14.589  18.505  0.00  0.00    +0.000 A 
ATOM     11  C   UNL     1       0.163  13.422  18.969  0.00  0.00    +0.000 A 
ATOM     12  N   UNL     1      -0.137  12.061  18.883  0.00  0.00    +0.000 N 
ATOM     13  H   UNL     1       1.361   9.769  20.558  0.00  0.00    +0.000 HD
ENDROOT
BRANCH  12  14
ATOM     14  C   UNL     1      -1.376  11.497  18.441  0.00  0.00    +0.000 A 
ATOM     15  C   UNL     1      -2.600  11.931  18.962  0.00  0.00    +0.000 A 
ATOM     16  C   UNL     1      -3.800  11.376  18.513  0.00  0.00    +0.000 A 
ATOM     17  C   UNL     1      -3.791  10.373  17.549  0.00  0.00    +0.000 A 
ATOM     18  C   UNL     1      -2.583   9.934  17.020  0.00  0.00    +0.000 A 
ATOM     19  C   UNL     1      -1.381  10.500  17.453  0.00  0.00    +0.000 A 
ENDBRANCH  12  14
BRANCH   1  23
ATOM     20  C   UNL     1       2.425   5.749  18.684  0.00  0.00    +0.000 A 
ATOM     21  C   UNL     1       2.241   5.922  20.051  0.00  0.00    +0.000 A 
ATOM     22  C   UNL     1       1.909   7.278  20.271  0.00  0.00    +0.000 A 
ATOM     23  C   UNL     1       1.908   7.892  19.037  0.00  0.00    +0.000 A 
ATOM     24  O   UNL     1       2.209   6.970  18.071  0.00  0.00    +0.000 OA
BRANCH  20  25
ATOM     25  S   UNL     1       2.897   4.284  17.745  0.00  0.00    +0.000 S 
ATOM     26  O   UNL     1       3.998   4.721  16.912  0.00  0.00    +0.000 OA
ATOM     27  O   UNL     1       1.654   3.803  17.183  0.00  0.00    +0.000 OA
BRANCH  25  29
ATOM     28  C   UNL     1       3.223   1.716  18.503  0.00  0.00    +0.000 C 
ATOM     29  N   UNL     1       3.470   3.125  18.856  0.00  0.00    +0.000 NA
ATOM     30  C   UNL     1       4.822   3.369  19.388  0.00  0.00    +0.000 C 
ENDBRANCH  25  29
ENDBRANCH  20  25
ENDBRANCH   1  23
TORSDOF 4
ENDMDL
MODEL 3
REMARK VINA RESULT:      -7.8      1.798      4.158
REMARK  Name = 
REMARK  6 active torsions:
REMARK  status: ('A' for Active; 'I' for Inactive)
REMARK    1  A    between atoms: C_1  and  N_2
REMARK    2  A    between atoms: N_2  and  C_3
REMARK    3  A    between atoms: N_2  and  S_4
REMARK    4  A    between atoms: S_4  and  C_7
REMARK    5  A    between atoms: C_10  and  C_11
REMARK    6  A    between atoms: N_22  and  C_23
REMARK                            x       y       z     vdW  Elec       q    Type
REMARK                         _______ _______ _______ _____ _____    ______ ____
ROOT
ATOM      1  C   UNL     1       1.583   8.769  18.896  0.00  0.00    +0.000 C 
ATOM      2  O   UNL     1       2.215   8.862  19.945  0.00  0.00    +0.000 OA
ATOM      3  N   UNL     1       1.922   7.920  17.848  0.00  0.00    +0.000 N 
ATOM      4  C   UNL     1       3.170   7.327  17.914  0.00  0.00    +0.000 A 
ATOM      5  N   UNL     1       4.221   7.832  17.307  0.00  0.00    +0.000 NA
ATOM      6  C   UNL     1       5.231   6.931  17.506  0.00  0.00    +0.000 A 
ATOM      7  C   UNL     1       6.588   7.026  17.150  0.00  0.00    +0.000 A 
ATOM      8  C   UNL     1       7.452   5.967  17.452  0.00  0.00    +0.000 A 
ATOM      9  C   UNL     1       6.978   4.833  18.105  0.00  0.00    +0.000 A 
ATOM     10  C   UNL     1       5.637   4.728  18.483  0.00  0.00    +0.000 A 
ATOM     11  C   UNL     1       4.769   5.787  18.152  0.00  0.00    +0.000 A 
ATOM     12  N   UNL     1       3.409   6.020  18.363  0.00  0.00    +0.000 N 
ATOM     13  H   UNL     1       1.738   8.375  16.961  0.00  0.00    +0.000 HD
ENDROOT
BRANCH  12  14
ATOM     14  C   UNL     1       2.451   5.062  18.827  0.00  0.00    +0.000 A 
ATOM     15  C   UNL     1       1.965   5.095  20.138  0.00  0.00    +0.000 A 
ATOM     16  C   UNL     1       1.025   4.156  20.571  0.00  0.00    +0.000 A 
ATOM     17  C   UNL     1       0.569   3.169  19.702  0.00  0.00    +0.000 A 
ATOM     18  C   UNL     1       1.041   3.127  18.395  0.00  0.00    +0.000 A 
ATOM     19  C   UNL     1       1.968   4.075  17.954  0.00  0.00    +0.000 A 
ENDBRANCH  12  14
BRANCH   1  23
ATOM     20  C   UNL     1      -1.194  11.066  19.073  0.00  0.00    +0.000 A 
ATOM     21  C   UNL     1      -1.533  10.434  17.883  0.00  0.00    +0.000 A 
ATOM     22  C   UNL     1      -0.561   9.438  17.634  0.00  0.00    +0.000 A 
ATOM     23  C   UNL     1       0.343   9.497  18.673  0.00  0.00    +0.000 A 
ATOM     24  O   UNL     1      -0.040  10.474  19.553  0.00  0.00    +0.000 OA
BRANCH  20  25
ATOM     25  S   UNL     1      -1.986  12.438  19.934  0.00  0.00    +0.000 S 
ATOM     26  O   UNL     1      -3.391  12.313  19.608  0.00  0.00    +0.000 OA
ATOM     27  O   UNL     1      -1.211  13.597  19.550  0.00  0.00    +0.000 OA
BRANCH  25  29
ATOM     28  C   UNL     1      -0.561  12.754  22.201  0.00  0.00    +0.000 C 
ATOM     29  N   UNL     1      -1.781  12.183  21.606  0.00  0.00    +0.000 NA
ATOM     30  C   UNL     1      -2.985  12.380  22.431  0.00  0.00    +0.000 C 
ENDBRANCH  25  29
ENDBRANCH  20  25
ENDBRANCH   1  23
TORSDOF 4
ENDMDL
MODEL 4
REMARK VINA RESULT:      -7.7      1.853      4.138
REMARK  Name = 
REMARK  6 active torsions:
REMARK  status: ('A' for Active; 'I' for Inactive)
REMARK    1  A    between atoms: C_1  and  N_2
REMARK    2  A    between atoms: N_2  and  C_3
REMARK    3  A    between atoms: N_2  and  S_4
REMARK    4  A    between atoms: S_4  and  C_7
REMARK    5  A    between atoms: C_10  and  C_11
REMARK    6  A    between atoms: N_22  and  C_23
REMARK                            x       y       z     vdW  Elec       q    Type
REMARK                         _______ _______ _______ _____ _____    ______ ____
ROOT
ATOM      1  C   UNL     1       1.614   8.707  18.945  0.00  0.00    +0.000 C 
ATOM      2  O   UNL     1       2.250   8.777  19.994  0.00  0.00    +0.000 OA
ATOM      3  N   UNL     1       1.945   7.875  17.880  0.00  0.00    +0.000 N 
ATOM      4  C   UNL     1       3.190   7.274  17.932  0.00  0.00    +0.000 A 
ATOM      5  N   UNL     1       4.243   7.784  17.331  0.00  0.00    +0.000 NA
ATOM      6  C   UNL     1       5.248   6.873  17.511  0.00  0.00    +0.000 A 
ATOM      7  C   UNL     1       6.604   6.967  17.153  0.00  0.00    +0.000 A 
ATOM      8  C   UNL     1       7.463   5.897  17.433  0.00  0.00    +0.000 A 
ATOM      9  C   UNL     1       6.984   4.754  18.066  0.00  0.00    +0.000 A 
ATOM     10  C   UNL     1       5.642   4.650  18.445  0.00  0.00    +0.000 A 
ATOM     11  C   UNL     1       4.780   5.720  18.137  0.00  0.00    +0.000 A 
ATOM     12  N   UNL     1       3.422   5.958  18.356  0.00  0.00    +0.000 N 
ATOM     13  H   UNL     1       1.762   8.348  17.002  0.00  0.00    +0.000 HD
ENDROOT
BRANCH  12  14
ATOM     14  C   UNL     1       2.460   4.997  18.804  0.00  0.00    +0.000 A 
ATOM     15  C   UNL     1       1.982   3.995  17.953  0.00  0.00    +0.000 A 
ATOM     16  C   UNL     1       1.049   3.060  18.410  0.00  0.00    +0.000 A 
ATOM     17  C   UNL     1       0.575   3.124  19.717  0.00  0.00    +0.000 A 
ATOM     18  C   UNL     1       1.044   4.113  20.574  0.00  0.00    +0.000 A 
ATOM     19  C   UNL     1       1.991   5.038  20.126  0.00  0.00    +0.000 A 
ENDBRANCH  12  14
BRANCH   1  23
ATOM     20  C   UNL     1      -1.177  10.978  19.207  0.00  0.00    +0.000 A 
ATOM     21  C   UNL     1      -1.478  10.434  17.964  0.00  0.00    +0.000 A 
ATOM     22  C   UNL     1      -0.494   9.462  17.672  0.00  0.00    +0.000 A 
ATOM     23  C   UNL     1       0.378   9.447  18.739  0.00  0.00    +0.000 A 
ATOM     24  O   UNL     1      -0.035  10.355  19.677  0.00  0.00    +0.000 OA
BRANCH  20  25
ATOM     25  S   UNL     1      -2.001  12.281  20.142  0.00  0.00    +0.000 S 
ATOM     26  O   UNL     1      -1.820  11.907  21.529  0.00  0.00    +0.000 OA
ATOM     27  O   UNL     1      -3.312  12.380  19.540  0.00  0.00    +0.000 OA
BRANCH  25  29
ATOM     28  C   UNL     1      -0.507  14.350  21.013  0.00  0.00    +0.000 C 
ATOM     29  N   UNL     1      -1.161  13.734  19.846  0.00  0.00    +0.000 NA
ATOM     30  C   UNL     1      -0.330  13.751  18.630  0.00  0.00    +0.000 C 
ENDBRANCH  25  29
ENDBRANCH  20  25
ENDBRANCH   1  23
TORSDOF 4
ENDMDL
MODEL 5
REMARK VINA RESULT:      -7.7      6.805     10.593
REMARK  Name = 
REMARK  6 active torsions:
REMARK  status: ('A' for Active; 'I' for Inactive)
REMARK    1  A    between atoms: C_1  and  N_2
REMARK    2  A    between atoms: N_2  and  C_3
REMARK    3  A    between atoms: N_2  and  S_4
REMARK    4  A    between atoms: S_4  and  C_7
REMARK    5  A    between atoms: C_10  and  C_11
REMARK    6  A    between atoms: N_22  and  C_23
REMARK                            x       y       z     vdW  Elec       q    Type
REMARK                         _______ _______ _______ _____ _____    ______ ____
ROOT
ATOM      1  C   UNL     1       8.503  10.290  17.951  0.00  0.00    +0.000 C 
ATOM      2  O   UNL     1       7.791  11.077  17.334  0.00  0.00    +0.000 OA
ATOM      3  N   UNL     1       9.647  10.651  18.657  0.00  0.00    +0.000 N 
ATOM      4  C   UNL     1      10.118  11.935  18.450  0.00  0.00    +0.000 A 
ATOM      5  N   UNL     1      11.066  12.203  17.578  0.00  0.00    +0.000 NA
ATOM      6  C   UNL     1      11.339  13.535  17.728  0.00  0.00    +0.000 A 
ATOM      7  C   UNL     1      12.201  14.354  16.978  0.00  0.00    +0.000 A 
ATOM      8  C   UNL     1      12.331  15.706  17.317  0.00  0.00    +0.000 A 
ATOM      9  C   UNL     1      11.608  16.240  18.380  0.00  0.00    +0.000 A 
ATOM     10  C   UNL     1      10.733  15.446  19.125  0.00  0.00    +0.000 A 
ATOM     11  C   UNL     1      10.628  14.081  18.794  0.00  0.00    +0.000 A 
ATOM     12  N   UNL     1       9.877  13.020  19.304  0.00  0.00    +0.000 N 
ATOM     13  H   UNL     1      10.359   9.937  18.551  0.00  0.00    +0.000 HD
ENDROOT
BRANCH  12  14
ATOM     14  C   UNL     1       9.125  13.029  20.522  0.00  0.00    +0.000 A 
ATOM     15  C   UNL     1       9.485  12.221  21.605  0.00  0.00    +0.000 A 
ATOM     16  C   UNL     1       8.744  12.248  22.789  0.00  0.00    +0.000 A 
ATOM     17  C   UNL     1       7.629  13.074  22.900  0.00  0.00    +0.000 A 
ATOM     18  C   UNL     1       7.262  13.885  21.832  0.00  0.00    +0.000 A 
ATOM     19  C   UNL     1       8.012  13.874  20.653  0.00  0.00    +0.000 A 
ENDBRANCH  12  14
BRANCH   1  23
ATOM     20  C   UNL     1       7.286   6.935  17.422  0.00  0.00    +0.000 A 
ATOM     21  C   UNL     1       8.025   6.700  18.576  0.00  0.00    +0.000 A 
ATOM     22  C   UNL     1       8.580   7.932  18.988  0.00  0.00    +0.000 A 
ATOM     23  C   UNL     1       8.171   8.878  18.072  0.00  0.00    +0.000 A 
ATOM     24  O   UNL     1       7.379   8.283  17.127  0.00  0.00    +0.000 OA
BRANCH  20  25
ATOM     25  S   UNL     1       6.363   5.794  16.374  0.00  0.00    +0.000 S 
ATOM     26  O   UNL     1       7.334   4.800  15.970  0.00  0.00    +0.000 OA
ATOM     27  O   UNL     1       5.697   6.649  15.415  0.00  0.00    +0.000 OA
BRANCH  25  29
ATOM     28  C   UNL     1       4.193   5.950  17.967  0.00  0.00    +0.000 C 
ATOM     29  N   UNL     1       5.178   5.049  17.346  0.00  0.00    +0.000 NA
ATOM     30  C   UNL     1       4.583   3.820  16.792  0.00  0.00    +0.000 C 
ENDBRANCH  25  29
ENDBRANCH  20  25
ENDBRANCH   1  23
TORSDOF 4
ENDMDL
MODEL 6
REMARK VINA RESULT:      -7.6      2.785      9.049
REMARK  Name = 
REMARK  6 active torsions:
REMARK  status: ('A' for Active; 'I' for Inactive)
REMARK    1  A    between atoms: C_1  and  N_2
REMARK    2  A    between atoms: N_2  and  C_3
REMARK    3  A    between atoms: N_2  and  S_4
REMARK    4  A    between atoms: S_4  and  C_7
REMARK    5  A    between atoms: C_10  and  C_11
REMARK    6  A    between atoms: N_22  and  C_23
REMARK                            x       y       z     vdW  Elec       q    Type
REMARK                         _______ _______ _______ _____ _____    ______ ____
ROOT
ATOM      1  C   UNL     1       0.873  10.344  19.293  0.00  0.00    +0.000 C 
ATOM      2  O   UNL     1       1.268  11.479  19.042  0.00  0.00    +0.000 OA
ATOM      3  N   UNL     1      -0.334  10.053  19.922  0.00  0.00    +0.000 N 
ATOM      4  C   UNL     1      -1.002  11.119  20.495  0.00  0.00    +0.000 A 
ATOM      5  N   UNL     1      -0.880  11.424  21.769  0.00  0.00    +0.000 NA
ATOM      6  C   UNL     1      -1.758  12.450  21.989  0.00  0.00    +0.000 A 
ATOM      7  C   UNL     1      -1.957  13.212  23.154  0.00  0.00    +0.000 A 
ATOM      8  C   UNL     1      -2.927  14.221  23.155  0.00  0.00    +0.000 A 
ATOM      9  C   UNL     1      -3.682  14.478  22.014  0.00  0.00    +0.000 A 
ATOM     10  C   UNL     1      -3.484  13.743  20.841  0.00  0.00    +0.000 A 
ATOM     11  C   UNL     1      -2.525  12.712  20.857  0.00  0.00    +0.000 A 
ATOM     12  N   UNL     1      -2.074  11.801  19.900  0.00  0.00    +0.000 N 
ATOM     13  H   UNL     1      -0.215   9.266  20.551  0.00  0.00    +0.000 HD
ENDROOT
BRANCH  12  14
ATOM     14  C   UNL     1      -2.678  11.546  18.628  0.00  0.00    +0.000 A 
ATOM     15  C   UNL     1      -1.907  11.414  17.469  0.00  0.00    +0.000 A 
ATOM     16  C   UNL     1      -2.513  11.158  16.237  0.00  0.00    +0.000 A 
ATOM     17  C   UNL     1      -3.897  11.042  16.147  0.00  0.00    +0.000 A 
ATOM     18  C   UNL     1      -4.676  11.167  17.292  0.00  0.00    +0.000 A 
ATOM     19  C   UNL     1      -4.072  11.405  18.529  0.00  0.00    +0.000 A 
ENDBRANCH  12  14
BRANCH   1  23
ATOM     20  C   UNL     1       2.339   7.057  19.044  0.00  0.00    +0.000 A 
ATOM     21  C   UNL     1       2.722   7.541  17.799  0.00  0.00    +0.000 A 
ATOM     22  C   UNL     1       2.262   8.874  17.697  0.00  0.00    +0.000 A 
ATOM     23  C   UNL     1       1.609   9.160  18.878  0.00  0.00    +0.000 A 
ATOM     24  O   UNL     1       1.660   8.067  19.701  0.00  0.00    +0.000 OA
BRANCH  20  25
ATOM     25  S   UNL     1       2.574   5.431  19.787  0.00  0.00    +0.000 S 
ATOM     26  O   UNL     1       1.863   5.498  21.047  0.00  0.00    +0.000 OA
ATOM     27  O   UNL     1       4.002   5.211  19.724  0.00  0.00    +0.000 OA
BRANCH  25  29
ATOM     28  C   UNL     1       2.606   3.792  17.646  0.00  0.00    +0.000 C 
ATOM     29  N   UNL     1       1.808   4.290  18.779  0.00  0.00    +0.000 NA
ATOM     30  C   UNL     1       1.052   3.234  19.475  0.00  0.00    +0.000 C 
ENDBRANCH  25  29
ENDBRANCH  20  25
ENDBRANCH   1  23
TORSDOF 4
ENDMDL
MODEL 7
REMARK VINA RESULT:      -7.6      3.259      9.170
REMARK  Name = 
REMARK  6 active torsions:
REMARK  status: ('A' for Active; 'I' for Inactive)
REMARK    1  A    between atoms: C_1  and  N_2
REMARK    2  A    between atoms: N_2  and  C_3
REMARK    3  A    between atoms: N_2  and  S_4
REMARK    4  A    between atoms: S_4  and  C_7
REMARK    5  A    between atoms: C_10  and  C_11
REMARK    6  A    between atoms: N_22  and  C_23
REMARK                            x       y       z     vdW  Elec       q    Type
REMARK                         _______ _______ _______ _____ _____    ______ ____
ROOT
ATOM      1  C   UNL     1       1.685   9.237  18.786  0.00  0.00    +0.000 C 
ATOM      2  O   UNL     1       2.053   9.642  17.687  0.00  0.00    +0.000 OA
ATOM      3  N   UNL     1       1.017  10.014  19.727  0.00  0.00    +0.000 N 
ATOM      4  C   UNL     1       0.979  11.375  19.487  0.00  0.00    +0.000 A 
ATOM      5  N   UNL     1       1.849  12.207  20.018  0.00  0.00    +0.000 NA
ATOM      6  C   UNL     1       1.437  13.458  19.647  0.00  0.00    +0.000 A 
ATOM      7  C   UNL     1       2.061  14.699  19.865  0.00  0.00    +0.000 A 
ATOM      8  C   UNL     1       1.448  15.867  19.397  0.00  0.00    +0.000 A 
ATOM      9  C   UNL     1       0.237  15.804  18.713  0.00  0.00    +0.000 A 
ATOM     10  C   UNL     1      -0.389  14.578  18.471  0.00  0.00    +0.000 A 
ATOM     11  C   UNL     1       0.221  13.410  18.969  0.00  0.00    +0.000 A 
ATOM     12  N   UNL     1      -0.108  12.055  18.919  0.00  0.00    +0.000 N 
ATOM     13  H   UNL     1       1.335   9.777  20.660  0.00  0.00    +0.000 HD
ENDROOT
BRANCH  12  14
ATOM     14  C   UNL     1      -1.358  11.506  18.487  0.00  0.00    +0.000 A 
ATOM     15  C   UNL     1      -1.415  10.499  17.518  0.00  0.00    +0.000 A 
ATOM     16  C   UNL     1      -2.643   9.970  17.115  0.00  0.00    +0.000 A 
ATOM     17  C   UNL     1      -3.828  10.448  17.667  0.00  0.00    +0.000 A 
ATOM     18  C   UNL     1      -3.786  11.447  18.633  0.00  0.00    +0.000 A 
ATOM     19  C   UNL     1      -2.558  11.966  19.052  0.00  0.00    +0.000 A 
ENDBRANCH  12  14
BRANCH   1  23
ATOM     20  C   UNL     1       2.283   5.680  18.891  0.00  0.00    +0.000 A 
ATOM     21  C   UNL     1       2.154   5.901  20.257  0.00  0.00    +0.000 A 
ATOM     22  C   UNL     1       1.873   7.274  20.445  0.00  0.00    +0.000 A 
ATOM     23  C   UNL     1       1.846   7.848  19.192  0.00  0.00    +0.000 A 
ATOM     24  O   UNL     1       2.083   6.887  18.246  0.00  0.00    +0.000 OA
BRANCH  20  25
ATOM     25  S   UNL     1       2.674   4.171  17.984  0.00  0.00    +0.000 S 
ATOM     26  O   UNL     1       3.985   4.413  17.419  0.00  0.00    +0.000 OA
ATOM     27  O   UNL     1       1.512   3.941  17.154  0.00  0.00    +0.000 OA
BRANCH  25  29
ATOM     28  C   UNL     1       1.585   2.064  19.266  0.00  0.00    +0.000 C 
ATOM     29  N   UNL     1       2.785   2.904  19.119  0.00  0.00    +0.000 NA
ATOM     30  C   UNL     1       4.042   2.136  19.090  0.00  0.00    +0.000 C 
ENDBRANCH  25  29
ENDBRANCH  20  25
ENDBRANCH   1  23
TORSDOF 4
ENDMDL
MODEL 8
REMARK VINA RESULT:      -7.6      6.593     10.325
REMARK  Name = 
REMARK  6 active torsions:
REMARK  status: ('A' for Active; 'I' for Inactive)
REMARK    1  A    between atoms: C_1  and  N_2
REMARK    2  A    between atoms: N_2  and  C_3
REMARK    3  A    between atoms: N_2  and  S_4
REMARK    4  A    between atoms: S_4  and  C_7
REMARK    5  A    between atoms: C_10  and  C_11
REMARK    6  A    between atoms: N_22  and  C_23
REMARK                            x       y       z     vdW  Elec       q    Type
REMARK                         _______ _______ _______ _____ _____    ______ ____
ROOT
ATOM      1  C   UNL     1       8.368  10.060  17.898  0.00  0.00    +0.000 C 
ATOM      2  O   UNL     1       7.678  10.881  17.299  0.00  0.00    +0.000 OA
ATOM      3  N   UNL     1       9.517  10.374  18.617  0.00  0.00    +0.000 N 
ATOM      4  C   UNL     1      10.022  11.650  18.445  0.00  0.00    +0.000 A 
ATOM      5  N   UNL     1      10.979  11.917  17.584  0.00  0.00    +0.000 NA
ATOM      6  C   UNL     1      11.285  13.238  17.769  0.00  0.00    +0.000 A 
ATOM      7  C   UNL     1      12.171  14.053  17.044  0.00  0.00    +0.000 A 
ATOM      8  C   UNL     1      12.333  15.392  17.419  0.00  0.00    +0.000 A 
ATOM      9  C   UNL     1      11.620  15.917  18.493  0.00  0.00    +0.000 A 
ATOM     10  C   UNL     1      10.721  15.126  19.214  0.00  0.00    +0.000 A 
ATOM     11  C   UNL     1      10.584  13.773  18.847  0.00  0.00    +0.000 A 
ATOM     12  N   UNL     1       9.805  12.718  19.326  0.00  0.00    +0.000 N 
ATOM     13  H   UNL     1      10.211   9.645  18.495  0.00  0.00    +0.000 HD
ENDROOT
BRANCH  12  14
ATOM     14  C   UNL     1       9.048  12.714  20.542  0.00  0.00    +0.000 A 
ATOM     15  C   UNL     1       8.095  13.703  20.809  0.00  0.00    +0.000 A 
ATOM     16  C   UNL     1       7.360  13.679  21.997  0.00  0.00    +0.000 A 
ATOM     17  C   UNL     1       7.577  12.674  22.935  0.00  0.00    +0.000 A 
ATOM     18  C   UNL     1       8.519  11.684  22.681  0.00  0.00    +0.000 A 
ATOM     19  C   UNL     1       9.243  11.695  21.486  0.00  0.00    +0.000 A 
ENDBRANCH  12  14
BRANCH   1  23
ATOM     20  C   UNL     1       7.006   6.770  17.313  0.00  0.00    +0.000 A 
ATOM     21  C   UNL     1       7.820   6.460  18.396  0.00  0.00    +0.000 A 
ATOM     22  C   UNL     1       8.444   7.655  18.820  0.00  0.00    +0.000 A 
ATOM     23  C   UNL     1       7.999   8.655  17.981  0.00  0.00    +0.000 A 
ATOM     24  O   UNL     1       7.120   8.128  17.073  0.00  0.00    +0.000 OA
BRANCH  20  25
ATOM     25  S   UNL     1       5.970   5.708  16.288  0.00  0.00    +0.000 S 
ATOM     26  O   UNL     1       6.791   4.546  16.019  0.00  0.00    +0.000 OA
ATOM     27  O   UNL     1       5.501   6.577  15.231  0.00  0.00    +0.000 OA
BRANCH  25  29
ATOM     28  C   UNL     1       4.818   4.029  18.056  0.00  0.00    +0.000 C 
ATOM     29  N   UNL     1       4.631   5.234  17.230  0.00  0.00    +0.000 NA
ATOM     30  C   UNL     1       3.929   6.324  17.930  0.00  0.00    +0.000 C 
ENDBRANCH  25  29
ENDBRANCH  20  25
ENDBRANCH   1  23
TORSDOF 4
ENDMDL
MODEL 9
REMARK VINA RESULT:      -7.5      3.064      9.010
REMARK  Name = 
REMARK  6 active torsions:
REMARK  status: ('A' for Active; 'I' for Inactive)
REMARK    1  A    between atoms: C_1  and  N_2
REMARK    2  A    between atoms: N_2  and  C_3
REMARK    3  A    between atoms: N_2  and  S_4
REMARK    4  A    between atoms: S_4  and  C_7
REMARK    5  A    between atoms: C_10  and  C_11
REMARK    6  A    between atoms: N_22  and  C_23
REMARK                            x       y       z     vdW  Elec       q    Type
REMARK                         _______ _______ _______ _____ _____    ______ ____
ROOT
ATOM      1  C   UNL     1       1.730   9.070  19.095  0.00  0.00    +0.000 C 
ATOM      2  O   UNL     1       2.230   9.492  18.056  0.00  0.00    +0.000 OA
ATOM      3  N   UNL     1       0.938   9.829  19.951  0.00  0.00    +0.000 N 
ATOM      4  C   UNL     1       0.915  11.192  19.720  0.00  0.00    +0.000 A 
ATOM      5  N   UNL     1       1.700  12.028  20.366  0.00  0.00    +0.000 NA
ATOM      6  C   UNL     1       1.322  13.278  19.958  0.00  0.00    +0.000 A 
ATOM      7  C   UNL     1       1.899  14.523  20.266  0.00  0.00    +0.000 A 
ATOM      8  C   UNL     1       1.335  15.690  19.734  0.00  0.00    +0.000 A 
ATOM      9  C   UNL     1       0.222  15.621  18.902  0.00  0.00    +0.000 A 
ATOM     10  C   UNL     1      -0.353  14.391  18.570  0.00  0.00    +0.000 A 
ATOM     11  C   UNL     1       0.203  13.225  19.130  0.00  0.00    +0.000 A 
ATOM     12  N   UNL     1      -0.100  11.866  19.025  0.00  0.00    +0.000 N 
ATOM     13  H   UNL     1       1.139   9.585  20.914  0.00  0.00    +0.000 HD
ENDROOT
BRANCH  12  14
ATOM     14  C   UNL     1      -1.278  11.308  18.433  0.00  0.00    +0.000 A 
ATOM     15  C   UNL     1      -1.198  10.328  17.439  0.00  0.00    +0.000 A 
ATOM     16  C   UNL     1      -2.359   9.789  16.878  0.00  0.00    +0.000 A 
ATOM     17  C   UNL     1      -3.610  10.232  17.295  0.00  0.00    +0.000 A 
ATOM     18  C   UNL     1      -3.704  11.204  18.285  0.00  0.00    +0.000 A 
ATOM     19  C   UNL     1      -2.546  11.732  18.861  0.00  0.00    +0.000 A 
ENDBRANCH  12  14
BRANCH   1  23
ATOM     20  C   UNL     1       2.500   5.551  19.304  0.00  0.00    +0.000 A 
ATOM     21  C   UNL     1       1.966   5.715  20.577  0.00  0.00    +0.000 A 
ATOM     22  C   UNL     1       1.554   7.061  20.700  0.00  0.00    +0.000 A 
ATOM     23  C   UNL     1       1.856   7.679  19.504  0.00  0.00    +0.000 A 
ATOM     24  O   UNL     1       2.419   6.768  18.651  0.00  0.00    +0.000 OA
BRANCH  20  25
ATOM     25  S   UNL     1       3.234   4.101  18.523  0.00  0.00    +0.000 S 
ATOM     26  O   UNL     1       2.428   3.873  17.342  0.00  0.00    +0.000 OA
ATOM     27  O   UNL     1       3.323   3.127  19.589  0.00  0.00    +0.000 OA
BRANCH  25  29
ATOM     28  C   UNL     1       4.947   5.092  16.692  0.00  0.00    +0.000 C 
ATOM     29  N   UNL     1       4.814   4.521  18.043  0.00  0.00    +0.000 NA
ATOM     30  C   UNL     1       5.621   5.218  19.059  0.00  0.00    +0.000 C 
ENDBRANCH  25  29
ENDBRANCH  20  25
ENDBRANCH   1  23
TORSDOF 4
ENDMDL
