MODEL 1
REMARK VINA RESULT:      -8.7      0.000      0.000
REMARK  Name = 
REMARK  3 active torsions:
REMARK  status: ('A' for Active; 'I' for Inactive)
REMARK    1  A    between atoms: C_2  and  C_3
REMARK    2  A    between atoms: C_5  and  C_6
REMARK    3  A    between atoms: C_19  and  C_20
REMARK                            x       y       z     vdW  Elec       q    Type
REMARK                         _______ _______ _______ _____ _____    ______ ____
ROOT
ATOM      1  O   UNL     1       0.744  10.939  18.627  0.00  0.00    +0.000 OA
ATOM      2  C   UNL     1       1.115  10.081  19.425  0.00  0.00    +0.000 C 
ATOM      3  N   UNL     1       0.891  10.213  20.802  0.00  0.00    +0.000 N 
ATOM      4  C   UNL     1       1.076   9.176  21.812  0.00  0.00    +0.000 C 
ATOM      5  C   UNL     1      -0.199   8.930  22.598  0.00  0.00    +0.000 C 
ATOM      6  C   UNL     1      -0.725  10.214  23.210  0.00  0.00    +0.000 C 
ATOM      7  C   UNL     1      -0.869  11.334  22.159  0.00  0.00    +0.000 C 
ATOM      8  C   UNL     1       0.422  11.500  21.337  0.00  0.00    +0.000 C 
ENDROOT
BRANCH   7   9
ATOM      9  C   UNL     1      -1.243  12.615  22.839  0.00  0.00    +0.000 A 
ATOM     10  N   UNL     1      -0.407  13.517  23.311  0.00  0.00    +0.000 NA
ATOM     11  N   UNL     1      -1.134  14.535  23.882  0.00  0.00    +0.000 NA
ATOM     12  C   UNL     1      -2.404  14.244  23.737  0.00  0.00    +0.000 A 
ATOM     13  C   UNL     1      -3.592  14.928  24.113  0.00  0.00    +0.000 A 
ATOM     14  C   UNL     1      -4.790  14.386  23.816  0.00  0.00    +0.000 A 
ATOM     15  C   UNL     1      -4.895  13.107  23.126  0.00  0.00    +0.000 A 
ATOM     16  C   UNL     1      -3.773  12.459  22.773  0.00  0.00    +0.000 A 
ATOM     17  N   UNL     1      -2.539  13.032  23.076  0.00  0.00    +0.000 N 
ENDBRANCH   7   9
BRANCH   2  18
ATOM     18  C   UNL     1       1.755   8.876  18.945  0.00  0.00    +0.000 A 
ATOM     19  C   UNL     1       1.809   7.586  19.425  0.00  0.00    +0.000 A 
ATOM     20  C   UNL     1       2.506   6.820  18.464  0.00  0.00    +0.000 A 
ATOM     21  N   UNL     1       2.996   7.620  17.503  0.00  0.00    +0.000 NA
ATOM     22  N   UNL     1       2.564   8.851  17.841  0.00  0.00    +0.000 N 
ATOM     23  H   UNL     1       2.831   9.642  17.263  0.00  0.00    +0.000 HD
BRANCH  20  24
ATOM     24  C   UNL     1       2.731   5.382  18.516  0.00  0.00    +0.000 A 
ATOM     25  C   UNL     1       1.837   4.511  17.887  0.00  0.00    +0.000 A 
ATOM     26  C   UNL     1       2.103   3.140  17.844  0.00  0.00    +0.000 A 
ATOM     27  C   UNL     1       3.253   2.625  18.440  0.00  0.00    +0.000 A 
ATOM     28  C   UNL     1       4.142   3.479  19.091  0.00  0.00    +0.000 A 
ATOM     29  C   UNL     1       3.875   4.846  19.125  0.00  0.00    +0.000 A 
ATOM     30  F   UNL     1       4.760   5.641  19.755  0.00  0.00    +0.000 F 
ENDBRANCH  20  24
ENDBRANCH   2  18
TORSDOF 3
ENDMDL
MODEL 2
REMARK VINA RESULT:      -8.6      0.918      1.280
REMARK  Name = 
REMARK  3 active torsions:
REMARK  status: ('A' for Active; 'I' for Inactive)
REMARK    1  A    between atoms: C_2  and  C_3
REMARK    2  A    between atoms: C_5  and  C_6
REMARK    3  A    between atoms: C_19  and  C_20
REMARK                            x       y       z     vdW  Elec       q    Type
REMARK                         _______ _______ _______ _____ _____    ______ ____
ROOT
ATOM      1  O   UNL     1       0.959  10.821  18.640  0.00  0.00    +0.000 OA
ATOM      2  C   UNL     1       1.249   9.945  19.452  0.00  0.00    +0.000 C 
ATOM      3  N   UNL     1       0.970  10.090  20.818  0.00  0.00    +0.000 N 
ATOM      4  C   UNL     1       1.056   9.046  21.834  0.00  0.00    +0.000 C 
ATOM      5  C   UNL     1      -0.264   8.868  22.561  0.00  0.00    +0.000 C 
ATOM      6  C   UNL     1      -0.749  10.178  23.151  0.00  0.00    +0.000 C 
ATOM      7  C   UNL     1      -0.787  11.303  22.097  0.00  0.00    +0.000 C 
ATOM      8  C   UNL     1       0.547  11.400  21.333  0.00  0.00    +0.000 C 
ENDROOT
BRANCH   7   9
ATOM      9  C   UNL     1      -1.123  12.603  22.761  0.00  0.00    +0.000 A 
ATOM     10  N   UNL     1      -0.262  13.520  23.153  0.00  0.00    +0.000 NA
ATOM     11  N   UNL     1      -0.955  14.553  23.740  0.00  0.00    +0.000 NA
ATOM     12  C   UNL     1      -2.232  14.255  23.683  0.00  0.00    +0.000 A 
ATOM     13  C   UNL     1      -3.397  14.947  24.113  0.00  0.00    +0.000 A 
ATOM     14  C   UNL     1      -4.608  14.394  23.908  0.00  0.00    +0.000 A 
ATOM     15  C   UNL     1      -4.751  13.095  23.263  0.00  0.00    +0.000 A 
ATOM     16  C   UNL     1      -3.651  12.439  22.859  0.00  0.00    +0.000 A 
ATOM     17  N   UNL     1      -2.403  13.024  23.067  0.00  0.00    +0.000 N 
ENDBRANCH   7   9
BRANCH   2  18
ATOM     18  C   UNL     1       1.845   8.708  18.999  0.00  0.00    +0.000 A 
ATOM     19  C   UNL     1       1.887   7.436  19.528  0.00  0.00    +0.000 A 
ATOM     20  C   UNL     1       2.534   6.618  18.575  0.00  0.00    +0.000 A 
ATOM     21  N   UNL     1       3.007   7.368  17.567  0.00  0.00    +0.000 NA
ATOM     22  N   UNL     1       2.615   8.621  17.870  0.00  0.00    +0.000 N 
ATOM     23  H   UNL     1       2.878   9.382  17.252  0.00  0.00    +0.000 HD
BRANCH  20  24
ATOM     24  C   UNL     1       2.729   5.179  18.677  0.00  0.00    +0.000 A 
ATOM     25  C   UNL     1       3.734   4.665  19.502  0.00  0.00    +0.000 A 
ATOM     26  C   UNL     1       3.858   3.285  19.686  0.00  0.00    +0.000 A 
ATOM     27  C   UNL     1       2.993   2.407  19.035  0.00  0.00    +0.000 A 
ATOM     28  C   UNL     1       2.001   2.903  18.191  0.00  0.00    +0.000 A 
ATOM     29  C   UNL     1       1.878   4.280  18.017  0.00  0.00    +0.000 A 
ATOM     30  F   UNL     1       0.903   4.723  17.202  0.00  0.00    +0.000 F 
ENDBRANCH  20  24
ENDBRANCH   2  18
TORSDOF 3
ENDMDL
MODEL 3
REMARK VINA RESULT:      -8.5      2.770      9.938
REMARK  Name = 
REMARK  3 active torsions:
REMARK  status: ('A' for Active; 'I' for Inactive)
REMARK    1  A    between atoms: C_2  and  C_3
REMARK    2  A    between atoms: C_5  and  C_6
REMARK    3  A    between atoms: C_19  and  C_20
REMARK                            x       y       z     vdW  Elec       q    Type
REMARK                         _______ _______ _______ _____ _____    ______ ____
ROOT
ATOM      1  O   UNL     1      -0.315   7.880  21.589  0.00  0.00    +0.000 OA
ATOM      2  C   UNL     1       0.101   8.925  21.094  0.00  0.00    +0.000 C 
ATOM      3  N   UNL     1       1.176   8.934  20.194  0.00  0.00    +0.000 N 
ATOM      4  C   UNL     1       1.610  10.061  19.376  0.00  0.00    +0.000 C 
ATOM      5  C   UNL     1       1.620   9.707  17.900  0.00  0.00    +0.000 C 
ATOM      6  C   UNL     1       2.461   8.473  17.635  0.00  0.00    +0.000 C 
ATOM      7  C   UNL     1       2.047   7.292  18.538  0.00  0.00    +0.000 C 
ATOM      8  C   UNL     1       1.978   7.714  20.017  0.00  0.00    +0.000 C 
ENDROOT
BRANCH   7   9
ATOM      9  C   UNL     1       3.002   6.154  18.346  0.00  0.00    +0.000 A 
ATOM     10  N   UNL     1       4.303   6.255  18.163  0.00  0.00    +0.000 NA
ATOM     11  N   UNL     1       4.824   4.992  18.002  0.00  0.00    +0.000 NA
ATOM     12  C   UNL     1       3.832   4.139  18.103  0.00  0.00    +0.000 A 
ATOM     13  C   UNL     1       3.779   2.721  18.036  0.00  0.00    +0.000 A 
ATOM     14  C   UNL     1       2.595   2.094  18.193  0.00  0.00    +0.000 A 
ATOM     15  C   UNL     1       1.365   2.842  18.419  0.00  0.00    +0.000 A 
ATOM     16  C   UNL     1       1.414   4.183  18.479  0.00  0.00    +0.000 A 
ATOM     17  N   UNL     1       2.644   4.820  18.325  0.00  0.00    +0.000 N 
ENDBRANCH   7   9
BRANCH   2  18
ATOM     18  C   UNL     1      -0.552  10.179  21.396  0.00  0.00    +0.000 A 
ATOM     19  C   UNL     1      -0.815  10.840  22.576  0.00  0.00    +0.000 A 
ATOM     20  C   UNL     1      -1.396  12.081  22.228  0.00  0.00    +0.000 A 
ATOM     21  N   UNL     1      -1.624  12.131  20.907  0.00  0.00    +0.000 NA
ATOM     22  N   UNL     1      -1.146  10.959  20.441  0.00  0.00    +0.000 N 
ATOM     23  H   UNL     1      -1.226  10.754  19.450  0.00  0.00    +0.000 HD
BRANCH  20  24
ATOM     24  C   UNL     1      -1.763  13.142  23.156  0.00  0.00    +0.000 A 
ATOM     25  C   UNL     1      -0.931  14.255  23.310  0.00  0.00    +0.000 A 
ATOM     26  C   UNL     1      -1.328  15.324  24.118  0.00  0.00    +0.000 A 
ATOM     27  C   UNL     1      -2.548  15.285  24.790  0.00  0.00    +0.000 A 
ATOM     28  C   UNL     1      -3.378  14.172  24.664  0.00  0.00    +0.000 A 
ATOM     29  C   UNL     1      -2.980  13.112  23.852  0.00  0.00    +0.000 A 
ATOM     30  F   UNL     1      -3.810  12.058  23.747  0.00  0.00    +0.000 F 
ENDBRANCH  20  24
ENDBRANCH   2  18
TORSDOF 3
ENDMDL
MODEL 4
REMARK VINA RESULT:      -8.5      2.617      9.866
REMARK  Name = 
REMARK  3 active torsions:
REMARK  status: ('A' for Active; 'I' for Inactive)
REMARK    1  A    between atoms: C_2  and  C_3
REMARK    2  A    between atoms: C_5  and  C_6
REMARK    3  A    between atoms: C_19  and  C_20
REMARK                            x       y       z     vdW  Elec       q    Type
REMARK                         _______ _______ _______ _____ _____    ______ ____
ROOT
ATOM      1  O   UNL     1      -0.265   7.908  21.621  0.00  0.00    +0.000 OA
ATOM      2  C   UNL     1       0.124   8.947  21.091  0.00  0.00    +0.000 C 
ATOM      3  N   UNL     1       1.184   8.949  20.173  0.00  0.00    +0.000 N 
ATOM      4  C   UNL     1       1.585  10.061  19.318  0.00  0.00    +0.000 C 
ATOM      5  C   UNL     1       1.577   9.667  17.853  0.00  0.00    +0.000 C 
ATOM      6  C   UNL     1       2.434   8.441  17.607  0.00  0.00    +0.000 C 
ATOM      7  C   UNL     1       2.056   7.278  18.547  0.00  0.00    +0.000 C 
ATOM      8  C   UNL     1       2.004   7.739  20.016  0.00  0.00    +0.000 C 
ENDROOT
BRANCH   7   9
ATOM      9  C   UNL     1       3.027   6.152  18.370  0.00  0.00    +0.000 A 
ATOM     10  N   UNL     1       4.331   6.268  18.216  0.00  0.00    +0.000 NA
ATOM     11  N   UNL     1       4.869   5.012  18.059  0.00  0.00    +0.000 NA
ATOM     12  C   UNL     1       3.884   4.147  18.134  0.00  0.00    +0.000 A 
ATOM     13  C   UNL     1       3.848   2.729  18.059  0.00  0.00    +0.000 A 
ATOM     14  C   UNL     1       2.669   2.089  18.186  0.00  0.00    +0.000 A 
ATOM     15  C   UNL     1       1.426   2.821  18.390  0.00  0.00    +0.000 A 
ATOM     16  C   UNL     1       1.459   4.162  18.458  0.00  0.00    +0.000 A 
ATOM     17  N   UNL     1       2.685   4.814  18.334  0.00  0.00    +0.000 N 
ENDBRANCH   7   9
BRANCH   2  18
ATOM     18  C   UNL     1      -0.546  10.197  21.371  0.00  0.00    +0.000 A 
ATOM     19  C   UNL     1      -0.891  10.836  22.542  0.00  0.00    +0.000 A 
ATOM     20  C   UNL     1      -1.443  12.085  22.178  0.00  0.00    +0.000 A 
ATOM     21  N   UNL     1      -1.576  12.162  20.844  0.00  0.00    +0.000 NA
ATOM     22  N   UNL     1      -1.069  10.998  20.391  0.00  0.00    +0.000 N 
ATOM     23  H   UNL     1      -1.078  10.812  19.393  0.00  0.00    +0.000 HD
BRANCH  20  24
ATOM     24  C   UNL     1      -1.872  13.130  23.097  0.00  0.00    +0.000 A 
ATOM     25  C   UNL     1      -3.099  13.020  23.757  0.00  0.00    +0.000 A 
ATOM     26  C   UNL     1      -3.469  13.965  24.719  0.00  0.00    +0.000 A 
ATOM     27  C   UNL     1      -2.626  15.034  25.017  0.00  0.00    +0.000 A 
ATOM     28  C   UNL     1      -1.410  15.170  24.350  0.00  0.00    +0.000 A 
ATOM     29  C   UNL     1      -1.044  14.221  23.398  0.00  0.00    +0.000 A 
ATOM     30  F   UNL     1       0.142  14.379  22.781  0.00  0.00    +0.000 F 
ENDBRANCH  20  24
ENDBRANCH   2  18
TORSDOF 3
ENDMDL
MODEL 5
REMARK VINA RESULT:      -8.4      1.675      2.412
REMARK  Name = 
REMARK  3 active torsions:
REMARK  status: ('A' for Active; 'I' for Inactive)
REMARK    1  A    between atoms: C_2  and  C_3
REMARK    2  A    between atoms: C_5  and  C_6
REMARK    3  A    between atoms: C_19  and  C_20
REMARK                            x       y       z     vdW  Elec       q    Type
REMARK                         _______ _______ _______ _____ _____    ______ ____
ROOT
ATOM      1  O   UNL     1       1.536   9.386  22.338  0.00  0.00    +0.000 OA
ATOM      2  C   UNL     1       0.965   9.319  21.251  0.00  0.00    +0.000 C 
ATOM      3  N   UNL     1      -0.244   9.988  21.015  0.00  0.00    +0.000 N 
ATOM      4  C   UNL     1      -0.893  10.170  19.721  0.00  0.00    +0.000 C 
ATOM      5  C   UNL     1      -1.127  11.638  19.417  0.00  0.00    +0.000 C 
ATOM      6  C   UNL     1      -1.905  12.314  20.529  0.00  0.00    +0.000 C 
ATOM      7  C   UNL     1      -1.258  12.078  21.909  0.00  0.00    +0.000 C 
ATOM      8  C   UNL     1      -0.971  10.583  22.145  0.00  0.00    +0.000 C 
ENDROOT
BRANCH   7   9
ATOM      9  C   UNL     1      -2.144  12.633  22.981  0.00  0.00    +0.000 A 
ATOM     10  N   UNL     1      -3.237  12.069  23.454  0.00  0.00    +0.000 NA
ATOM     11  N   UNL     1      -3.782  12.897  24.408  0.00  0.00    +0.000 NA
ATOM     12  C   UNL     1      -3.003  13.948  24.511  0.00  0.00    +0.000 A 
ATOM     13  C   UNL     1      -3.060  15.105  25.335  0.00  0.00    +0.000 A 
ATOM     14  C   UNL     1      -2.093  16.037  25.234  0.00  0.00    +0.000 A 
ATOM     15  C   UNL     1      -0.992  15.891  24.291  0.00  0.00    +0.000 A 
ATOM     16  C   UNL     1      -0.939  14.799  23.510  0.00  0.00    +0.000 A 
ATOM     17  N   UNL     1      -1.939  13.836  23.628  0.00  0.00    +0.000 N 
ENDBRANCH   7   9
BRANCH   2  18
ATOM     18  C   UNL     1       1.566   8.579  20.164  0.00  0.00    +0.000 A 
ATOM     19  C   UNL     1       2.062   7.297  20.061  0.00  0.00    +0.000 A 
ATOM     20  C   UNL     1       2.428   7.107  18.710  0.00  0.00    +0.000 A 
ATOM     21  N   UNL     1       2.309   8.260  18.032  0.00  0.00    +0.000 NA
ATOM     22  N   UNL     1       1.830   9.133  18.941  0.00  0.00    +0.000 N 
ATOM     23  H   UNL     1       1.673  10.097  18.662  0.00  0.00    +0.000 HD
BRANCH  20  24
ATOM     24  C   UNL     1       2.926   5.870  18.125  0.00  0.00    +0.000 A 
ATOM     25  C   UNL     1       2.101   4.743  18.063  0.00  0.00    +0.000 A 
ATOM     26  C   UNL     1       2.536   3.587  17.410  0.00  0.00    +0.000 A 
ATOM     27  C   UNL     1       3.802   3.540  16.828  0.00  0.00    +0.000 A 
ATOM     28  C   UNL     1       4.645   4.647  16.902  0.00  0.00    +0.000 A 
ATOM     29  C   UNL     1       4.203   5.800  17.549  0.00  0.00    +0.000 A 
ATOM     30  F   UNL     1       5.040   6.852  17.593  0.00  0.00    +0.000 F 
ENDBRANCH  20  24
ENDBRANCH   2  18
TORSDOF 3
ENDMDL
MODEL 6
REMARK VINA RESULT:      -8.4      1.786      2.598
REMARK  Name = 
REMARK  3 active torsions:
REMARK  status: ('A' for Active; 'I' for Inactive)
REMARK    1  A    between atoms: C_2  and  C_3
REMARK    2  A    between atoms: C_5  and  C_6
REMARK    3  A    between atoms: C_19  and  C_20
REMARK                            x       y       z     vdW  Elec       q    Type
REMARK                         _______ _______ _______ _____ _____    ______ ____
ROOT
ATOM      1  O   UNL     1       1.492   9.195  22.189  0.00  0.00    +0.000 OA
ATOM      2  C   UNL     1       0.965   9.224  21.079  0.00  0.00    +0.000 C 
ATOM      3  N   UNL     1      -0.212   9.950  20.844  0.00  0.00    +0.000 N 
ATOM      4  C   UNL     1      -0.800  10.245  19.542  0.00  0.00    +0.000 C 
ATOM      5  C   UNL     1      -0.974  11.738  19.335  0.00  0.00    +0.000 C 
ATOM      6  C   UNL     1      -1.776  12.361  20.461  0.00  0.00    +0.000 C 
ATOM      7  C   UNL     1      -1.194  12.006  21.845  0.00  0.00    +0.000 C 
ATOM      8  C   UNL     1      -0.966  10.490  21.985  0.00  0.00    +0.000 C 
ENDROOT
BRANCH   7   9
ATOM      9  C   UNL     1      -2.106  12.515  22.919  0.00  0.00    +0.000 A 
ATOM     10  N   UNL     1      -3.202  11.925  23.352  0.00  0.00    +0.000 NA
ATOM     11  N   UNL     1      -3.773  12.714  24.322  0.00  0.00    +0.000 NA
ATOM     12  C   UNL     1      -3.007  13.768  24.476  0.00  0.00    +0.000 A 
ATOM     13  C   UNL     1      -3.092  14.895  25.338  0.00  0.00    +0.000 A 
ATOM     14  C   UNL     1      -2.132  15.841  25.288  0.00  0.00    +0.000 A 
ATOM     15  C   UNL     1      -1.013  15.738  24.361  0.00  0.00    +0.000 A 
ATOM     16  C   UNL     1      -0.934  14.674  23.544  0.00  0.00    +0.000 A 
ATOM     17  N   UNL     1      -1.926  13.698  23.611  0.00  0.00    +0.000 N 
ENDBRANCH   7   9
BRANCH   2  18
ATOM     18  C   UNL     1       1.586   8.542  19.966  0.00  0.00    +0.000 A 
ATOM     19  C   UNL     1       2.195   7.312  19.840  0.00  0.00    +0.000 A 
ATOM     20  C   UNL     1       2.521   7.156  18.474  0.00  0.00    +0.000 A 
ATOM     21  N   UNL     1       2.265   8.290  17.804  0.00  0.00    +0.000 NA
ATOM     22  N   UNL     1       1.744   9.116  18.734  0.00  0.00    +0.000 N 
ATOM     23  H   UNL     1       1.486  10.060  18.464  0.00  0.00    +0.000 HD
BRANCH  20  24
ATOM     24  C   UNL     1       3.108   5.970  17.866  0.00  0.00    +0.000 A 
ATOM     25  C   UNL     1       4.383   6.034  17.296  0.00  0.00    +0.000 A 
ATOM     26  C   UNL     1       4.995   4.876  16.807  0.00  0.00    +0.000 A 
ATOM     27  C   UNL     1       4.334   3.651  16.866  0.00  0.00    +0.000 A 
ATOM     28  C   UNL     1       3.052   3.575  17.410  0.00  0.00    +0.000 A 
ATOM     29  C   UNL     1       2.451   4.731  17.903  0.00  0.00    +0.000 A 
ATOM     30  F   UNL     1       1.217   4.619  18.429  0.00  0.00    +0.000 F 
ENDBRANCH  20  24
ENDBRANCH   2  18
TORSDOF 3
ENDMDL
MODEL 7
REMARK VINA RESULT:      -8.4      1.607      1.789
REMARK  Name = 
REMARK  3 active torsions:
REMARK  status: ('A' for Active; 'I' for Inactive)
REMARK    1  A    between atoms: C_2  and  C_3
REMARK    2  A    between atoms: C_5  and  C_6
REMARK    3  A    between atoms: C_19  and  C_20
REMARK                            x       y       z     vdW  Elec       q    Type
REMARK                         _______ _______ _______ _____ _____    ______ ____
ROOT
ATOM      1  O   UNL     1       0.781  10.617  18.710  0.00  0.00    +0.000 OA
ATOM      2  C   UNL     1       1.143   9.848  19.598  0.00  0.00    +0.000 C 
ATOM      3  N   UNL     1       0.881  10.112  20.950  0.00  0.00    +0.000 N 
ATOM      4  C   UNL     1       1.054   9.184  22.062  0.00  0.00    +0.000 C 
ATOM      5  C   UNL     1      -0.237   8.998  22.837  0.00  0.00    +0.000 C 
ATOM      6  C   UNL     1      -0.796  10.327  23.305  0.00  0.00    +0.000 C 
ATOM      7  C   UNL     1      -0.927  11.335  22.145  0.00  0.00    +0.000 C 
ATOM      8  C   UNL     1       0.382  11.439  21.341  0.00  0.00    +0.000 C 
ENDROOT
BRANCH   7   9
ATOM      9  C   UNL     1      -1.335  12.672  22.685  0.00  0.00    +0.000 A 
ATOM     10  N   UNL     1      -0.541  13.551  23.262  0.00  0.00    +0.000 NA
ATOM     11  N   UNL     1      -1.293  14.639  23.642  0.00  0.00    +0.000 NA
ATOM     12  C   UNL     1      -2.532  14.411  23.277  0.00  0.00    +0.000 A 
ATOM     13  C   UNL     1      -3.722  15.180  23.395  0.00  0.00    +0.000 A 
ATOM     14  C   UNL     1      -4.878  14.689  22.906  0.00  0.00    +0.000 A 
ATOM     15  C   UNL     1      -4.938  13.381  22.267  0.00  0.00    +0.000 A 
ATOM     16  C   UNL     1      -3.815  12.653  22.158  0.00  0.00    +0.000 A 
ATOM     17  N   UNL     1      -2.622  13.173  22.659  0.00  0.00    +0.000 N 
ENDBRANCH   7   9
BRANCH   2  18
ATOM     18  C   UNL     1       1.810   8.612  19.256  0.00  0.00    +0.000 A 
ATOM     19  C   UNL     1       2.359   8.133  18.086  0.00  0.00    +0.000 A 
ATOM     20  C   UNL     1       2.963   6.894  18.394  0.00  0.00    +0.000 A 
ATOM     21  N   UNL     1       2.678   6.542  19.658  0.00  0.00    +0.000 NA
ATOM     22  N   UNL     1       1.951   7.572  20.135  0.00  0.00    +0.000 N 
ATOM     23  H   UNL     1       1.595   7.525  21.085  0.00  0.00    +0.000 HD
BRANCH  20  24
ATOM     24  C   UNL     1       3.735   6.067  17.476  0.00  0.00    +0.000 A 
ATOM     25  C   UNL     1       4.710   6.650  16.662  0.00  0.00    +0.000 A 
ATOM     26  C   UNL     1       5.525   5.849  15.857  0.00  0.00    +0.000 A 
ATOM     27  C   UNL     1       5.363   4.465  15.845  0.00  0.00    +0.000 A 
ATOM     28  C   UNL     1       4.378   3.872  16.634  0.00  0.00    +0.000 A 
ATOM     29  C   UNL     1       3.574   4.675  17.440  0.00  0.00    +0.000 A 
ATOM     30  F   UNL     1       2.640   4.067  18.196  0.00  0.00    +0.000 F 
ENDBRANCH  20  24
ENDBRANCH   2  18
TORSDOF 3
ENDMDL
MODEL 8
REMARK VINA RESULT:      -8.2      1.834      2.589
REMARK  Name = 
REMARK  3 active torsions:
REMARK  status: ('A' for Active; 'I' for Inactive)
REMARK    1  A    between atoms: C_2  and  C_3
REMARK    2  A    between atoms: C_5  and  C_6
REMARK    3  A    between atoms: C_19  and  C_20
REMARK                            x       y       z     vdW  Elec       q    Type
REMARK                         _______ _______ _______ _____ _____    ______ ____
ROOT
ATOM      1  O   UNL     1       1.306  10.565  21.473  0.00  0.00    +0.000 OA
ATOM      2  C   UNL     1       0.711  10.132  20.488  0.00  0.00    +0.000 C 
ATOM      3  N   UNL     1      -0.618  10.489  20.218  0.00  0.00    +0.000 N 
ATOM      4  C   UNL     1      -1.349  10.229  18.983  0.00  0.00    +0.000 C 
ATOM      5  C   UNL     1      -1.886  11.511  18.374  0.00  0.00    +0.000 C 
ATOM      6  C   UNL     1      -2.733  12.281  19.368  0.00  0.00    +0.000 C 
ATOM      7  C   UNL     1      -1.988  12.510  20.699  0.00  0.00    +0.000 C 
ATOM      8  C   UNL     1      -1.397  11.197  21.244  0.00  0.00    +0.000 C 
ENDROOT
BRANCH   7   9
ATOM      9  C   UNL     1      -2.917  13.137  21.694  0.00  0.00    +0.000 A 
ATOM     10  N   UNL     1      -4.234  13.099  21.657  0.00  0.00    +0.000 NA
ATOM     11  N   UNL     1      -4.724  13.809  22.728  0.00  0.00    +0.000 NA
ATOM     12  C   UNL     1      -3.697  14.258  23.409  0.00  0.00    +0.000 A 
ATOM     13  C   UNL     1      -3.600  15.028  24.600  0.00  0.00    +0.000 A 
ATOM     14  C   UNL     1      -2.384  15.337  25.091  0.00  0.00    +0.000 A 
ATOM     15  C   UNL     1      -1.163  14.907  24.423  0.00  0.00    +0.000 A 
ATOM     16  C   UNL     1      -1.254  14.182  23.296  0.00  0.00    +0.000 A 
ATOM     17  N   UNL     1      -2.516  13.859  22.801  0.00  0.00    +0.000 N 
ENDBRANCH   7   9
BRANCH   2  18
ATOM     18  C   UNL     1       1.397   9.273  19.549  0.00  0.00    +0.000 A 
ATOM     19  C   UNL     1       1.908   7.997  19.643  0.00  0.00    +0.000 A 
ATOM     20  C   UNL     1       2.377   7.649  18.356  0.00  0.00    +0.000 A 
ATOM     21  N   UNL     1       2.302   8.707  17.534  0.00  0.00    +0.000 NA
ATOM     22  N   UNL     1       1.749   9.677  18.289  0.00  0.00    +0.000 N 
ATOM     23  H   UNL     1       1.608  10.597  17.883  0.00  0.00    +0.000 HD
BRANCH  20  24
ATOM     24  C   UNL     1       2.926   6.357  17.968  0.00  0.00    +0.000 A 
ATOM     25  C   UNL     1       2.125   5.212  18.018  0.00  0.00    +0.000 A 
ATOM     26  C   UNL     1       2.613   3.990  17.548  0.00  0.00    +0.000 A 
ATOM     27  C   UNL     1       3.908   3.896  17.040  0.00  0.00    +0.000 A 
ATOM     28  C   UNL     1       4.726   5.024  17.005  0.00  0.00    +0.000 A 
ATOM     29  C   UNL     1       4.231   6.241  17.469  0.00  0.00    +0.000 A 
ATOM     30  F   UNL     1       5.046   7.311  17.412  0.00  0.00    +0.000 F 
ENDBRANCH  20  24
ENDBRANCH   2  18
TORSDOF 3
ENDMDL
MODEL 9
REMARK VINA RESULT:      -8.2      1.058      1.186
REMARK  Name = 
REMARK  3 active torsions:
REMARK  status: ('A' for Active; 'I' for Inactive)
REMARK    1  A    between atoms: C_2  and  C_3
REMARK    2  A    between atoms: C_5  and  C_6
REMARK    3  A    between atoms: C_19  and  C_20
REMARK                            x       y       z     vdW  Elec       q    Type
REMARK                         _______ _______ _______ _____ _____    ______ ____
ROOT
ATOM      1  O   UNL     1       0.291  11.591  18.692  0.00  0.00    +0.000 OA
ATOM      2  C   UNL     1       0.741  10.721  19.435  0.00  0.00    +0.000 C 
ATOM      3  N   UNL     1       0.545  10.768  20.822  0.00  0.00    +0.000 N 
ATOM      4  C   UNL     1       0.827   9.697  21.772  0.00  0.00    +0.000 C 
ATOM      5  C   UNL     1      -0.406   9.324  22.573  0.00  0.00    +0.000 C 
ATOM      6  C   UNL     1      -1.003  10.535  23.263  0.00  0.00    +0.000 C 
ATOM      7  C   UNL     1      -1.250  11.694  22.276  0.00  0.00    +0.000 C 
ATOM      8  C   UNL     1       0.004  11.991  21.433  0.00  0.00    +0.000 C 
ENDROOT
BRANCH   7   9
ATOM      9  C   UNL     1      -1.693  12.911  23.029  0.00  0.00    +0.000 A 
ATOM     10  N   UNL     1      -0.912  13.738  23.696  0.00  0.00    +0.000 NA
ATOM     11  N   UNL     1      -1.694  14.713  24.271  0.00  0.00    +0.000 NA
ATOM     12  C   UNL     1      -2.939  14.472  23.934  0.00  0.00    +0.000 A 
ATOM     13  C   UNL     1      -4.156  15.147  24.222  0.00  0.00    +0.000 A 
ATOM     14  C   UNL     1      -5.312  14.670  23.719  0.00  0.00    +0.000 A 
ATOM     15  C   UNL     1      -5.343  13.471  22.893  0.00  0.00    +0.000 A 
ATOM     16  C   UNL     1      -4.194  12.831  22.623  0.00  0.00    +0.000 A 
ATOM     17  N   UNL     1      -3.002  13.337  23.140  0.00  0.00    +0.000 N 
ENDBRANCH   7   9
BRANCH   2  18
ATOM     18  C   UNL     1       1.448   9.589  18.878  0.00  0.00    +0.000 A 
ATOM     19  C   UNL     1       1.841   8.377  19.402  0.00  0.00    +0.000 A 
ATOM     20  C   UNL     1       2.411   7.638  18.340  0.00  0.00    +0.000 A 
ATOM     21  N   UNL     1       2.508   8.405  17.243  0.00  0.00    +0.000 NA
ATOM     22  N   UNL     1       1.961   9.582  17.609  0.00  0.00    +0.000 N 
ATOM     23  H   UNL     1       1.939  10.344  16.938  0.00  0.00    +0.000 HD
BRANCH  20  24
ATOM     24  C   UNL     1       2.890   6.265  18.416  0.00  0.00    +0.000 A 
ATOM     25  C   UNL     1       3.843   5.806  17.502  0.00  0.00    +0.000 A 
ATOM     26  C   UNL     1       4.384   4.524  17.634  0.00  0.00    +0.000 A 
ATOM     27  C   UNL     1       3.967   3.685  18.666  0.00  0.00    +0.000 A 
ATOM     28  C   UNL     1       3.000   4.121  19.571  0.00  0.00    +0.000 A 
ATOM     29  C   UNL     1       2.470   5.402  19.438  0.00  0.00    +0.000 A 
ATOM     30  F   UNL     1       1.546   5.793  20.335  0.00  0.00    +0.000 F 
ENDBRANCH  20  24
ENDBRANCH   2  18
TORSDOF 3
ENDMDL
