MODEL 1
REMARK VINA RESULT:      -7.6      0.000      0.000
REMARK  Name = 
REMARK  6 active torsions:
REMARK  status: ('A' for Active; 'I' for Inactive)
REMARK    1  A    between atoms: C_1  and  N_2
REMARK    2  A    between atoms: C_3  and  C_4
REMARK    3  A    between atoms: C_4  and  N_5
REMARK    4  A    between atoms: C_4  and  C_18
REMARK    5  A    between atoms: C_6  and  C_8
REMARK    6  A    between atoms: C_13  and  C_14
REMARK                            x       y       z     vdW  Elec       q    Type
REMARK                         _______ _______ _______ _____ _____    ______ ____
ROOT
ATOM      1  C   UNL     1       0.123  10.976  19.162  0.00  0.00    +0.000 C 
ENDROOT
BRANCH   1   4
ATOM      2  C   UNL     1       0.445   8.603  21.166  0.00  0.00    +0.000 C 
ATOM      3  N   UNL     1       1.129   8.737  19.901  0.00  0.00    +0.000 N 
ATOM      4  C   UNL     1       1.011   9.765  18.986  0.00  0.00    +0.000 A 
ATOM      5  N   UNL     1       1.802   9.546  17.944  0.00  0.00    +0.000 NA
ATOM      6  C   UNL     1       2.418   8.346  18.180  0.00  0.00    +0.000 A 
ATOM      7  C   UNL     1       3.325   7.638  17.380  0.00  0.00    +0.000 A 
ATOM      8  C   UNL     1       3.845   6.429  17.857  0.00  0.00    +0.000 A 
ATOM      9  C   UNL     1       3.470   5.936  19.108  0.00  0.00    +0.000 A 
ATOM     10  C   UNL     1       2.555   6.623  19.913  0.00  0.00    +0.000 A 
ATOM     11  C   UNL     1       2.039   7.826  19.412  0.00  0.00    +0.000 A 
ENDBRANCH   1   4
BRANCH   1  12
ATOM     12  C   UNL     1      -1.234  10.887  18.465  0.00  0.00    +0.000 A 
ATOM     13  C   UNL     1      -2.275  11.735  18.894  0.00  0.00    +0.000 A 
ATOM     14  C   UNL     1      -3.554  11.645  18.338  0.00  0.00    +0.000 A 
ATOM     15  C   UNL     1      -3.815  10.718  17.333  0.00  0.00    +0.000 A 
ATOM     16  C   UNL     1      -2.790   9.905  16.861  0.00  0.00    +0.000 A 
ATOM     17  C   UNL     1      -1.509   9.995  17.414  0.00  0.00    +0.000 A 
ENDBRANCH   1  12
BRANCH   1  18
ATOM     18  N   UNL     1       0.871  12.131  18.691  0.00  0.00    +0.000 N 
ATOM     19  C   UNL     1       1.451  13.008  19.580  0.00  0.00    +0.000 C 
ATOM     20  O   UNL     1       1.305  12.936  20.794  0.00  0.00    +0.000 OA
ATOM     21  H   UNL     1       1.217  12.064  17.743  0.00  0.00    +0.000 HD
BRANCH  19  22
ATOM     22  C   UNL     1       2.211  14.153  19.005  0.00  0.00    +0.000 A 
ATOM     23  C   UNL     1       3.537  13.916  18.599  0.00  0.00    +0.000 A 
ATOM     24  C   UNL     1       4.227  14.862  17.840  0.00  0.00    +0.000 A 
ATOM     25  C   UNL     1       3.595  16.041  17.462  0.00  0.00    +0.000 A 
ATOM     26  C   UNL     1       2.296  16.306  17.897  0.00  0.00    +0.000 A 
ATOM     27  C   UNL     1       1.597  15.380  18.706  0.00  0.00    +0.000 A 
BRANCH  27  28
ATOM     28  C   UNL     1       0.227  15.792  19.196  0.00  0.00    +0.000 C 
ATOM     29  F   UNL     1      -0.252  16.973  18.728  0.00  0.00    +0.000 F 
ATOM     30  F   UNL     1      -0.714  14.873  18.812  0.00  0.00    +0.000 F 
ATOM     31  F   UNL     1       0.139  15.834  20.554  0.00  0.00    +0.000 F 
ENDBRANCH  27  28
ENDBRANCH  19  22
ENDBRANCH   1  18
TORSDOF 5
ENDMDL
MODEL 2
REMARK VINA RESULT:      -7.6      0.163      1.124
REMARK  Name = 
REMARK  6 active torsions:
REMARK  status: ('A' for Active; 'I' for Inactive)
REMARK    1  A    between atoms: C_1  and  N_2
REMARK    2  A    between atoms: C_3  and  C_4
REMARK    3  A    between atoms: C_4  and  N_5
REMARK    4  A    between atoms: C_4  and  C_18
REMARK    5  A    between atoms: C_6  and  C_8
REMARK    6  A    between atoms: C_13  and  C_14
REMARK                            x       y       z     vdW  Elec       q    Type
REMARK                         _______ _______ _______ _____ _____    ______ ____
ROOT
ATOM      1  C   UNL     1       0.273  10.914  19.217  0.00  0.00    +0.000 C 
ENDROOT
BRANCH   1   4
ATOM      2  C   UNL     1       0.581   8.472  21.138  0.00  0.00    +0.000 C 
ATOM      3  N   UNL     1       1.252   8.637  19.870  0.00  0.00    +0.000 N 
ATOM      4  C   UNL     1       1.139   9.696  18.990  0.00  0.00    +0.000 A 
ATOM      5  N   UNL     1       1.914   9.499  17.932  0.00  0.00    +0.000 NA
ATOM      6  C   UNL     1       2.513   8.282  18.121  0.00  0.00    +0.000 A 
ATOM      7  C   UNL     1       3.399   7.587  17.286  0.00  0.00    +0.000 A 
ATOM      8  C   UNL     1       3.906   6.355  17.717  0.00  0.00    +0.000 A 
ATOM      9  C   UNL     1       3.538   5.827  18.955  0.00  0.00    +0.000 A 
ATOM     10  C   UNL     1       2.644   6.502  19.795  0.00  0.00    +0.000 A 
ATOM     11  C   UNL     1       2.141   7.728  19.340  0.00  0.00    +0.000 A 
ENDBRANCH   1   4
BRANCH   1  12
ATOM     12  C   UNL     1      -1.112  10.849  18.574  0.00  0.00    +0.000 A 
ATOM     13  C   UNL     1      -1.324   9.954  17.507  0.00  0.00    +0.000 A 
ATOM     14  C   UNL     1      -2.551   9.905  16.839  0.00  0.00    +0.000 A 
ATOM     15  C   UNL     1      -3.595  10.737  17.234  0.00  0.00    +0.000 A 
ATOM     16  C   UNL     1      -3.423  11.593  18.317  0.00  0.00    +0.000 A 
ATOM     17  C   UNL     1      -2.196  11.642  18.987  0.00  0.00    +0.000 A 
ENDBRANCH   1  12
BRANCH   1  18
ATOM     18  N   UNL     1       1.014  12.067  18.731  0.00  0.00    +0.000 N 
ATOM     19  C   UNL     1       1.527  12.998  19.607  0.00  0.00    +0.000 C 
ATOM     20  O   UNL     1       1.323  12.975  20.814  0.00  0.00    +0.000 OA
ATOM     21  H   UNL     1       1.409  11.968  17.805  0.00  0.00    +0.000 HD
BRANCH  19  22
ATOM     22  C   UNL     1       2.287  14.137  19.018  0.00  0.00    +0.000 A 
ATOM     23  C   UNL     1       3.632  13.913  18.674  0.00  0.00    +0.000 A 
ATOM     24  C   UNL     1       4.333  14.844  17.907  0.00  0.00    +0.000 A 
ATOM     25  C   UNL     1       3.693  15.994  17.459  0.00  0.00    +0.000 A 
ATOM     26  C   UNL     1       2.373  16.247  17.832  0.00  0.00    +0.000 A 
ATOM     27  C   UNL     1       1.661  15.338  18.648  0.00  0.00    +0.000 A 
BRANCH  27  28
ATOM     28  C   UNL     1       0.264  15.738  19.068  0.00  0.00    +0.000 C 
ATOM     29  F   UNL     1       0.063  15.922  20.398  0.00  0.00    +0.000 F 
ATOM     30  F   UNL     1      -0.077  16.941  18.508  0.00  0.00    +0.000 F 
ATOM     31  F   UNL     1      -0.690  14.869  18.635  0.00  0.00    +0.000 F 
ENDBRANCH  27  28
ENDBRANCH  19  22
ENDBRANCH   1  18
TORSDOF 5
ENDMDL
MODEL 3
REMARK VINA RESULT:      -7.5      3.983      6.621
REMARK  Name = 
REMARK  6 active torsions:
REMARK  status: ('A' for Active; 'I' for Inactive)
REMARK    1  A    between atoms: C_1  and  N_2
REMARK    2  A    between atoms: C_3  and  C_4
REMARK    3  A    between atoms: C_4  and  N_5
REMARK    4  A    between atoms: C_4  and  C_18
REMARK    5  A    between atoms: C_6  and  C_8
REMARK    6  A    between atoms: C_13  and  C_14
REMARK                            x       y       z     vdW  Elec       q    Type
REMARK                         _______ _______ _______ _____ _____    ______ ____
ROOT
ATOM      1  C   UNL     1       3.314   5.955  19.533  0.00  0.00    +0.000 C 
ENDROOT
BRANCH   1   4
ATOM      2  C   UNL     1       6.365   5.298  19.640  0.00  0.00    +0.000 C 
ATOM      3  N   UNL     1       5.562   5.379  18.444  0.00  0.00    +0.000 N 
ATOM      4  C   UNL     1       4.212   5.661  18.353  0.00  0.00    +0.000 A 
ATOM      5  N   UNL     1       3.825   5.656  17.085  0.00  0.00    +0.000 NA
ATOM      6  C   UNL     1       4.937   5.340  16.350  0.00  0.00    +0.000 A 
ATOM      7  C   UNL     1       5.069   5.170  14.965  0.00  0.00    +0.000 A 
ATOM      8  C   UNL     1       6.332   4.873  14.439  0.00  0.00    +0.000 A 
ATOM      9  C   UNL     1       7.441   4.748  15.277  0.00  0.00    +0.000 A 
ATOM     10  C   UNL     1       7.323   4.900  16.663  0.00  0.00    +0.000 A 
ATOM     11  C   UNL     1       6.048   5.187  17.169  0.00  0.00    +0.000 A 
ENDBRANCH   1   4
BRANCH   1  12
ATOM     12  C   UNL     1       2.460   4.778  20.002  0.00  0.00    +0.000 A 
ATOM     13  C   UNL     1       2.658   4.269  21.301  0.00  0.00    +0.000 A 
ATOM     14  C   UNL     1       1.952   3.151  21.753  0.00  0.00    +0.000 A 
ATOM     15  C   UNL     1       1.024   2.529  20.924  0.00  0.00    +0.000 A 
ATOM     16  C   UNL     1       0.777   3.044  19.656  0.00  0.00    +0.000 A 
ATOM     17  C   UNL     1       1.481   4.164  19.202  0.00  0.00    +0.000 A 
ENDBRANCH   1  12
BRANCH   1  18
ATOM     18  N   UNL     1       2.479   7.087  19.168  0.00  0.00    +0.000 N 
ATOM     19  C   UNL     1       1.893   7.875  20.134  0.00  0.00    +0.000 C 
ATOM     20  O   UNL     1       1.954   7.632  21.333  0.00  0.00    +0.000 OA
ATOM     21  H   UNL     1       2.627   7.452  18.236  0.00  0.00    +0.000 HD
BRANCH  19  22
ATOM     22  C   UNL     1       1.067   9.023  19.665  0.00  0.00    +0.000 A 
ATOM     23  C   UNL     1       1.212   9.425  18.325  0.00  0.00    +0.000 A 
ATOM     24  C   UNL     1       0.313  10.324  17.752  0.00  0.00    +0.000 A 
ATOM     25  C   UNL     1      -0.750  10.813  18.502  0.00  0.00    +0.000 A 
ATOM     26  C   UNL     1      -0.878  10.456  19.845  0.00  0.00    +0.000 A 
ATOM     27  C   UNL     1       0.051   9.583  20.457  0.00  0.00    +0.000 A 
BRANCH  27  28
ATOM     28  C   UNL     1      -0.122   9.320  21.936  0.00  0.00    +0.000 C 
ATOM     29  F   UNL     1       0.991   9.433  22.703  0.00  0.00    +0.000 F 
ATOM     30  F   UNL     1      -0.998  10.222  22.481  0.00  0.00    +0.000 F 
ATOM     31  F   UNL     1      -0.669   8.101  22.198  0.00  0.00    +0.000 F 
ENDBRANCH  27  28
ENDBRANCH  19  22
ENDBRANCH   1  18
TORSDOF 5
ENDMDL
MODEL 4
REMARK VINA RESULT:      -7.4      1.752      2.494
REMARK  Name = 
REMARK  6 active torsions:
REMARK  status: ('A' for Active; 'I' for Inactive)
REMARK    1  A    between atoms: C_1  and  N_2
REMARK    2  A    between atoms: C_3  and  C_4
REMARK    3  A    between atoms: C_4  and  N_5
REMARK    4  A    between atoms: C_4  and  C_18
REMARK    5  A    between atoms: C_6  and  C_8
REMARK    6  A    between atoms: C_13  and  C_14
REMARK                            x       y       z     vdW  Elec       q    Type
REMARK                         _______ _______ _______ _____ _____    ______ ____
ROOT
ATOM      1  C   UNL     1      -0.876  11.743  19.541  0.00  0.00    +0.000 C 
ENDROOT
BRANCH   1   4
ATOM      2  C   UNL     1      -0.272   9.496  21.623  0.00  0.00    +0.000 C 
ATOM      3  N   UNL     1       0.305   9.600  20.303  0.00  0.00    +0.000 N 
ATOM      4  C   UNL     1       0.062  10.572  19.352  0.00  0.00    +0.000 A 
ATOM      5  N   UNL     1       0.782  10.341  18.263  0.00  0.00    +0.000 NA
ATOM      6  C   UNL     1       1.479   9.188  18.506  0.00  0.00    +0.000 A 
ATOM      7  C   UNL     1       2.360   8.487  17.671  0.00  0.00    +0.000 A 
ATOM      8  C   UNL     1       2.981   7.332  18.162  0.00  0.00    +0.000 A 
ATOM      9  C   UNL     1       2.730   6.886  19.460  0.00  0.00    +0.000 A 
ATOM     10  C   UNL     1       1.842   7.565  20.302  0.00  0.00    +0.000 A 
ATOM     11  C   UNL     1       1.224   8.712  19.787  0.00  0.00    +0.000 A 
ENDBRANCH   1   4
BRANCH   1  12
ATOM     12  C   UNL     1      -2.306  11.509  19.055  0.00  0.00    +0.000 A 
ATOM     13  C   UNL     1      -2.540  10.512  18.087  0.00  0.00    +0.000 A 
ATOM     14  C   UNL     1      -3.817  10.305  17.559  0.00  0.00    +0.000 A 
ATOM     15  C   UNL     1      -4.887  11.079  17.997  0.00  0.00    +0.000 A 
ATOM     16  C   UNL     1      -4.688  12.035  18.986  0.00  0.00    +0.000 A 
ATOM     17  C   UNL     1      -3.412  12.242  19.518  0.00  0.00    +0.000 A 
ENDBRANCH   1  12
BRANCH   1  18
ATOM     18  N   UNL     1      -0.281  12.885  18.865  0.00  0.00    +0.000 N 
ATOM     19  C   UNL     1       0.163  13.977  19.578  0.00  0.00    +0.000 C 
ATOM     20  O   UNL     1       0.008  14.103  20.787  0.00  0.00    +0.000 OA
ATOM     21  H   UNL     1       0.087  12.697  17.941  0.00  0.00    +0.000 HD
BRANCH  19  22
ATOM     22  C   UNL     1       0.774  15.092  18.802  0.00  0.00    +0.000 A 
ATOM     23  C   UNL     1      -0.033  16.209  18.520  0.00  0.00    +0.000 A 
ATOM     24  C   UNL     1       0.528  17.381  18.013  0.00  0.00    +0.000 A 
ATOM     25  C   UNL     1       1.899  17.457  17.803  0.00  0.00    +0.000 A 
ATOM     26  C   UNL     1       2.703  16.341  18.036  0.00  0.00    +0.000 A 
ATOM     27  C   UNL     1       2.146  15.129  18.505  0.00  0.00    +0.000 A 
BRANCH  27  28
ATOM     28  C   UNL     1       3.083  13.950  18.649  0.00  0.00    +0.000 C 
ATOM     29  F   UNL     1       2.779  12.845  17.921  0.00  0.00    +0.000 F 
ATOM     30  F   UNL     1       4.344  14.289  18.232  0.00  0.00    +0.000 F 
ATOM     31  F   UNL     1       3.239  13.549  19.941  0.00  0.00    +0.000 F 
ENDBRANCH  27  28
ENDBRANCH  19  22
ENDBRANCH   1  18
TORSDOF 5
ENDMDL
MODEL 5
REMARK VINA RESULT:      -7.4      6.913      9.904
REMARK  Name = 
REMARK  6 active torsions:
REMARK  status: ('A' for Active; 'I' for Inactive)
REMARK    1  A    between atoms: C_1  and  N_2
REMARK    2  A    between atoms: C_3  and  C_4
REMARK    3  A    between atoms: C_4  and  N_5
REMARK    4  A    between atoms: C_4  and  C_18
REMARK    5  A    between atoms: C_6  and  C_8
REMARK    6  A    between atoms: C_13  and  C_14
REMARK                            x       y       z     vdW  Elec       q    Type
REMARK                         _______ _______ _______ _____ _____    ______ ____
ROOT
ATOM      1  C   UNL     1       6.219   4.421  16.295  0.00  0.00    +0.000 C 
ENDROOT
BRANCH   1   4
ATOM      2  C   UNL     1       8.271   4.691  18.633  0.00  0.00    +0.000 C 
ATOM      3  N   UNL     1       7.672   5.786  17.906  0.00  0.00    +0.000 N 
ATOM      4  C   UNL     1       6.768   5.709  16.865  0.00  0.00    +0.000 A 
ATOM      5  N   UNL     1       6.436   6.926  16.453  0.00  0.00    +0.000 NA
ATOM      6  C   UNL     1       7.159   7.797  17.223  0.00  0.00    +0.000 A 
ATOM      7  C   UNL     1       7.207   9.197  17.176  0.00  0.00    +0.000 A 
ATOM      8  C   UNL     1       8.011   9.877  18.099  0.00  0.00    +0.000 A 
ATOM      9  C   UNL     1       8.752   9.174  19.050  0.00  0.00    +0.000 A 
ATOM     10  C   UNL     1       8.727   7.776  19.102  0.00  0.00    +0.000 A 
ATOM     11  C   UNL     1       7.923   7.116  18.162  0.00  0.00    +0.000 A 
ENDBRANCH   1   4
BRANCH   1  12
ATOM     12  C   UNL     1       6.307   4.300  14.774  0.00  0.00    +0.000 A 
ATOM     13  C   UNL     1       5.271   3.639  14.084  0.00  0.00    +0.000 A 
ATOM     14  C   UNL     1       5.336   3.440  12.703  0.00  0.00    +0.000 A 
ATOM     15  C   UNL     1       6.429   3.910  11.980  0.00  0.00    +0.000 A 
ATOM     16  C   UNL     1       7.439   4.608  12.633  0.00  0.00    +0.000 A 
ATOM     17  C   UNL     1       7.375   4.810  14.016  0.00  0.00    +0.000 A 
ENDBRANCH   1  12
BRANCH   1  18
ATOM     18  N   UNL     1       4.842   4.302  16.744  0.00  0.00    +0.000 N 
ATOM     19  C   UNL     1       4.543   3.744  17.967  0.00  0.00    +0.000 C 
ATOM     20  O   UNL     1       5.381   3.236  18.702  0.00  0.00    +0.000 OA
ATOM     21  H   UNL     1       4.186   4.929  16.297  0.00  0.00    +0.000 HD
BRANCH  19  22
ATOM     22  C   UNL     1       3.104   3.680  18.350  0.00  0.00    +0.000 A 
ATOM     23  C   UNL     1       2.417   2.477  18.106  0.00  0.00    +0.000 A 
ATOM     24  C   UNL     1       1.150   2.259  18.648  0.00  0.00    +0.000 A 
ATOM     25  C   UNL     1       0.567   3.229  19.454  0.00  0.00    +0.000 A 
ATOM     26  C   UNL     1       1.219   4.444  19.667  0.00  0.00    +0.000 A 
ATOM     27  C   UNL     1       2.484   4.702  19.088  0.00  0.00    +0.000 A 
BRANCH  27  28
ATOM     28  C   UNL     1       3.074   6.077  19.306  0.00  0.00    +0.000 C 
ATOM     29  F   UNL     1       2.394   6.898  20.146  0.00  0.00    +0.000 F 
ATOM     30  F   UNL     1       4.319   5.978  19.869  0.00  0.00    +0.000 F 
ATOM     31  F   UNL     1       3.269   6.762  18.146  0.00  0.00    +0.000 F 
ENDBRANCH  27  28
ENDBRANCH  19  22
ENDBRANCH   1  18
TORSDOF 5
ENDMDL
MODEL 6
REMARK VINA RESULT:      -7.3      1.987      2.935
REMARK  Name = 
REMARK  6 active torsions:
REMARK  status: ('A' for Active; 'I' for Inactive)
REMARK    1  A    between atoms: C_1  and  N_2
REMARK    2  A    between atoms: C_3  and  C_4
REMARK    3  A    between atoms: C_4  and  N_5
REMARK    4  A    between atoms: C_4  and  C_18
REMARK    5  A    between atoms: C_6  and  C_8
REMARK    6  A    between atoms: C_13  and  C_14
REMARK                            x       y       z     vdW  Elec       q    Type
REMARK                         _______ _______ _______ _____ _____    ______ ____
ROOT
ATOM      1  C   UNL     1      -1.291  12.695  19.981  0.00  0.00    +0.000 C 
ENDROOT
BRANCH   1   4
ATOM      2  C   UNL     1      -0.585  10.472  22.057  0.00  0.00    +0.000 C 
ATOM      3  N   UNL     1      -0.130  10.522  20.687  0.00  0.00    +0.000 N 
ATOM      4  C   UNL     1      -0.422  11.482  19.738  0.00  0.00    +0.000 A 
ATOM      5  N   UNL     1       0.184  11.197  18.593  0.00  0.00    +0.000 NA
ATOM      6  C   UNL     1       0.855  10.021  18.802  0.00  0.00    +0.000 A 
ATOM      7  C   UNL     1       1.626   9.266  17.907  0.00  0.00    +0.000 A 
ATOM      8  C   UNL     1       2.244   8.098  18.369  0.00  0.00    +0.000 A 
ATOM      9  C   UNL     1       2.098   7.691  19.696  0.00  0.00    +0.000 A 
ATOM     10  C   UNL     1       1.320   8.426  20.598  0.00  0.00    +0.000 A 
ATOM     11  C   UNL     1       0.701   9.586  20.112  0.00  0.00    +0.000 A 
ENDBRANCH   1   4
BRANCH   1  12
ATOM     12  C   UNL     1      -2.788  12.466  19.781  0.00  0.00    +0.000 A 
ATOM     13  C   UNL     1      -3.683  12.916  20.773  0.00  0.00    +0.000 A 
ATOM     14  C   UNL     1      -5.055  12.670  20.672  0.00  0.00    +0.000 A 
ATOM     15  C   UNL     1      -5.562  11.984  19.573  0.00  0.00    +0.000 A 
ATOM     16  C   UNL     1      -4.704  11.574  18.559  0.00  0.00    +0.000 A 
ATOM     17  C   UNL     1      -3.331  11.821  18.656  0.00  0.00    +0.000 A 
ENDBRANCH   1  12
BRANCH   1  18
ATOM     18  N   UNL     1      -0.809  13.753  19.108  0.00  0.00    +0.000 N 
ATOM     19  C   UNL     1      -0.150  14.849  19.621  0.00  0.00    +0.000 C 
ATOM     20  O   UNL     1      -0.009  15.052  20.820  0.00  0.00    +0.000 OA
ATOM     21  H   UNL     1      -0.680  13.489  18.140  0.00  0.00    +0.000 HD
BRANCH  19  22
ATOM     22  C   UNL     1       0.322  15.873  18.647  0.00  0.00    +0.000 A 
ATOM     23  C   UNL     1      -0.595  16.861  18.244  0.00  0.00    +0.000 A 
ATOM     24  C   UNL     1      -0.166  17.980  17.531  0.00  0.00    +0.000 A 
ATOM     25  C   UNL     1       1.182  18.135  17.232  0.00  0.00    +0.000 A 
ATOM     26  C   UNL     1       2.095  17.141  17.587  0.00  0.00    +0.000 A 
ATOM     27  C   UNL     1       1.671  15.976  18.270  0.00  0.00    +0.000 A 
BRANCH  27  28
ATOM     28  C   UNL     1       2.717  14.917  18.539  0.00  0.00    +0.000 C 
ATOM     29  F   UNL     1       3.020  14.686  19.841  0.00  0.00    +0.000 F 
ATOM     30  F   UNL     1       2.295  13.700  18.072  0.00  0.00    +0.000 F 
ATOM     31  F   UNL     1       3.890  15.153  17.890  0.00  0.00    +0.000 F 
ENDBRANCH  27  28
ENDBRANCH  19  22
ENDBRANCH   1  18
TORSDOF 5
ENDMDL
MODEL 7
REMARK VINA RESULT:      -7.3      5.498      8.210
REMARK  Name = 
REMARK  6 active torsions:
REMARK  status: ('A' for Active; 'I' for Inactive)
REMARK    1  A    between atoms: C_1  and  N_2
REMARK    2  A    between atoms: C_3  and  C_4
REMARK    3  A    between atoms: C_4  and  N_5
REMARK    4  A    between atoms: C_4  and  C_18
REMARK    5  A    between atoms: C_6  and  C_8
REMARK    6  A    between atoms: C_13  and  C_14
REMARK                            x       y       z     vdW  Elec       q    Type
REMARK                         _______ _______ _______ _____ _____    ______ ____
ROOT
ATOM      1  C   UNL     1       2.397   6.602  18.555  0.00  0.00    +0.000 C 
ENDROOT
BRANCH   1   4
ATOM      2  C   UNL     1       1.626   9.531  17.792  0.00  0.00    +0.000 C 
ATOM      3  N   UNL     1       1.427   8.915  19.083  0.00  0.00    +0.000 N 
ATOM      4  C   UNL     1       1.747   7.626  19.459  0.00  0.00    +0.000 A 
ATOM      5  N   UNL     1       1.423   7.423  20.729  0.00  0.00    +0.000 NA
ATOM      6  C   UNL     1       0.861   8.591  21.169  0.00  0.00    +0.000 A 
ATOM      7  C   UNL     1       0.317   8.901  22.423  0.00  0.00    +0.000 A 
ATOM      8  C   UNL     1      -0.179  10.191  22.644  0.00  0.00    +0.000 A 
ATOM      9  C   UNL     1      -0.135  11.154  21.634  0.00  0.00    +0.000 A 
ATOM     10  C   UNL     1       0.390  10.857  20.371  0.00  0.00    +0.000 A 
ATOM     11  C   UNL     1       0.873   9.557  20.169  0.00  0.00    +0.000 A 
ENDBRANCH   1   4
BRANCH   1  12
ATOM     12  C   UNL     1       2.054   5.148  18.876  0.00  0.00    +0.000 A 
ATOM     13  C   UNL     1       2.263   4.167  17.887  0.00  0.00    +0.000 A 
ATOM     14  C   UNL     1       1.901   2.835  18.105  0.00  0.00    +0.000 A 
ATOM     15  C   UNL     1       1.337   2.454  19.319  0.00  0.00    +0.000 A 
ATOM     16  C   UNL     1       1.168   3.396  20.327  0.00  0.00    +0.000 A 
ATOM     17  C   UNL     1       1.531   4.730  20.112  0.00  0.00    +0.000 A 
ENDBRANCH   1  12
BRANCH   1  18
ATOM     18  N   UNL     1       3.833   6.821  18.618  0.00  0.00    +0.000 N 
ATOM     19  C   UNL     1       4.570   7.016  17.471  0.00  0.00    +0.000 C 
ATOM     20  O   UNL     1       4.101   6.929  16.343  0.00  0.00    +0.000 OA
ATOM     21  H   UNL     1       4.181   7.150  19.509  0.00  0.00    +0.000 HD
BRANCH  19  22
ATOM     22  C   UNL     1       6.032   7.248  17.636  0.00  0.00    +0.000 A 
ATOM     23  C   UNL     1       6.509   8.558  17.445  0.00  0.00    +0.000 A 
ATOM     24  C   UNL     1       7.811   8.900  17.811  0.00  0.00    +0.000 A 
ATOM     25  C   UNL     1       8.640   7.946  18.389  0.00  0.00    +0.000 A 
ATOM     26  C   UNL     1       8.194   6.633  18.542  0.00  0.00    +0.000 A 
ATOM     27  C   UNL     1       6.893   6.256  18.134  0.00  0.00    +0.000 A 
BRANCH  27  28
ATOM     28  C   UNL     1       6.528   4.794  18.262  0.00  0.00    +0.000 C 
ATOM     29  F   UNL     1       5.778   4.269  17.260  0.00  0.00    +0.000 F 
ATOM     30  F   UNL     1       7.658   4.020  18.277  0.00  0.00    +0.000 F 
ATOM     31  F   UNL     1       5.892   4.506  19.432  0.00  0.00    +0.000 F 
ENDBRANCH  27  28
ENDBRANCH  19  22
ENDBRANCH   1  18
TORSDOF 5
ENDMDL
MODEL 8
REMARK VINA RESULT:      -7.3      1.790      2.425
REMARK  Name = 
REMARK  6 active torsions:
REMARK  status: ('A' for Active; 'I' for Inactive)
REMARK    1  A    between atoms: C_1  and  N_2
REMARK    2  A    between atoms: C_3  and  C_4
REMARK    3  A    between atoms: C_4  and  N_5
REMARK    4  A    between atoms: C_4  and  C_18
REMARK    5  A    between atoms: C_6  and  C_8
REMARK    6  A    between atoms: C_13  and  C_14
REMARK                            x       y       z     vdW  Elec       q    Type
REMARK                         _______ _______ _______ _____ _____    ______ ____
ROOT
ATOM      1  C   UNL     1      -1.034  11.914  19.552  0.00  0.00    +0.000 C 
ENDROOT
BRANCH   1   4
ATOM      2  C   UNL     1      -0.384   9.736  21.694  0.00  0.00    +0.000 C 
ATOM      3  N   UNL     1       0.166   9.799  20.360  0.00  0.00    +0.000 N 
ATOM      4  C   UNL     1      -0.098  10.739  19.384  0.00  0.00    +0.000 A 
ATOM      5  N   UNL     1       0.601  10.474  18.288  0.00  0.00    +0.000 NA
ATOM      6  C   UNL     1       1.306   9.331  18.555  0.00  0.00    +0.000 A 
ATOM      7  C   UNL     1       2.171   8.605  17.725  0.00  0.00    +0.000 A 
ATOM      8  C   UNL     1       2.805   7.468  18.241  0.00  0.00    +0.000 A 
ATOM      9  C   UNL     1       2.581   7.063  19.558  0.00  0.00    +0.000 A 
ATOM     10  C   UNL     1       1.708   7.768  20.395  0.00  0.00    +0.000 A 
ATOM     11  C   UNL     1       1.077   8.897  19.855  0.00  0.00    +0.000 A 
ENDBRANCH   1   4
BRANCH   1  12
ATOM     12  C   UNL     1      -2.462  11.676  19.063  0.00  0.00    +0.000 A 
ATOM     13  C   UNL     1      -3.516  12.388  19.670  0.00  0.00    +0.000 A 
ATOM     14  C   UNL     1      -4.846  12.157  19.308  0.00  0.00    +0.000 A 
ATOM     15  C   UNL     1      -5.148  11.221  18.323  0.00  0.00    +0.000 A 
ATOM     16  C   UNL     1      -4.121  10.543  17.676  0.00  0.00    +0.000 A 
ATOM     17  C   UNL     1      -2.790  10.775  18.036  0.00  0.00    +0.000 A 
ENDBRANCH   1  12
BRANCH   1  18
ATOM     18  N   UNL     1      -0.434  13.046  18.865  0.00  0.00    +0.000 N 
ATOM     19  C   UNL     1       0.102  14.100  19.571  0.00  0.00    +0.000 C 
ATOM     20  O   UNL     1       0.031  14.203  20.790  0.00  0.00    +0.000 OA
ATOM     21  H   UNL     1      -0.136  12.866  17.915  0.00  0.00    +0.000 HD
BRANCH  19  22
ATOM     22  C   UNL     1       0.710  15.207  18.781  0.00  0.00    +0.000 A 
ATOM     23  C   UNL     1      -0.089  16.333  18.515  0.00  0.00    +0.000 A 
ATOM     24  C   UNL     1       0.476  17.498  17.995  0.00  0.00    +0.000 A 
ATOM     25  C   UNL     1       1.843  17.558  17.757  0.00  0.00    +0.000 A 
ATOM     26  C   UNL     1       2.639  16.432  17.975  0.00  0.00    +0.000 A 
ATOM     27  C   UNL     1       2.077  15.227  18.457  0.00  0.00    +0.000 A 
BRANCH  27  28
ATOM     28  C   UNL     1       3.002  14.038  18.583  0.00  0.00    +0.000 C 
ATOM     29  F   UNL     1       3.116  13.490  19.819  0.00  0.00    +0.000 F 
ATOM     30  F   UNL     1       2.562  13.005  17.797  0.00  0.00    +0.000 F 
ATOM     31  F   UNL     1       4.264  14.298  18.142  0.00  0.00    +0.000 F 
ENDBRANCH  27  28
ENDBRANCH  19  22
ENDBRANCH   1  18
TORSDOF 5
ENDMDL
MODEL 9
REMARK VINA RESULT:      -7.3      3.590      7.413
REMARK  Name = 
REMARK  6 active torsions:
REMARK  status: ('A' for Active; 'I' for Inactive)
REMARK    1  A    between atoms: C_1  and  N_2
REMARK    2  A    between atoms: C_3  and  C_4
REMARK    3  A    between atoms: C_4  and  N_5
REMARK    4  A    between atoms: C_4  and  C_18
REMARK    5  A    between atoms: C_6  and  C_8
REMARK    6  A    between atoms: C_13  and  C_14
REMARK                            x       y       z     vdW  Elec       q    Type
REMARK                         _______ _______ _______ _____ _____    ______ ____
ROOT
ATOM      1  C   UNL     1       0.582  10.373  19.364  0.00  0.00    +0.000 C 
ENDROOT
BRANCH   1   4
ATOM      2  C   UNL     1      -1.923  11.999  20.277  0.00  0.00    +0.000 C 
ATOM      3  N   UNL     1      -1.800  11.263  19.041  0.00  0.00    +0.000 N 
ATOM      4  C   UNL     1      -0.711  10.537  18.598  0.00  0.00    +0.000 A 
ATOM      5  N   UNL     1      -0.971   9.991  17.418  0.00  0.00    +0.000 NA
ATOM      6  C   UNL     1      -2.237  10.394  17.083  0.00  0.00    +0.000 A 
ATOM      7  C   UNL     1      -2.979  10.127  15.925  0.00  0.00    +0.000 A 
ATOM      8  C   UNL     1      -4.281  10.632  15.825  0.00  0.00    +0.000 A 
ATOM      9  C   UNL     1      -4.832  11.388  16.861  0.00  0.00    +0.000 A 
ATOM     10  C   UNL     1      -4.099  11.677  18.018  0.00  0.00    +0.000 A 
ATOM     11  C   UNL     1      -2.795  11.169  18.092  0.00  0.00    +0.000 A 
ENDBRANCH   1   4
BRANCH   1  12
ATOM     12  C   UNL     1       1.462  11.621  19.418  0.00  0.00    +0.000 A 
ATOM     13  C   UNL     1       1.580  12.317  20.638  0.00  0.00    +0.000 A 
ATOM     14  C   UNL     1       2.315  13.502  20.725  0.00  0.00    +0.000 A 
ATOM     15  C   UNL     1       2.960  14.008  19.600  0.00  0.00    +0.000 A 
ATOM     16  C   UNL     1       2.897  13.312  18.397  0.00  0.00    +0.000 A 
ATOM     17  C   UNL     1       2.163  12.124  18.309  0.00  0.00    +0.000 A 
ENDBRANCH   1  12
BRANCH   1  18
ATOM     18  N   UNL     1       1.300   9.261  18.764  0.00  0.00    +0.000 N 
ATOM     19  C   UNL     1       1.862   8.277  19.548  0.00  0.00    +0.000 C 
ATOM     20  O   UNL     1       1.878   8.315  20.772  0.00  0.00    +0.000 OA
ATOM     21  H   UNL     1       1.077   9.073  17.796  0.00  0.00    +0.000 HD
BRANCH  19  22
ATOM     22  C   UNL     1       2.564   7.167  18.844  0.00  0.00    +0.000 A 
ATOM     23  C   UNL     1       3.389   7.504  17.756  0.00  0.00    +0.000 A 
ATOM     24  C   UNL     1       4.256   6.562  17.203  0.00  0.00    +0.000 A 
ATOM     25  C   UNL     1       4.325   5.284  17.744  0.00  0.00    +0.000 A 
ATOM     26  C   UNL     1       3.480   4.924  18.795  0.00  0.00    +0.000 A 
ATOM     27  C   UNL     1       2.560   5.852  19.337  0.00  0.00    +0.000 A 
BRANCH  27  28
ATOM     28  C   UNL     1       1.629   5.346  20.417  0.00  0.00    +0.000 C 
ATOM     29  F   UNL     1       0.559   6.130  20.706  0.00  0.00    +0.000 F 
ATOM     30  F   UNL     1       1.077   4.148  20.048  0.00  0.00    +0.000 F 
ATOM     31  F   UNL     1       2.268   5.090  21.592  0.00  0.00    +0.000 F 
ENDBRANCH  27  28
ENDBRANCH  19  22
ENDBRANCH   1  18
TORSDOF 5
ENDMDL
