MODEL 1
REMARK VINA RESULT:      -9.3      0.000      0.000
REMARK  Name = 
REMARK  3 active torsions:
REMARK  status: ('A' for Active; 'I' for Inactive)
REMARK    1  A    between atoms: C_2  and  C_3
REMARK    2  A    between atoms: C_6  and  N_7
REMARK    3  A    between atoms: C_18  and  C_19
REMARK                            x       y       z     vdW  Elec       q    Type
REMARK                         _______ _______ _______ _____ _____    ______ ____
ROOT
ATOM      1  O   UNL     1       4.278   7.157  16.141  0.00  0.00    +0.000 OA
ATOM      2  C   UNL     1       4.175   6.638  17.257  0.00  0.00    +0.000 C 
ATOM      3  N   UNL     1       5.151   5.758  17.749  0.00  0.00    +0.000 N 
ATOM      4  C   UNL     1       5.184   5.162  19.082  0.00  0.00    +0.000 C 
ATOM      5  C   UNL     1       6.565   5.455  19.616  0.00  0.00    +0.000 C 
ATOM      6  C   UNL     1       7.418   5.310  18.380  0.00  0.00    +0.000 C 
ATOM      7  C   UNL     1       6.534   5.872  17.246  0.00  0.00    +0.000 C 
ENDROOT
BRANCH   7   8
ATOM      8  C   UNL     1       6.831   5.165  15.953  0.00  0.00    +0.000 A 
ATOM      9  N   UNL     1       7.654   5.587  15.004  0.00  0.00    +0.000 NA
ATOM     10  C   UNL     1       7.303   4.905  13.869  0.00  0.00    +0.000 A 
ATOM     11  C   UNL     1       7.771   5.052  12.552  0.00  0.00    +0.000 A 
ATOM     12  C   UNL     1       7.175   4.291  11.537  0.00  0.00    +0.000 A 
ATOM     13  C   UNL     1       6.151   3.389  11.837  0.00  0.00    +0.000 A 
ATOM     14  C   UNL     1       5.696   3.205  13.150  0.00  0.00    +0.000 A 
ATOM     15  C   UNL     1       6.293   3.990  14.144  0.00  0.00    +0.000 A 
ATOM     16  N   UNL     1       6.076   4.113  15.495  0.00  0.00    +0.000 N 
ATOM     17  H   UNL     1       5.385   3.618  16.050  0.00  0.00    +0.000 HD
ENDBRANCH   7   8
BRANCH   2  18
ATOM     18  C   UNL     1       3.079   7.110  18.177  0.00  0.00    +0.000 A 
ATOM     19  C   UNL     1       2.755   6.466  19.376  0.00  0.00    +0.000 A 
ATOM     20  C   UNL     1       2.076   7.150  20.395  0.00  0.00    +0.000 A 
ATOM     21  C   UNL     1       1.560   8.429  20.156  0.00  0.00    +0.000 A 
ATOM     22  C   UNL     1       1.707   8.994  18.880  0.00  0.00    +0.000 A 
ATOM     23  C   UNL     1       2.480   8.347  17.903  0.00  0.00    +0.000 A 
BRANCH  21  24
ATOM     24  N   UNL     1       0.885   9.150  21.176  0.00  0.00    +0.000 N 
ATOM     25  C   UNL     1       1.136   9.178  22.529  0.00  0.00    +0.000 A 
ATOM     26  N   UNL     1       0.235   9.905  23.151  0.00  0.00    +0.000 NA
ATOM     27  C   UNL     1      -0.549  10.342  22.129  0.00  0.00    +0.000 A 
ATOM     28  N   UNL     1      -0.174   9.954  20.909  0.00  0.00    +0.000 NA
ENDBRANCH  21  24
ENDBRANCH   2  18
TORSDOF 3
ENDMDL
MODEL 2
REMARK VINA RESULT:      -9.2      1.277      1.749
REMARK  Name = 
REMARK  3 active torsions:
REMARK  status: ('A' for Active; 'I' for Inactive)
REMARK    1  A    between atoms: C_2  and  C_3
REMARK    2  A    between atoms: C_6  and  N_7
REMARK    3  A    between atoms: C_18  and  C_19
REMARK                            x       y       z     vdW  Elec       q    Type
REMARK                         _______ _______ _______ _____ _____    ______ ____
ROOT
ATOM      1  O   UNL     1       4.810   7.385  17.295  0.00  0.00    +0.000 OA
ATOM      2  C   UNL     1       3.864   6.724  17.737  0.00  0.00    +0.000 C 
ATOM      3  N   UNL     1       3.924   5.325  17.823  0.00  0.00    +0.000 N 
ATOM      4  C   UNL     1       2.912   4.452  18.413  0.00  0.00    +0.000 C 
ATOM      5  C   UNL     1       3.660   3.577  19.389  0.00  0.00    +0.000 C 
ATOM      6  C   UNL     1       4.961   3.337  18.663  0.00  0.00    +0.000 C 
ATOM      7  C   UNL     1       5.242   4.673  17.943  0.00  0.00    +0.000 C 
ENDROOT
BRANCH   7   8
ATOM      8  C   UNL     1       5.982   4.428  16.657  0.00  0.00    +0.000 A 
ATOM      9  N   UNL     1       6.948   5.183  16.157  0.00  0.00    +0.000 NA
ATOM     10  C   UNL     1       7.026   4.866  14.827  0.00  0.00    +0.000 A 
ATOM     11  C   UNL     1       7.797   5.450  13.807  0.00  0.00    +0.000 A 
ATOM     12  C   UNL     1       7.622   5.002  12.491  0.00  0.00    +0.000 A 
ATOM     13  C   UNL     1       6.714   3.978  12.205  0.00  0.00    +0.000 A 
ATOM     14  C   UNL     1       5.962   3.362  13.215  0.00  0.00    +0.000 A 
ATOM     15  C   UNL     1       6.140   3.839  14.520  0.00  0.00    +0.000 A 
ATOM     16  N   UNL     1       5.555   3.519  15.720  0.00  0.00    +0.000 N 
ATOM     17  H   UNL     1       4.830   2.826  15.881  0.00  0.00    +0.000 HD
ENDBRANCH   7   8
BRANCH   2  18
ATOM     18  C   UNL     1       2.706   7.452  18.371  0.00  0.00    +0.000 A 
ATOM     19  C   UNL     1       2.316   7.259  19.700  0.00  0.00    +0.000 A 
ATOM     20  C   UNL     1       1.565   8.234  20.374  0.00  0.00    +0.000 A 
ATOM     21  C   UNL     1       1.050   9.329  19.672  0.00  0.00    +0.000 A 
ATOM     22  C   UNL     1       1.269   9.415  18.289  0.00  0.00    +0.000 A 
ATOM     23  C   UNL     1       2.110   8.493  17.646  0.00  0.00    +0.000 A 
BRANCH  21  24
ATOM     24  N   UNL     1       0.303  10.339  20.334  0.00  0.00    +0.000 N 
ATOM     25  C   UNL     1      -0.842  10.981  19.921  0.00  0.00    +0.000 A 
ATOM     26  N   UNL     1      -1.184  11.916  20.780  0.00  0.00    +0.000 NA
ATOM     27  C   UNL     1      -0.228  11.797  21.741  0.00  0.00    +0.000 A 
ATOM     28  N   UNL     1       0.668  10.828  21.545  0.00  0.00    +0.000 NA
ENDBRANCH  21  24
ENDBRANCH   2  18
TORSDOF 3
ENDMDL
MODEL 3
REMARK VINA RESULT:      -8.4      1.355      1.915
REMARK  Name = 
REMARK  3 active torsions:
REMARK  status: ('A' for Active; 'I' for Inactive)
REMARK    1  A    between atoms: C_2  and  C_3
REMARK    2  A    between atoms: C_6  and  N_7
REMARK    3  A    between atoms: C_18  and  C_19
REMARK                            x       y       z     vdW  Elec       q    Type
REMARK                         _______ _______ _______ _____ _____    ______ ____
ROOT
ATOM      1  O   UNL     1       3.904   8.000  17.155  0.00  0.00    +0.000 OA
ATOM      2  C   UNL     1       3.194   7.215  17.791  0.00  0.00    +0.000 C 
ATOM      3  N   UNL     1       3.434   5.833  17.776  0.00  0.00    +0.000 N 
ATOM      4  C   UNL     1       2.726   4.824  18.559  0.00  0.00    +0.000 C 
ATOM      5  C   UNL     1       3.804   4.026  19.251  0.00  0.00    +0.000 C 
ATOM      6  C   UNL     1       4.880   3.970  18.195  0.00  0.00    +0.000 C 
ATOM      7  C   UNL     1       4.802   5.349  17.506  0.00  0.00    +0.000 C 
ENDROOT
BRANCH   7   8
ATOM      8  C   UNL     1       5.192   5.232  16.059  0.00  0.00    +0.000 A 
ATOM      9  N   UNL     1       4.688   4.378  15.181  0.00  0.00    +0.000 NA
ATOM     10  C   UNL     1       5.594   4.311  14.155  0.00  0.00    +0.000 A 
ATOM     11  C   UNL     1       5.613   3.474  13.027  0.00  0.00    +0.000 A 
ATOM     12  C   UNL     1       6.716   3.533  12.164  0.00  0.00    +0.000 A 
ATOM     13  C   UNL     1       7.762   4.425  12.412  0.00  0.00    +0.000 A 
ATOM     14  C   UNL     1       7.742   5.292  13.514  0.00  0.00    +0.000 A 
ATOM     15  C   UNL     1       6.640   5.201  14.372  0.00  0.00    +0.000 A 
ATOM     16  N   UNL     1       6.313   5.837  15.545  0.00  0.00    +0.000 N 
ATOM     17  H   UNL     1       6.861   6.539  16.032  0.00  0.00    +0.000 HD
ENDBRANCH   7   8
BRANCH   2  18
ATOM     18  C   UNL     1       2.173   7.774  18.749  0.00  0.00    +0.000 A 
ATOM     19  C   UNL     1       2.072   7.366  20.083  0.00  0.00    +0.000 A 
ATOM     20  C   UNL     1       1.451   8.187  21.036  0.00  0.00    +0.000 A 
ATOM     21  C   UNL     1       0.772   9.341  20.631  0.00  0.00    +0.000 A 
ATOM     22  C   UNL     1       0.699   9.642  19.262  0.00  0.00    +0.000 A 
ATOM     23  C   UNL     1       1.413   8.874  18.329  0.00  0.00    +0.000 A 
BRANCH  21  24
ATOM     24  N   UNL     1       0.152  10.199  21.577  0.00  0.00    +0.000 N 
ATOM     25  C   UNL     1      -0.364   9.893  22.816  0.00  0.00    +0.000 A 
ATOM     26  N   UNL     1      -0.930  10.950  23.355  0.00  0.00    +0.000 NA
ATOM     27  C   UNL     1      -0.712  11.912  22.418  0.00  0.00    +0.000 A 
ATOM     28  N   UNL     1      -0.021  11.524  21.344  0.00  0.00    +0.000 NA
ENDBRANCH  21  24
ENDBRANCH   2  18
TORSDOF 3
ENDMDL
MODEL 4
REMARK VINA RESULT:      -8.1      1.731      9.251
REMARK  Name = 
REMARK  3 active torsions:
REMARK  status: ('A' for Active; 'I' for Inactive)
REMARK    1  A    between atoms: C_2  and  C_3
REMARK    2  A    between atoms: C_6  and  N_7
REMARK    3  A    between atoms: C_18  and  C_19
REMARK                            x       y       z     vdW  Elec       q    Type
REMARK                         _______ _______ _______ _____ _____    ______ ____
ROOT
ATOM      1  O   UNL     1       2.679   7.749  17.639  0.00  0.00    +0.000 OA
ATOM      2  C   UNL     1       3.340   6.810  18.094  0.00  0.00    +0.000 C 
ATOM      3  N   UNL     1       3.087   6.288  19.372  0.00  0.00    +0.000 N 
ATOM      4  C   UNL     1       3.735   5.125  19.974  0.00  0.00    +0.000 C 
ATOM      5  C   UNL     1       2.607   4.241  20.449  0.00  0.00    +0.000 C 
ATOM      6  C   UNL     1       1.599   5.252  20.938  0.00  0.00    +0.000 C 
ATOM      7  C   UNL     1       1.735   6.427  19.946  0.00  0.00    +0.000 C 
ENDROOT
BRANCH   7   8
ATOM      8  C   UNL     1       1.436   7.730  20.635  0.00  0.00    +0.000 A 
ATOM      9  N   UNL     1       1.048   7.875  21.893  0.00  0.00    +0.000 NA
ATOM     10  C   UNL     1       0.483   9.121  21.973  0.00  0.00    +0.000 A 
ATOM     11  C   UNL     1      -0.191   9.735  23.042  0.00  0.00    +0.000 A 
ATOM     12  C   UNL     1      -0.770  10.995  22.837  0.00  0.00    +0.000 A 
ATOM     13  C   UNL     1      -0.656  11.634  21.600  0.00  0.00    +0.000 A 
ATOM     14  C   UNL     1       0.042  11.051  20.534  0.00  0.00    +0.000 A 
ATOM     15  C   UNL     1       0.595   9.784  20.756  0.00  0.00    +0.000 A 
ATOM     16  N   UNL     1       1.285   8.910  19.951  0.00  0.00    +0.000 N 
ATOM     17  H   UNL     1       1.530   9.043  18.974  0.00  0.00    +0.000 HD
ENDBRANCH   7   8
BRANCH   2  18
ATOM     18  C   UNL     1       4.302   6.092  17.184  0.00  0.00    +0.000 A 
ATOM     19  C   UNL     1       4.250   4.714  16.947  0.00  0.00    +0.000 A 
ATOM     20  C   UNL     1       4.835   4.163  15.797  0.00  0.00    +0.000 A 
ATOM     21  C   UNL     1       5.626   4.961  14.964  0.00  0.00    +0.000 A 
ATOM     22  C   UNL     1       5.848   6.301  15.315  0.00  0.00    +0.000 A 
ATOM     23  C   UNL     1       5.173   6.868  16.407  0.00  0.00    +0.000 A 
BRANCH  21  24
ATOM     24  N   UNL     1       6.214   4.432  13.784  0.00  0.00    +0.000 N 
ATOM     25  C   UNL     1       7.342   4.850  13.115  0.00  0.00    +0.000 A 
ATOM     26  N   UNL     1       7.512   4.152  12.014  0.00  0.00    +0.000 NA
ATOM     27  C   UNL     1       6.469   3.279  12.054  0.00  0.00    +0.000 A 
ATOM     28  N   UNL     1       5.680   3.373  13.126  0.00  0.00    +0.000 NA
ENDBRANCH  21  24
ENDBRANCH   2  18
TORSDOF 3
ENDMDL
MODEL 5
REMARK VINA RESULT:      -8.1      3.592     10.988
REMARK  Name = 
REMARK  3 active torsions:
REMARK  status: ('A' for Active; 'I' for Inactive)
REMARK    1  A    between atoms: C_2  and  C_3
REMARK    2  A    between atoms: C_6  and  N_7
REMARK    3  A    between atoms: C_18  and  C_19
REMARK                            x       y       z     vdW  Elec       q    Type
REMARK                         _______ _______ _______ _____ _____    ______ ____
ROOT
ATOM      1  O   UNL     1       0.554  11.444  20.770  0.00  0.00    +0.000 OA
ATOM      2  C   UNL     1       0.191  10.549  19.999  0.00  0.00    +0.000 C 
ATOM      3  N   UNL     1      -1.055  10.597  19.356  0.00  0.00    +0.000 N 
ATOM      4  C   UNL     1      -1.549   9.651  18.358  0.00  0.00    +0.000 C 
ATOM      5  C   UNL     1      -2.002  10.500  17.195  0.00  0.00    +0.000 C 
ATOM      6  C   UNL     1      -2.598  11.697  17.892  0.00  0.00    +0.000 C 
ATOM      7  C   UNL     1      -1.688  11.909  19.120  0.00  0.00    +0.000 C 
ENDROOT
BRANCH   7   8
ATOM      8  C   UNL     1      -2.478  12.481  20.264  0.00  0.00    +0.000 A 
ATOM      9  N   UNL     1      -2.145  12.431  21.545  0.00  0.00    +0.000 NA
ATOM     10  C   UNL     1      -3.300  12.661  22.245  0.00  0.00    +0.000 A 
ATOM     11  C   UNL     1      -3.538  12.604  23.629  0.00  0.00    +0.000 A 
ATOM     12  C   UNL     1      -4.847  12.789  24.094  0.00  0.00    +0.000 A 
ATOM     13  C   UNL     1      -5.887  13.048  23.199  0.00  0.00    +0.000 A 
ATOM     14  C   UNL     1      -5.661  13.143  21.819  0.00  0.00    +0.000 A 
ATOM     15  C   UNL     1      -4.349  12.935  21.376  0.00  0.00    +0.000 A 
ATOM     16  N   UNL     1      -3.778  12.903  20.127  0.00  0.00    +0.000 N 
ATOM     17  H   UNL     1      -4.248  13.031  19.236  0.00  0.00    +0.000 HD
ENDBRANCH   7   8
BRANCH   2  18
ATOM     18  C   UNL     1       1.185   9.490  19.599  0.00  0.00    +0.000 A 
ATOM     19  C   UNL     1       1.520   8.405  20.417  0.00  0.00    +0.000 A 
ATOM     20  C   UNL     1       2.073   7.240  19.867  0.00  0.00    +0.000 A 
ATOM     21  C   UNL     1       2.459   7.214  18.522  0.00  0.00    +0.000 A 
ATOM     22  C   UNL     1       2.313   8.377  17.750  0.00  0.00    +0.000 A 
ATOM     23  C   UNL     1       1.660   9.501  18.281  0.00  0.00    +0.000 A 
BRANCH  21  24
ATOM     24  N   UNL     1       3.004   6.041  17.937  0.00  0.00    +0.000 N 
ATOM     25  C   UNL     1       2.456   4.781  17.851  0.00  0.00    +0.000 A 
ATOM     26  N   UNL     1       3.310   3.942  17.307  0.00  0.00    +0.000 NA
ATOM     27  C   UNL     1       4.379   4.741  17.039  0.00  0.00    +0.000 A 
ATOM     28  N   UNL     1       4.230   6.028  17.356  0.00  0.00    +0.000 NA
ENDBRANCH  21  24
ENDBRANCH   2  18
TORSDOF 3
ENDMDL
MODEL 6
REMARK VINA RESULT:      -8.1      4.237      9.454
REMARK  Name = 
REMARK  3 active torsions:
REMARK  status: ('A' for Active; 'I' for Inactive)
REMARK    1  A    between atoms: C_2  and  C_3
REMARK    2  A    between atoms: C_6  and  N_7
REMARK    3  A    between atoms: C_18  and  C_19
REMARK                            x       y       z     vdW  Elec       q    Type
REMARK                         _______ _______ _______ _____ _____    ______ ____
ROOT
ATOM      1  O   UNL     1       0.947   9.999  18.824  0.00  0.00    +0.000 OA
ATOM      2  C   UNL     1       1.271   9.408  19.859  0.00  0.00    +0.000 C 
ATOM      3  N   UNL     1       0.965   9.925  21.126  0.00  0.00    +0.000 N 
ATOM      4  C   UNL     1       1.211   9.272  22.409  0.00  0.00    +0.000 C 
ATOM      5  C   UNL     1      -0.109   9.315  23.139  0.00  0.00    +0.000 C 
ATOM      6  C   UNL     1      -0.648  10.665  22.734  0.00  0.00    +0.000 C 
ATOM      7  C   UNL     1      -0.195  10.826  21.268  0.00  0.00    +0.000 C 
ENDROOT
BRANCH   7   8
ATOM      8  C   UNL     1       0.047  12.276  20.952  0.00  0.00    +0.000 A 
ATOM      9  N   UNL     1      -0.884  13.194  20.739  0.00  0.00    +0.000 NA
ATOM     10  C   UNL     1      -0.260  14.219  20.078  0.00  0.00    +0.000 A 
ATOM     11  C   UNL     1      -0.802  15.385  19.511  0.00  0.00    +0.000 A 
ATOM     12  C   UNL     1       0.045  16.241  18.795  0.00  0.00    +0.000 A 
ATOM     13  C   UNL     1       1.405  15.949  18.667  0.00  0.00    +0.000 A 
ATOM     14  C   UNL     1       1.969  14.808  19.255  0.00  0.00    +0.000 A 
ATOM     15  C   UNL     1       1.100  13.958  19.950  0.00  0.00    +0.000 A 
ATOM     16  N   UNL     1       1.282  12.759  20.594  0.00  0.00    +0.000 N 
ATOM     17  H   UNL     1       2.149  12.237  20.682  0.00  0.00    +0.000 HD
ENDBRANCH   7   8
BRANCH   2  18
ATOM     18  C   UNL     1       1.835   8.014  19.750  0.00  0.00    +0.000 A 
ATOM     19  C   UNL     1       1.638   7.030  20.725  0.00  0.00    +0.000 A 
ATOM     20  C   UNL     1       1.773   5.671  20.406  0.00  0.00    +0.000 A 
ATOM     21  C   UNL     1       2.277   5.291  19.157  0.00  0.00    +0.000 A 
ATOM     22  C   UNL     1       2.670   6.287  18.250  0.00  0.00    +0.000 A 
ATOM     23  C   UNL     1       2.431   7.640  18.538  0.00  0.00    +0.000 A 
BRANCH  21  24
ATOM     24  N   UNL     1       2.405   3.922  18.803  0.00  0.00    +0.000 N 
ATOM     25  C   UNL     1       2.868   2.870  19.562  0.00  0.00    +0.000 A 
ATOM     26  N   UNL     1       2.911   1.768  18.847  0.00  0.00    +0.000 NA
ATOM     27  C   UNL     1       2.430   2.179  17.642  0.00  0.00    +0.000 A 
ATOM     28  N   UNL     1       2.064   3.460  17.574  0.00  0.00    +0.000 NA
ENDBRANCH  21  24
ENDBRANCH   2  18
TORSDOF 3
ENDMDL
MODEL 7
REMARK VINA RESULT:      -8.0      3.329     11.208
REMARK  Name = 
REMARK  3 active torsions:
REMARK  status: ('A' for Active; 'I' for Inactive)
REMARK    1  A    between atoms: C_2  and  C_3
REMARK    2  A    between atoms: C_6  and  N_7
REMARK    3  A    between atoms: C_18  and  C_19
REMARK                            x       y       z     vdW  Elec       q    Type
REMARK                         _______ _______ _______ _____ _____    ______ ____
ROOT
ATOM      1  O   UNL     1       1.409  10.580  21.446  0.00  0.00    +0.000 OA
ATOM      2  C   UNL     1       0.712  10.164  20.514  0.00  0.00    +0.000 C 
ATOM      3  N   UNL     1      -0.467  10.821  20.131  0.00  0.00    +0.000 N 
ATOM      4  C   UNL     1      -1.316  10.479  18.992  0.00  0.00    +0.000 C 
ATOM      5  C   UNL     1      -1.497  11.768  18.229  0.00  0.00    +0.000 C 
ATOM      6  C   UNL     1      -1.593  12.782  19.342  0.00  0.00    +0.000 C 
ATOM      7  C   UNL     1      -0.604  12.264  20.408  0.00  0.00    +0.000 C 
ENDROOT
BRANCH   7   8
ATOM      8  C   UNL     1      -1.079  12.635  21.785  0.00  0.00    +0.000 A 
ATOM      9  N   UNL     1      -2.260  12.340  22.309  0.00  0.00    +0.000 NA
ATOM     10  C   UNL     1      -2.436  13.208  23.354  0.00  0.00    +0.000 A 
ATOM     11  C   UNL     1      -3.559  13.410  24.175  0.00  0.00    +0.000 A 
ATOM     12  C   UNL     1      -3.522  14.439  25.124  0.00  0.00    +0.000 A 
ATOM     13  C   UNL     1      -2.381  15.233  25.265  0.00  0.00    +0.000 A 
ATOM     14  C   UNL     1      -1.240  15.023  24.478  0.00  0.00    +0.000 A 
ATOM     15  C   UNL     1      -1.307  14.001  23.524  0.00  0.00    +0.000 A 
ATOM     16  N   UNL     1      -0.426  13.553  22.570  0.00  0.00    +0.000 N 
ATOM     17  H   UNL     1       0.501  13.919  22.375  0.00  0.00    +0.000 HD
ENDBRANCH   7   8
BRANCH   2  18
ATOM     18  C   UNL     1       1.243   9.045  19.656  0.00  0.00    +0.000 A 
ATOM     19  C   UNL     1       1.547   9.199  18.299  0.00  0.00    +0.000 A 
ATOM     20  C   UNL     1       2.431   8.317  17.660  0.00  0.00    +0.000 A 
ATOM     21  C   UNL     1       2.881   7.172  18.326  0.00  0.00    +0.000 A 
ATOM     22  C   UNL     1       2.410   6.909  19.621  0.00  0.00    +0.000 A 
ATOM     23  C   UNL     1       1.613   7.851  20.290  0.00  0.00    +0.000 A 
BRANCH  21  24
ATOM     24  N   UNL     1       3.790   6.273  17.708  0.00  0.00    +0.000 N 
ATOM     25  C   UNL     1       3.690   4.909  17.553  0.00  0.00    +0.000 A 
ATOM     26  N   UNL     1       4.780   4.426  16.999  0.00  0.00    +0.000 NA
ATOM     27  C   UNL     1       5.529   5.543  16.795  0.00  0.00    +0.000 A 
ATOM     28  N   UNL     1       4.959   6.693  17.162  0.00  0.00    +0.000 NA
ENDBRANCH  21  24
ENDBRANCH   2  18
TORSDOF 3
ENDMDL
MODEL 8
REMARK VINA RESULT:      -8.0      1.929      3.183
REMARK  Name = 
REMARK  3 active torsions:
REMARK  status: ('A' for Active; 'I' for Inactive)
REMARK    1  A    between atoms: C_2  and  C_3
REMARK    2  A    between atoms: C_6  and  N_7
REMARK    3  A    between atoms: C_18  and  C_19
REMARK                            x       y       z     vdW  Elec       q    Type
REMARK                         _______ _______ _______ _____ _____    ______ ____
ROOT
ATOM      1  O   UNL     1       3.897   7.338  19.080  0.00  0.00    +0.000 OA
ATOM      2  C   UNL     1       2.791   6.860  19.355  0.00  0.00    +0.000 C 
ATOM      3  N   UNL     1       2.571   5.475  19.355  0.00  0.00    +0.000 N 
ATOM      4  C   UNL     1       1.341   4.795  19.754  0.00  0.00    +0.000 C 
ATOM      5  C   UNL     1       1.768   3.752  20.756  0.00  0.00    +0.000 C 
ATOM      6  C   UNL     1       3.086   3.288  20.187  0.00  0.00    +0.000 C 
ATOM      7  C   UNL     1       3.712   4.571  19.598  0.00  0.00    +0.000 C 
ENDROOT
BRANCH   7   8
ATOM      8  C   UNL     1       4.561   4.236  18.402  0.00  0.00    +0.000 A 
ATOM      9  N   UNL     1       5.867   4.430  18.294  0.00  0.00    +0.000 NA
ATOM     10  C   UNL     1       6.142   4.406  16.952  0.00  0.00    +0.000 A 
ATOM     11  C   UNL     1       7.345   4.674  16.277  0.00  0.00    +0.000 A 
ATOM     12  C   UNL     1       7.343   4.677  14.875  0.00  0.00    +0.000 A 
ATOM     13  C   UNL     1       6.172   4.396  14.167  0.00  0.00    +0.000 A 
ATOM     14  C   UNL     1       4.972   4.092  14.826  0.00  0.00    +0.000 A 
ATOM     15  C   UNL     1       4.993   4.114  16.225  0.00  0.00    +0.000 A 
ATOM     16  N   UNL     1       4.023   3.923  17.178  0.00  0.00    +0.000 N 
ATOM     17  H   UNL     1       3.041   3.718  17.018  0.00  0.00    +0.000 HD
ENDBRANCH   7   8
BRANCH   2  18
ATOM     18  C   UNL     1       1.717   7.776  19.884  0.00  0.00    +0.000 A 
ATOM     19  C   UNL     1       1.313   7.788  21.223  0.00  0.00    +0.000 A 
ATOM     20  C   UNL     1       0.670   8.911  21.765  0.00  0.00    +0.000 A 
ATOM     21  C   UNL     1       0.269   9.959  20.930  0.00  0.00    +0.000 A 
ATOM     22  C   UNL     1       0.492   9.853  19.549  0.00  0.00    +0.000 A 
ATOM     23  C   UNL     1       1.230   8.777  19.032  0.00  0.00    +0.000 A 
BRANCH  21  24
ATOM     24  N   UNL     1      -0.367  11.115  21.457  0.00  0.00    +0.000 N 
ATOM     25  C   UNL     1      -0.944  12.168  20.785  0.00  0.00    +0.000 A 
ATOM     26  N   UNL     1      -1.355  13.087  21.632  0.00  0.00    +0.000 NA
ATOM     27  C   UNL     1      -1.036  12.541  22.837  0.00  0.00    +0.000 A 
ATOM     28  N   UNL     1      -0.481  11.329  22.792  0.00  0.00    +0.000 NA
ENDBRANCH  21  24
ENDBRANCH   2  18
TORSDOF 3
ENDMDL
MODEL 9
REMARK VINA RESULT:      -8.0      3.722      9.178
REMARK  Name = 
REMARK  3 active torsions:
REMARK  status: ('A' for Active; 'I' for Inactive)
REMARK    1  A    between atoms: C_2  and  C_3
REMARK    2  A    between atoms: C_6  and  N_7
REMARK    3  A    between atoms: C_18  and  C_19
REMARK                            x       y       z     vdW  Elec       q    Type
REMARK                         _______ _______ _______ _____ _____    ______ ____
ROOT
ATOM      1  O   UNL     1       1.938   9.423  17.413  0.00  0.00    +0.000 OA
ATOM      2  C   UNL     1       2.060   8.661  18.378  0.00  0.00    +0.000 C 
ATOM      3  N   UNL     1       1.575   9.004  19.649  0.00  0.00    +0.000 N 
ATOM      4  C   UNL     1       1.576   8.151  20.834  0.00  0.00    +0.000 C 
ATOM      5  C   UNL     1       0.158   8.179  21.349  0.00  0.00    +0.000 C 
ATOM      6  C   UNL     1      -0.244   9.610  21.086  0.00  0.00    +0.000 C 
ATOM      7  C   UNL     1       0.451   9.955  19.751  0.00  0.00    +0.000 C 
ENDROOT
BRANCH   7   8
ATOM      8  C   UNL     1       0.810  11.415  19.711  0.00  0.00    +0.000 A 
ATOM      9  N   UNL     1       1.260  12.136  20.728  0.00  0.00    +0.000 NA
ATOM     10  C   UNL     1       1.040  13.445  20.389  0.00  0.00    +0.000 A 
ATOM     11  C   UNL     1       1.220  14.612  21.150  0.00  0.00    +0.000 A 
ATOM     12  C   UNL     1       0.826  15.840  20.602  0.00  0.00    +0.000 A 
ATOM     13  C   UNL     1       0.286  15.901  19.315  0.00  0.00    +0.000 A 
ATOM     14  C   UNL     1       0.131  14.750  18.529  0.00  0.00    +0.000 A 
ATOM     15  C   UNL     1       0.515  13.533  19.105  0.00  0.00    +0.000 A 
ATOM     16  N   UNL     1       0.463  12.233  18.665  0.00  0.00    +0.000 N 
ATOM     17  H   UNL     1       0.105  11.904  17.773  0.00  0.00    +0.000 HD
ENDBRANCH   7   8
BRANCH   2  18
ATOM     18  C   UNL     1       2.567   7.262  18.138  0.00  0.00    +0.000 A 
ATOM     19  C   UNL     1       3.925   6.925  18.163  0.00  0.00    +0.000 A 
ATOM     20  C   UNL     1       4.328   5.599  18.383  0.00  0.00    +0.000 A 
ATOM     21  C   UNL     1       3.378   4.573  18.405  0.00  0.00    +0.000 A 
ATOM     22  C   UNL     1       2.030   4.888  18.173  0.00  0.00    +0.000 A 
ATOM     23  C   UNL     1       1.625   6.227  18.061  0.00  0.00    +0.000 A 
BRANCH  21  24
ATOM     24  N   UNL     1       3.758   3.226  18.644  0.00  0.00    +0.000 N 
ATOM     25  C   UNL     1       3.354   2.082  17.993  0.00  0.00    +0.000 A 
ATOM     26  N   UNL     1       3.870   1.018  18.566  0.00  0.00    +0.000 NA
ATOM     27  C   UNL     1       4.622   1.555  19.564  0.00  0.00    +0.000 A 
ATOM     28  N   UNL     1       4.629   2.887  19.628  0.00  0.00    +0.000 NA
ENDBRANCH  21  24
ENDBRANCH   2  18
TORSDOF 3
ENDMDL
