MODEL 1
REMARK VINA RESULT:      -8.3      0.000      0.000
REMARK  Name = 
REMARK  8 active torsions:
REMARK  status: ('A' for Active; 'I' for Inactive)
REMARK    1  A    between atoms: C_1  and  C_2
REMARK    2  A    between atoms: C_8  and  C_9
REMARK    3  A    between atoms: C_9  and  C_10
REMARK    4  A    between atoms: C_13  and  C_14
REMARK    5  A    between atoms: N_16  and  C_17
REMARK    6  A    between atoms: C_17  and  C_18
REMARK    7  A    between atoms: N_20  and  C_21
REMARK    8  A    between atoms: N_20  and  C_22
REMARK                            x       y       z     vdW  Elec       q    Type
REMARK                         _______ _______ _______ _____ _____    ______ ____
ROOT
ATOM      1  C   UNL     1       6.817   5.517  17.165  0.00  0.00    +0.000 A 
ATOM      2  N   UNL     1       7.292   5.045  18.325  0.00  0.00    +0.000 NA
ATOM      3  O   UNL     1       7.878   6.183  18.909  0.00  0.00    +0.000 OA
ATOM      4  C   UNL     1       7.767   7.196  17.992  0.00  0.00    +0.000 A 
ATOM      5  N   UNL     1       7.161   6.813  16.891  0.00  0.00    +0.000 NA
ENDROOT
BRANCH   4   6
ATOM      6  C   UNL     1       8.193   8.601  18.198  0.00  0.00    +0.000 A 
ATOM      7  C   UNL     1       9.037   9.015  19.206  0.00  0.00    +0.000 A 
ATOM      8  N   UNL     1       9.239  10.334  18.952  0.00  0.00    +0.000 N 
ATOM      9  N   UNL     1       8.504  10.730  17.886  0.00  0.00    +0.000 NA
ATOM     10  N   UNL     1       7.858   9.667  17.418  0.00  0.00    +0.000 NA
BRANCH   8  11
ATOM     11  C   UNL     1       9.955  11.347  19.714  0.00  0.00    +0.000 C 
BRANCH  11  12
ATOM     12  C   UNL     1      10.951  12.200  18.949  0.00  0.00    +0.000 C 
ATOM     13  O   UNL     1      12.027  11.756  18.539  0.00  0.00    +0.000 OA
ATOM     14  N   UNL     1      10.596  13.535  18.733  0.00  0.00    +0.000 N 
ATOM     15  C   UNL     1       9.338  14.151  19.135  0.00  0.00    +0.000 C 
ATOM     16  C   UNL     1      11.502  14.394  17.980  0.00  0.00    +0.000 C 
ENDBRANCH  11  12
ENDBRANCH   8  11
ENDBRANCH   4   6
BRANCH   1  17
ATOM     17  C   UNL     1       5.710   4.827  16.342  0.00  0.00    +0.000 C 
ATOM     18  C   UNL     1       5.742   5.302  14.880  0.00  0.00    +0.000 C 
ATOM     19  C   UNL     1       6.111   3.893  15.199  0.00  0.00    +0.000 C 
BRANCH  17  27
ATOM     20  C   UNL     1       3.974   7.108  17.417  0.00  0.00    +0.000 C 
ATOM     21  C   UNL     1       3.575   5.660  17.562  0.00  0.00    +0.000 A 
ATOM     22  C   UNL     1       2.355   5.381  18.212  0.00  0.00    +0.000 A 
ATOM     23  C   UNL     1       1.901   4.075  18.356  0.00  0.00    +0.000 A 
ATOM     24  C   UNL     1       2.661   3.039  17.826  0.00  0.00    +0.000 A 
ATOM     25  F   UNL     1       2.227   1.783  17.947  0.00  0.00    +0.000 F 
ATOM     26  C   UNL     1       3.867   3.294  17.174  0.00  0.00    +0.000 A 
ATOM     27  C   UNL     1       4.368   4.603  17.032  0.00  0.00    +0.000 A 
ENDBRANCH  17  27
ENDBRANCH   1  17
TORSDOF 5
ENDMDL
MODEL 2
REMARK VINA RESULT:      -8.3      0.967      1.149
REMARK  Name = 
REMARK  8 active torsions:
REMARK  status: ('A' for Active; 'I' for Inactive)
REMARK    1  A    between atoms: C_1  and  C_2
REMARK    2  A    between atoms: C_8  and  C_9
REMARK    3  A    between atoms: C_9  and  C_10
REMARK    4  A    between atoms: C_13  and  C_14
REMARK    5  A    between atoms: N_16  and  C_17
REMARK    6  A    between atoms: C_17  and  C_18
REMARK    7  A    between atoms: N_20  and  C_21
REMARK    8  A    between atoms: N_20  and  C_22
REMARK                            x       y       z     vdW  Elec       q    Type
REMARK                         _______ _______ _______ _____ _____    ______ ____
ROOT
ATOM      1  C   UNL     1       6.754   6.055  17.099  0.00  0.00    +0.000 A 
ATOM      2  N   UNL     1       7.220   5.500  18.225  0.00  0.00    +0.000 NA
ATOM      3  O   UNL     1       7.901   6.566  18.841  0.00  0.00    +0.000 OA
ATOM      4  C   UNL     1       7.845   7.623  17.970  0.00  0.00    +0.000 A 
ATOM      5  N   UNL     1       7.187   7.332  16.870  0.00  0.00    +0.000 NA
ENDROOT
BRANCH   4   6
ATOM      6  C   UNL     1       8.378   8.982  18.223  0.00  0.00    +0.000 A 
ATOM      7  C   UNL     1       8.091  10.083  17.445  0.00  0.00    +0.000 A 
ATOM      8  N   UNL     1       8.690  11.116  18.094  0.00  0.00    +0.000 N 
ATOM      9  N   UNL     1       9.370  10.666  19.175  0.00  0.00    +0.000 NA
ATOM     10  N   UNL     1       9.182   9.353  19.259  0.00  0.00    +0.000 NA
BRANCH   8  11
ATOM     11  C   UNL     1       8.832  12.516  17.720  0.00  0.00    +0.000 C 
BRANCH  11  12
ATOM     12  C   UNL     1      10.228  13.108  17.805  0.00  0.00    +0.000 C 
ATOM     13  O   UNL     1      11.116  12.830  16.995  0.00  0.00    +0.000 OA
ATOM     14  N   UNL     1      10.471  13.990  18.861  0.00  0.00    +0.000 N 
ATOM     15  C   UNL     1       9.487  14.420  19.847  0.00  0.00    +0.000 C 
ATOM     16  C   UNL     1      11.784  14.610  18.976  0.00  0.00    +0.000 C 
ENDBRANCH  11  12
ENDBRANCH   8  11
ENDBRANCH   4   6
BRANCH   1  17
ATOM     17  C   UNL     1       5.581   5.483  16.277  0.00  0.00    +0.000 C 
ATOM     18  C   UNL     1       5.358   6.309  15.000  0.00  0.00    +0.000 C 
ATOM     19  C   UNL     1       5.861   4.909  14.888  0.00  0.00    +0.000 C 
BRANCH  17  27
ATOM     20  C   UNL     1       3.567   7.310  17.683  0.00  0.00    +0.000 C 
ATOM     21  C   UNL     1       3.459   5.806  17.738  0.00  0.00    +0.000 A 
ATOM     22  C   UNL     1       2.382   5.254  18.461  0.00  0.00    +0.000 A 
ATOM     23  C   UNL     1       2.193   3.879  18.531  0.00  0.00    +0.000 A 
ATOM     24  C   UNL     1       3.076   3.047  17.854  0.00  0.00    +0.000 A 
ATOM     25  F   UNL     1       2.896   1.725  17.903  0.00  0.00    +0.000 F 
ATOM     26  C   UNL     1       4.144   3.572  17.127  0.00  0.00    +0.000 A 
ATOM     27  C   UNL     1       4.377   4.959  17.055  0.00  0.00    +0.000 A 
ENDBRANCH  17  27
ENDBRANCH   1  17
TORSDOF 5
ENDMDL
MODEL 3
REMARK VINA RESULT:      -8.3      2.120      2.634
REMARK  Name = 
REMARK  8 active torsions:
REMARK  status: ('A' for Active; 'I' for Inactive)
REMARK    1  A    between atoms: C_1  and  C_2
REMARK    2  A    between atoms: C_8  and  C_9
REMARK    3  A    between atoms: C_9  and  C_10
REMARK    4  A    between atoms: C_13  and  C_14
REMARK    5  A    between atoms: N_16  and  C_17
REMARK    6  A    between atoms: C_17  and  C_18
REMARK    7  A    between atoms: N_20  and  C_21
REMARK    8  A    between atoms: N_20  and  C_22
REMARK                            x       y       z     vdW  Elec       q    Type
REMARK                         _______ _______ _______ _____ _____    ______ ____
ROOT
ATOM      1  C   UNL     1       6.785   6.703  17.423  0.00  0.00    +0.000 A 
ATOM      2  N   UNL     1       7.618   6.049  18.243  0.00  0.00    +0.000 NA
ATOM      3  O   UNL     1       8.436   7.079  18.744  0.00  0.00    +0.000 OA
ATOM      4  C   UNL     1       8.059   8.228  18.098  0.00  0.00    +0.000 A 
ATOM      5  N   UNL     1       7.079   8.027  17.247  0.00  0.00    +0.000 NA
ENDROOT
BRANCH   4   6
ATOM      6  C   UNL     1       8.607   9.582  18.350  0.00  0.00    +0.000 A 
ATOM      7  C   UNL     1       8.328  10.687  17.574  0.00  0.00    +0.000 A 
ATOM      8  N   UNL     1       8.941  11.712  18.221  0.00  0.00    +0.000 N 
ATOM      9  N   UNL     1       9.621  11.254  19.299  0.00  0.00    +0.000 NA
ATOM     10  N   UNL     1       9.420   9.944  19.383  0.00  0.00    +0.000 NA
BRANCH   8  11
ATOM     11  C   UNL     1       9.094  13.111  17.849  0.00  0.00    +0.000 C 
BRANCH  11  12
ATOM     12  C   UNL     1      10.493  13.569  17.472  0.00  0.00    +0.000 C 
ATOM     13  O   UNL     1      11.298  12.833  16.896  0.00  0.00    +0.000 OA
ATOM     14  N   UNL     1      10.838  14.878  17.820  0.00  0.00    +0.000 N 
ATOM     15  C   UNL     1       9.954  15.843  18.461  0.00  0.00    +0.000 C 
ATOM     16  C   UNL     1      12.157  15.380  17.459  0.00  0.00    +0.000 C 
ENDBRANCH  11  12
ENDBRANCH   8  11
ENDBRANCH   4   6
BRANCH   1  17
ATOM     17  C   UNL     1       5.421   6.151  16.961  0.00  0.00    +0.000 C 
ATOM     18  C   UNL     1       5.340   6.111  15.427  0.00  0.00    +0.000 C 
ATOM     19  C   UNL     1       5.378   4.831  16.191  0.00  0.00    +0.000 C 
BRANCH  17  27
ATOM     20  C   UNL     1       4.476   4.663  19.465  0.00  0.00    +0.000 C 
ATOM     21  C   UNL     1       3.734   5.854  18.913  0.00  0.00    +0.000 A 
ATOM     22  C   UNL     1       2.576   6.277  19.598  0.00  0.00    +0.000 A 
ATOM     23  C   UNL     1       1.855   7.387  19.173  0.00  0.00    +0.000 A 
ATOM     24  C   UNL     1       2.307   8.095  18.066  0.00  0.00    +0.000 A 
ATOM     25  F   UNL     1       1.630   9.171  17.658  0.00  0.00    +0.000 F 
ATOM     26  C   UNL     1       3.454   7.699  17.379  0.00  0.00    +0.000 A 
ATOM     27  C   UNL     1       4.194   6.565  17.769  0.00  0.00    +0.000 A 
ENDBRANCH  17  27
ENDBRANCH   1  17
TORSDOF 5
ENDMDL
MODEL 4
REMARK VINA RESULT:      -8.2      2.079      2.635
REMARK  Name = 
REMARK  8 active torsions:
REMARK  status: ('A' for Active; 'I' for Inactive)
REMARK    1  A    between atoms: C_1  and  C_2
REMARK    2  A    between atoms: C_8  and  C_9
REMARK    3  A    between atoms: C_9  and  C_10
REMARK    4  A    between atoms: C_13  and  C_14
REMARK    5  A    between atoms: N_16  and  C_17
REMARK    6  A    between atoms: C_17  and  C_18
REMARK    7  A    between atoms: N_20  and  C_21
REMARK    8  A    between atoms: N_20  and  C_22
REMARK                            x       y       z     vdW  Elec       q    Type
REMARK                         _______ _______ _______ _____ _____    ______ ____
ROOT
ATOM      1  C   UNL     1       6.828   6.609  17.476  0.00  0.00    +0.000 A 
ATOM      2  N   UNL     1       7.660   5.990  18.324  0.00  0.00    +0.000 NA
ATOM      3  O   UNL     1       8.456   7.045  18.807  0.00  0.00    +0.000 OA
ATOM      4  C   UNL     1       8.071   8.171  18.126  0.00  0.00    +0.000 A 
ATOM      5  N   UNL     1       7.105   7.932  17.268  0.00  0.00    +0.000 NA
ENDROOT
BRANCH   4   6
ATOM      6  C   UNL     1       8.595   9.539  18.347  0.00  0.00    +0.000 A 
ATOM      7  C   UNL     1       8.275  10.627  17.565  0.00  0.00    +0.000 A 
ATOM      8  N   UNL     1       8.880  11.674  18.185  0.00  0.00    +0.000 N 
ATOM      9  N   UNL     1       9.595  11.245  19.252  0.00  0.00    +0.000 NA
ATOM     10  N   UNL     1       9.423   9.931  19.357  0.00  0.00    +0.000 NA
BRANCH   8  11
ATOM     11  C   UNL     1       8.996  13.071  17.791  0.00  0.00    +0.000 C 
BRANCH  11  12
ATOM     12  C   UNL     1      10.030  13.905  18.526  0.00  0.00    +0.000 C 
ATOM     13  O   UNL     1       9.783  14.482  19.588  0.00  0.00    +0.000 OA
ATOM     14  N   UNL     1      11.293  14.001  17.934  0.00  0.00    +0.000 N 
ATOM     15  C   UNL     1      11.705  13.329  16.708  0.00  0.00    +0.000 C 
ATOM     16  C   UNL     1      12.333  14.766  18.609  0.00  0.00    +0.000 C 
ENDBRANCH  11  12
ENDBRANCH   8  11
ENDBRANCH   4   6
BRANCH   1  17
ATOM     17  C   UNL     1       5.479   6.024  17.012  0.00  0.00    +0.000 C 
ATOM     18  C   UNL     1       5.318   6.166  15.490  0.00  0.00    +0.000 C 
ATOM     19  C   UNL     1       5.478   4.808  16.086  0.00  0.00    +0.000 C 
BRANCH  17  27
ATOM     20  C   UNL     1       4.690   4.112  19.269  0.00  0.00    +0.000 C 
ATOM     21  C   UNL     1       3.886   5.346  18.948  0.00  0.00    +0.000 A 
ATOM     22  C   UNL     1       2.744   5.605  19.734  0.00  0.00    +0.000 A 
ATOM     23  C   UNL     1       1.969   6.740  19.523  0.00  0.00    +0.000 A 
ATOM     24  C   UNL     1       2.351   7.637  18.532  0.00  0.00    +0.000 A 
ATOM     25  F   UNL     1       1.621   8.736  18.331  0.00  0.00    +0.000 F 
ATOM     26  C   UNL     1       3.480   7.404  17.748  0.00  0.00    +0.000 A 
ATOM     27  C   UNL     1       4.273   6.252  17.920  0.00  0.00    +0.000 A 
ENDBRANCH  17  27
ENDBRANCH   1  17
TORSDOF 5
ENDMDL
MODEL 5
REMARK VINA RESULT:      -8.2      1.145      1.432
REMARK  Name = 
REMARK  8 active torsions:
REMARK  status: ('A' for Active; 'I' for Inactive)
REMARK    1  A    between atoms: C_1  and  C_2
REMARK    2  A    between atoms: C_8  and  C_9
REMARK    3  A    between atoms: C_9  and  C_10
REMARK    4  A    between atoms: C_13  and  C_14
REMARK    5  A    between atoms: N_16  and  C_17
REMARK    6  A    between atoms: C_17  and  C_18
REMARK    7  A    between atoms: N_20  and  C_21
REMARK    8  A    between atoms: N_20  and  C_22
REMARK                            x       y       z     vdW  Elec       q    Type
REMARK                         _______ _______ _______ _____ _____    ______ ____
ROOT
ATOM      1  C   UNL     1       6.837   5.877  17.185  0.00  0.00    +0.000 A 
ATOM      2  N   UNL     1       7.373   5.367  18.302  0.00  0.00    +0.000 NA
ATOM      3  O   UNL     1       8.016   6.479  18.876  0.00  0.00    +0.000 OA
ATOM      4  C   UNL     1       7.869   7.517  17.993  0.00  0.00    +0.000 A 
ATOM      5  N   UNL     1       7.189   7.172  16.923  0.00  0.00    +0.000 NA
ENDROOT
BRANCH   4   6
ATOM      6  C   UNL     1       8.334   8.908  18.205  0.00  0.00    +0.000 A 
ATOM      7  C   UNL     1       7.965   9.977  17.418  0.00  0.00    +0.000 A 
ATOM      8  N   UNL     1       8.525  11.052  18.030  0.00  0.00    +0.000 N 
ATOM      9  N   UNL     1       9.261  10.660  19.098  0.00  0.00    +0.000 NA
ATOM     10  N   UNL     1       9.147   9.341  19.210  0.00  0.00    +0.000 NA
BRANCH   8  11
ATOM     11  C   UNL     1       8.579  12.450  17.628  0.00  0.00    +0.000 C 
BRANCH  11  12
ATOM     12  C   UNL     1       9.357  13.392  18.531  0.00  0.00    +0.000 C 
ATOM     13  O   UNL     1       8.874  13.875  19.558  0.00  0.00    +0.000 OA
ATOM     14  N   UNL     1      10.663  13.699  18.138  0.00  0.00    +0.000 N 
ATOM     15  C   UNL     1      11.345  13.153  16.971  0.00  0.00    +0.000 C 
ATOM     16  C   UNL     1      11.466  14.576  18.981  0.00  0.00    +0.000 C 
ENDBRANCH  11  12
ENDBRANCH   8  11
ENDBRANCH   4   6
BRANCH   1  17
ATOM     17  C   UNL     1       5.669   5.227  16.416  0.00  0.00    +0.000 C 
ATOM     18  C   UNL     1       5.543   5.829  15.007  0.00  0.00    +0.000 C 
ATOM     19  C   UNL     1       5.973   4.410  15.161  0.00  0.00    +0.000 C 
BRANCH  17  27
ATOM     20  C   UNL     1       3.769   7.370  17.499  0.00  0.00    +0.000 C 
ATOM     21  C   UNL     1       3.542   5.899  17.745  0.00  0.00    +0.000 A 
ATOM     22  C   UNL     1       2.405   5.530  18.494  0.00  0.00    +0.000 A 
ATOM     23  C   UNL     1       2.107   4.194  18.735  0.00  0.00    +0.000 A 
ATOM     24  C   UNL     1       2.938   3.216  18.204  0.00  0.00    +0.000 A 
ATOM     25  F   UNL     1       2.653   1.929  18.419  0.00  0.00    +0.000 F 
ATOM     26  C   UNL     1       4.063   3.558  17.454  0.00  0.00    +0.000 A 
ATOM     27  C   UNL     1       4.407   4.903  17.212  0.00  0.00    +0.000 A 
ENDBRANCH  17  27
ENDBRANCH   1  17
TORSDOF 5
ENDMDL
MODEL 6
REMARK VINA RESULT:      -8.1      5.476      7.522
REMARK  Name = 
REMARK  8 active torsions:
REMARK  status: ('A' for Active; 'I' for Inactive)
REMARK    1  A    between atoms: C_1  and  C_2
REMARK    2  A    between atoms: C_8  and  C_9
REMARK    3  A    between atoms: C_9  and  C_10
REMARK    4  A    between atoms: C_13  and  C_14
REMARK    5  A    between atoms: N_16  and  C_17
REMARK    6  A    between atoms: C_17  and  C_18
REMARK    7  A    between atoms: N_20  and  C_21
REMARK    8  A    between atoms: N_20  and  C_22
REMARK                            x       y       z     vdW  Elec       q    Type
REMARK                         _______ _______ _______ _____ _____    ______ ____
ROOT
ATOM      1  C   UNL     1       3.502   5.133  19.321  0.00  0.00    +0.000 A 
ATOM      2  N   UNL     1       2.663   5.041  20.361  0.00  0.00    +0.000 NA
ATOM      3  O   UNL     1       1.941   6.247  20.287  0.00  0.00    +0.000 OA
ATOM      4  C   UNL     1       2.490   6.971  19.261  0.00  0.00    +0.000 A 
ATOM      5  N   UNL     1       3.481   6.338  18.674  0.00  0.00    +0.000 NA
ENDROOT
BRANCH   4   6
ATOM      6  C   UNL     1       2.011   8.287  18.776  0.00  0.00    +0.000 A 
ATOM      7  C   UNL     1       1.139   9.097  19.469  0.00  0.00    +0.000 A 
ATOM      8  N   UNL     1       1.065  10.228  18.719  0.00  0.00    +0.000 N 
ATOM      9  N   UNL     1       1.796  10.094  17.587  0.00  0.00    +0.000 NA
ATOM     10  N   UNL     1       2.381   8.902  17.616  0.00  0.00    +0.000 NA
BRANCH   8  11
ATOM     11  C   UNL     1       0.234  11.413  18.871  0.00  0.00    +0.000 C 
BRANCH  11  12
ATOM     12  C   UNL     1      -1.227  11.279  18.478  0.00  0.00    +0.000 C 
ATOM     13  O   UNL     1      -1.601  10.546  17.559  0.00  0.00    +0.000 OA
ATOM     14  N   UNL     1      -2.145  12.039  19.209  0.00  0.00    +0.000 N 
ATOM     15  C   UNL     1      -1.819  12.901  20.338  0.00  0.00    +0.000 C 
ATOM     16  C   UNL     1      -3.563  11.928  18.894  0.00  0.00    +0.000 C 
ENDBRANCH  11  12
ENDBRANCH   8  11
ENDBRANCH   4   6
BRANCH   1  17
ATOM     17  C   UNL     1       4.200   3.922  18.669  0.00  0.00    +0.000 C 
ATOM     18  C   UNL     1       4.485   2.830  19.712  0.00  0.00    +0.000 C 
ATOM     19  C   UNL     1       3.477   2.576  18.643  0.00  0.00    +0.000 C 
BRANCH  17  27
ATOM     20  C   UNL     1       6.877   5.297  19.234  0.00  0.00    +0.000 C 
ATOM     21  C   UNL     1       6.465   4.886  17.842  0.00  0.00    +0.000 A 
ATOM     22  C   UNL     1       7.366   5.151  16.790  0.00  0.00    +0.000 A 
ATOM     23  C   UNL     1       7.076   4.773  15.484  0.00  0.00    +0.000 A 
ATOM     24  C   UNL     1       5.884   4.105  15.230  0.00  0.00    +0.000 A 
ATOM     25  F   UNL     1       5.602   3.726  13.981  0.00  0.00    +0.000 F 
ATOM     26  C   UNL     1       4.983   3.827  16.256  0.00  0.00    +0.000 A 
ATOM     27  C   UNL     1       5.235   4.217  17.586  0.00  0.00    +0.000 A 
ENDBRANCH  17  27
ENDBRANCH   1  17
TORSDOF 5
ENDMDL
MODEL 7
REMARK VINA RESULT:      -8.0      1.261      1.614
REMARK  Name = 
REMARK  8 active torsions:
REMARK  status: ('A' for Active; 'I' for Inactive)
REMARK    1  A    between atoms: C_1  and  C_2
REMARK    2  A    between atoms: C_8  and  C_9
REMARK    3  A    between atoms: C_9  and  C_10
REMARK    4  A    between atoms: C_13  and  C_14
REMARK    5  A    between atoms: N_16  and  C_17
REMARK    6  A    between atoms: C_17  and  C_18
REMARK    7  A    between atoms: N_20  and  C_21
REMARK    8  A    between atoms: N_20  and  C_22
REMARK                            x       y       z     vdW  Elec       q    Type
REMARK                         _______ _______ _______ _____ _____    ______ ____
ROOT
ATOM      1  C   UNL     1       6.881   5.627  17.213  0.00  0.00    +0.000 A 
ATOM      2  N   UNL     1       7.366   5.172  18.375  0.00  0.00    +0.000 NA
ATOM      3  O   UNL     1       7.946   6.321  18.944  0.00  0.00    +0.000 OA
ATOM      4  C   UNL     1       7.822   7.323  18.017  0.00  0.00    +0.000 A 
ATOM      5  N   UNL     1       7.213   6.922  16.923  0.00  0.00    +0.000 NA
ENDROOT
BRANCH   4   6
ATOM      6  C   UNL     1       8.237   8.733  18.204  0.00  0.00    +0.000 A 
ATOM      7  C   UNL     1       9.083   9.165  19.203  0.00  0.00    +0.000 A 
ATOM      8  N   UNL     1       9.273  10.483  18.934  0.00  0.00    +0.000 N 
ATOM      9  N   UNL     1       8.528  10.861  17.868  0.00  0.00    +0.000 NA
ATOM     10  N   UNL     1       7.888   9.788  17.415  0.00  0.00    +0.000 NA
BRANCH   8  11
ATOM     11  C   UNL     1       9.984  11.510  19.680  0.00  0.00    +0.000 C 
BRANCH  11  12
ATOM     12  C   UNL     1       9.223  12.790  19.978  0.00  0.00    +0.000 C 
ATOM     13  O   UNL     1       9.187  13.738  19.190  0.00  0.00    +0.000 OA
ATOM     14  N   UNL     1       8.560  12.853  21.207  0.00  0.00    +0.000 N 
ATOM     15  C   UNL     1       8.501  11.779  22.191  0.00  0.00    +0.000 C 
ATOM     16  C   UNL     1       7.790  14.046  21.535  0.00  0.00    +0.000 C 
ENDBRANCH  11  12
ENDBRANCH   8  11
ENDBRANCH   4   6
BRANCH   1  17
ATOM     17  C   UNL     1       5.776   4.918  16.404  0.00  0.00    +0.000 C 
ATOM     18  C   UNL     1       5.759   5.419  14.951  0.00  0.00    +0.000 C 
ATOM     19  C   UNL     1       6.176   4.016  15.237  0.00  0.00    +0.000 C 
BRANCH  17  27
ATOM     20  C   UNL     1       3.927   7.135  17.424  0.00  0.00    +0.000 C 
ATOM     21  C   UNL     1       3.612   5.674  17.625  0.00  0.00    +0.000 A 
ATOM     22  C   UNL     1       2.418   5.350  18.302  0.00  0.00    +0.000 A 
ATOM     23  C   UNL     1       2.041   4.026  18.498  0.00  0.00    +0.000 A 
ATOM     24  C   UNL     1       2.851   3.017  17.994  0.00  0.00    +0.000 A 
ATOM     25  F   UNL     1       2.490   1.743  18.164  0.00  0.00    +0.000 F 
ATOM     26  C   UNL     1       4.032   3.315  17.315  0.00  0.00    +0.000 A 
ATOM     27  C   UNL     1       4.456   4.645  17.121  0.00  0.00    +0.000 A 
ENDBRANCH  17  27
ENDBRANCH   1  17
TORSDOF 5
ENDMDL
MODEL 8
REMARK VINA RESULT:      -8.0      5.475      6.691
REMARK  Name = 
REMARK  8 active torsions:
REMARK  status: ('A' for Active; 'I' for Inactive)
REMARK    1  A    between atoms: C_1  and  C_2
REMARK    2  A    between atoms: C_8  and  C_9
REMARK    3  A    between atoms: C_9  and  C_10
REMARK    4  A    between atoms: C_13  and  C_14
REMARK    5  A    between atoms: N_16  and  C_17
REMARK    6  A    between atoms: C_17  and  C_18
REMARK    7  A    between atoms: N_20  and  C_21
REMARK    8  A    between atoms: N_20  and  C_22
REMARK                            x       y       z     vdW  Elec       q    Type
REMARK                         _______ _______ _______ _____ _____    ______ ____
ROOT
ATOM      1  C   UNL     1       3.378   4.732  19.580  0.00  0.00    +0.000 A 
ATOM      2  N   UNL     1       2.590   4.455  20.627  0.00  0.00    +0.000 NA
ATOM      3  O   UNL     1       1.850   5.641  20.784  0.00  0.00    +0.000 OA
ATOM      4  C   UNL     1       2.341   6.534  19.868  0.00  0.00    +0.000 A 
ATOM      5  N   UNL     1       3.310   6.026  19.141  0.00  0.00    +0.000 NA
ENDROOT
BRANCH   4   6
ATOM      6  C   UNL     1       1.823   7.901  19.627  0.00  0.00    +0.000 A 
ATOM      7  C   UNL     1       1.159   8.656  20.571  0.00  0.00    +0.000 A 
ATOM      8  N   UNL     1       0.969   9.857  19.965  0.00  0.00    +0.000 N 
ATOM      9  N   UNL     1       1.426   9.823  18.691  0.00  0.00    +0.000 NA
ATOM     10  N   UNL     1       1.952   8.622  18.477  0.00  0.00    +0.000 NA
BRANCH   8  11
ATOM     11  C   UNL     1       0.242  11.037  20.409  0.00  0.00    +0.000 C 
BRANCH  11  12
ATOM     12  C   UNL     1       0.978  12.364  20.328  0.00  0.00    +0.000 C 
ATOM     13  O   UNL     1       1.890  12.663  21.103  0.00  0.00    +0.000 OA
ATOM     14  N   UNL     1       0.565  13.249  19.328  0.00  0.00    +0.000 N 
ATOM     15  C   UNL     1      -0.469  12.980  18.336  0.00  0.00    +0.000 C 
ATOM     16  C   UNL     1       1.254  14.525  19.186  0.00  0.00    +0.000 C 
ENDBRANCH  11  12
ENDBRANCH   8  11
ENDBRANCH   4   6
BRANCH   1  17
ATOM     17  C   UNL     1       4.061   3.659  18.707  0.00  0.00    +0.000 C 
ATOM     18  C   UNL     1       4.434   2.429  19.549  0.00  0.00    +0.000 C 
ATOM     19  C   UNL     1       3.367   2.310  18.515  0.00  0.00    +0.000 C 
BRANCH  17  27
ATOM     20  C   UNL     1       6.681   5.120  19.319  0.00  0.00    +0.000 C 
ATOM     21  C   UNL     1       6.220   4.859  17.907  0.00  0.00    +0.000 A 
ATOM     22  C   UNL     1       7.048   5.307  16.857  0.00  0.00    +0.000 A 
ATOM     23  C   UNL     1       6.711   5.075  15.529  0.00  0.00    +0.000 A 
ATOM     24  C   UNL     1       5.548   4.369  15.246  0.00  0.00    +0.000 A 
ATOM     25  F   UNL     1       5.222   4.129  13.973  0.00  0.00    +0.000 F 
ATOM     26  C   UNL     1       4.719   3.911  16.269  0.00  0.00    +0.000 A 
ATOM     27  C   UNL     1       5.019   4.149  17.625  0.00  0.00    +0.000 A 
ENDBRANCH  17  27
ENDBRANCH   1  17
TORSDOF 5
ENDMDL
MODEL 9
REMARK VINA RESULT:      -7.9      5.543      7.198
REMARK  Name = 
REMARK  8 active torsions:
REMARK  status: ('A' for Active; 'I' for Inactive)
REMARK    1  A    between atoms: C_1  and  C_2
REMARK    2  A    between atoms: C_8  and  C_9
REMARK    3  A    between atoms: C_9  and  C_10
REMARK    4  A    between atoms: C_13  and  C_14
REMARK    5  A    between atoms: N_16  and  C_17
REMARK    6  A    between atoms: C_17  and  C_18
REMARK    7  A    between atoms: N_20  and  C_21
REMARK    8  A    between atoms: N_20  and  C_22
REMARK                            x       y       z     vdW  Elec       q    Type
REMARK                         _______ _______ _______ _____ _____    ______ ____
ROOT
ATOM      1  C   UNL     1       3.310   5.174  18.877  0.00  0.00    +0.000 A 
ATOM      2  N   UNL     1       2.590   5.078  20.002  0.00  0.00    +0.000 NA
ATOM      3  O   UNL     1       1.961   6.334  20.080  0.00  0.00    +0.000 OA
ATOM      4  C   UNL     1       2.444   7.080  19.036  0.00  0.00    +0.000 A 
ATOM      5  N   UNL     1       3.308   6.415  18.302  0.00  0.00    +0.000 NA
ENDROOT
BRANCH   4   6
ATOM      6  C   UNL     1       2.017   8.454  18.683  0.00  0.00    +0.000 A 
ATOM      7  C   UNL     1       1.283   9.274  19.512  0.00  0.00    +0.000 A 
ATOM      8  N   UNL     1       1.216  10.454  18.842  0.00  0.00    +0.000 N 
ATOM      9  N   UNL     1       1.815  10.346  17.632  0.00  0.00    +0.000 NA
ATOM     10  N   UNL     1       2.310   9.117  17.529  0.00  0.00    +0.000 NA
BRANCH   8  11
ATOM     11  C   UNL     1       0.495  11.680  19.151  0.00  0.00    +0.000 C 
BRANCH  11  12
ATOM     12  C   UNL     1       0.021  11.852  20.583  0.00  0.00    +0.000 C 
ATOM     13  O   UNL     1       0.797  11.849  21.543  0.00  0.00    +0.000 OA
ATOM     14  N   UNL     1      -1.355  12.009  20.774  0.00  0.00    +0.000 N 
ATOM     15  C   UNL     1      -2.353  12.070  19.713  0.00  0.00    +0.000 C 
ATOM     16  C   UNL     1      -1.864  12.206  22.125  0.00  0.00    +0.000 C 
ENDBRANCH  11  12
ENDBRANCH   8  11
ENDBRANCH   4   6
BRANCH   1  17
ATOM     17  C   UNL     1       3.832   3.960  18.082  0.00  0.00    +0.000 C 
ATOM     18  C   UNL     1       3.825   2.694  18.954  0.00  0.00    +0.000 C 
ATOM     19  C   UNL     1       2.884   2.795  17.801  0.00  0.00    +0.000 C 
BRANCH  17  27
ATOM     20  C   UNL     1       6.555   5.036  18.978  0.00  0.00    +0.000 C 
ATOM     21  C   UNL     1       6.248   4.737  17.532  0.00  0.00    +0.000 A 
ATOM     22  C   UNL     1       7.270   4.964  16.587  0.00  0.00    +0.000 A 
ATOM     23  C   UNL     1       7.077   4.682  15.239  0.00  0.00    +0.000 A 
ATOM     24  C   UNL     1       5.860   4.148  14.834  0.00  0.00    +0.000 A 
ATOM     25  F   UNL     1       5.670   3.861  13.544  0.00  0.00    +0.000 F 
ATOM     26  C   UNL     1       4.839   3.909  15.753  0.00  0.00    +0.000 A 
ATOM     27  C   UNL     1       4.993   4.205  17.122  0.00  0.00    +0.000 A 
ENDBRANCH  17  27
ENDBRANCH   1  17
TORSDOF 5
ENDMDL
