MODEL 1
REMARK VINA RESULT:      -8.5      0.000      0.000
REMARK  Name = 
REMARK  5 active torsions:
REMARK  status: ('A' for Active; 'I' for Inactive)
REMARK    1  A    between atoms: C_2  and  C_3
REMARK    2  A    between atoms: C_3  and  N_4
REMARK    3  A    between atoms: N_14  and  C_15
REMARK    4  A    between atoms: C_19  and  S_20
REMARK    5  A    between atoms: S_20  and  N_23
REMARK                            x       y       z     vdW  Elec       q    Type
REMARK                         _______ _______ _______ _____ _____    ______ ____
ROOT
ATOM      1  O   UNL     1       1.048   9.351  20.472  0.00  0.00    +0.000 OA
ATOM      2  C   UNL     1       1.405   9.349  19.296  0.00  0.00    +0.000 C 
ATOM      3  N   UNL     1       2.085   8.317  18.657  0.00  0.00    +0.000 N 
ATOM      4  H   UNL     1       2.544   8.544  17.778  0.00  0.00    +0.000 HD
ENDROOT
BRANCH   3   5
ATOM      5  C   UNL     1       2.358   7.046  19.213  0.00  0.00    +0.000 A 
ATOM      6  C   UNL     1       1.468   6.383  20.067  0.00  0.00    +0.000 A 
ATOM      7  C   UNL     1       1.796   5.148  20.635  0.00  0.00    +0.000 A 
ATOM      8  C   UNL     1       3.029   4.562  20.368  0.00  0.00    +0.000 A 
ATOM      9  C   UNL     1       3.921   5.215  19.514  0.00  0.00    +0.000 A 
ATOM     10  C   UNL     1       3.572   6.427  18.895  0.00  0.00    +0.000 A 
BRANCH   9  11
ATOM     11  S   UNL     1       5.511   4.467  19.180  0.00  0.00    +0.000 S 
ATOM     12  O   UNL     1       6.513   5.270  19.850  0.00  0.00    +0.000 OA
ATOM     13  O   UNL     1       5.379   3.051  19.458  0.00  0.00    +0.000 OA
BRANCH  11  14
ATOM     14  N   UNL     1       5.707   4.672  17.486  0.00  0.00    +0.000 NA
ATOM     15  C   UNL     1       7.117   4.723  17.023  0.00  0.00    +0.000 C 
ATOM     16  C   UNL     1       7.208   5.107  15.552  0.00  0.00    +0.000 C 
ATOM     17  C   UNL     1       6.366   4.173  14.695  0.00  0.00    +0.000 C 
ATOM     18  C   UNL     1       4.920   4.229  15.162  0.00  0.00    +0.000 C 
ATOM     19  C   UNL     1       4.798   3.854  16.637  0.00  0.00    +0.000 C 
ENDBRANCH  11  14
ENDBRANCH   9  11
ENDBRANCH   3   5
BRANCH   2  20
ATOM     20  C   UNL     1       1.199  10.590  18.431  0.00  0.00    +0.000 C 
BRANCH  20  21
ATOM     21  N   UNL     1      -0.069  11.213  18.704  0.00  0.00    +0.000 N 
ATOM     22  C   UNL     1      -0.277  12.213  19.626  0.00  0.00    +0.000 A 
ATOM     23  O   UNL     1       0.588  12.700  20.343  0.00  0.00    +0.000 OA
ATOM     24  O   UNL     1      -1.624  12.595  19.666  0.00  0.00    +0.000 OA
ATOM     25  C   UNL     1      -2.208  11.711  18.772  0.00  0.00    +0.000 A 
ATOM     26  C   UNL     1      -3.557  11.631  18.493  0.00  0.00    +0.000 A 
ATOM     27  C   UNL     1      -3.971  10.640  17.599  0.00  0.00    +0.000 A 
ATOM     28  C   UNL     1      -3.034   9.768  17.007  0.00  0.00    +0.000 A 
ATOM     29  C   UNL     1      -1.670   9.878  17.295  0.00  0.00    +0.000 A 
ATOM     30  C   UNL     1      -1.292  10.860  18.185  0.00  0.00    +0.000 A 
ENDBRANCH  20  21
ENDBRANCH   2  20
TORSDOF 5
ENDMDL
MODEL 2
REMARK VINA RESULT:      -8.5      2.422      8.719
REMARK  Name = 
REMARK  5 active torsions:
REMARK  status: ('A' for Active; 'I' for Inactive)
REMARK    1  A    between atoms: C_2  and  C_3
REMARK    2  A    between atoms: C_3  and  N_4
REMARK    3  A    between atoms: N_14  and  C_15
REMARK    4  A    between atoms: C_19  and  S_20
REMARK    5  A    between atoms: S_20  and  N_23
REMARK                            x       y       z     vdW  Elec       q    Type
REMARK                         _______ _______ _______ _____ _____    ______ ____
ROOT
ATOM      1  O   UNL     1       1.412   5.207  17.933  0.00  0.00    +0.000 OA
ATOM      2  C   UNL     1       2.555   5.657  17.997  0.00  0.00    +0.000 C 
ATOM      3  N   UNL     1       2.930   6.830  18.641  0.00  0.00    +0.000 N 
ATOM      4  H   UNL     1       3.838   7.218  18.400  0.00  0.00    +0.000 HD
ENDROOT
BRANCH   3   5
ATOM      5  C   UNL     1       2.086   7.630  19.446  0.00  0.00    +0.000 A 
ATOM      6  C   UNL     1       1.490   7.161  20.624  0.00  0.00    +0.000 A 
ATOM      7  C   UNL     1       0.624   7.968  21.367  0.00  0.00    +0.000 A 
ATOM      8  C   UNL     1       0.327   9.256  20.935  0.00  0.00    +0.000 A 
ATOM      9  C   UNL     1       0.919   9.734  19.763  0.00  0.00    +0.000 A 
ATOM     10  C   UNL     1       1.837   8.948  19.046  0.00  0.00    +0.000 A 
BRANCH   9  11
ATOM     11  S   UNL     1       0.529  11.386  19.202  0.00  0.00    +0.000 S 
ATOM     12  O   UNL     1       0.297  12.197  20.378  0.00  0.00    +0.000 OA
ATOM     13  O   UNL     1       1.540  11.751  18.229  0.00  0.00    +0.000 OA
BRANCH  11  14
ATOM     14  N   UNL     1      -0.968  11.193  18.381  0.00  0.00    +0.000 NA
ATOM     15  C   UNL     1      -1.097   9.931  17.608  0.00  0.00    +0.000 C 
ATOM     16  C   UNL     1      -2.357   9.927  16.753  0.00  0.00    +0.000 C 
ATOM     17  C   UNL     1      -3.590  10.197  17.603  0.00  0.00    +0.000 C 
ATOM     18  C   UNL     1      -3.436  11.540  18.301  0.00  0.00    +0.000 C 
ATOM     19  C   UNL     1      -2.175  11.576  19.162  0.00  0.00    +0.000 C 
ENDBRANCH  11  14
ENDBRANCH   9  11
ENDBRANCH   3   5
BRANCH   2  20
ATOM     20  C   UNL     1       3.691   4.966  17.246  0.00  0.00    +0.000 C 
BRANCH  20  21
ATOM     21  N   UNL     1       4.905   4.967  18.018  0.00  0.00    +0.000 N 
ATOM     22  C   UNL     1       5.190   4.099  19.047  0.00  0.00    +0.000 A 
ATOM     23  O   UNL     1       4.444   3.215  19.448  0.00  0.00    +0.000 OA
ATOM     24  O   UNL     1       6.444   4.369  19.608  0.00  0.00    +0.000 OA
ATOM     25  C   UNL     1       6.847   5.493  18.902  0.00  0.00    +0.000 A 
ATOM     26  C   UNL     1       8.012   6.200  19.122  0.00  0.00    +0.000 A 
ATOM     27  C   UNL     1       8.227   7.341  18.344  0.00  0.00    +0.000 A 
ATOM     28  C   UNL     1       7.286   7.737  17.371  0.00  0.00    +0.000 A 
ATOM     29  C   UNL     1       6.120   6.995  17.157  0.00  0.00    +0.000 A 
ATOM     30  C   UNL     1       5.931   5.879  17.943  0.00  0.00    +0.000 A 
ENDBRANCH  20  21
ENDBRANCH   2  20
TORSDOF 5
ENDMDL
MODEL 3
REMARK VINA RESULT:      -8.5      1.095      1.697
REMARK  Name = 
REMARK  5 active torsions:
REMARK  status: ('A' for Active; 'I' for Inactive)
REMARK    1  A    between atoms: C_2  and  C_3
REMARK    2  A    between atoms: C_3  and  N_4
REMARK    3  A    between atoms: N_14  and  C_15
REMARK    4  A    between atoms: C_19  and  S_20
REMARK    5  A    between atoms: S_20  and  N_23
REMARK                            x       y       z     vdW  Elec       q    Type
REMARK                         _______ _______ _______ _____ _____    ______ ____
ROOT
ATOM      1  O   UNL     1       0.938   9.186  20.535  0.00  0.00    +0.000 OA
ATOM      2  C   UNL     1       1.383   9.189  19.388  0.00  0.00    +0.000 C 
ATOM      3  N   UNL     1       2.073   8.144  18.783  0.00  0.00    +0.000 N 
ATOM      4  H   UNL     1       2.604   8.368  17.946  0.00  0.00    +0.000 HD
ENDROOT
BRANCH   3   5
ATOM      5  C   UNL     1       2.259   6.855  19.335  0.00  0.00    +0.000 A 
ATOM      6  C   UNL     1       1.619   6.430  20.506  0.00  0.00    +0.000 A 
ATOM      7  C   UNL     1       1.866   5.164  21.045  0.00  0.00    +0.000 A 
ATOM      8  C   UNL     1       2.771   4.307  20.428  0.00  0.00    +0.000 A 
ATOM      9  C   UNL     1       3.411   4.721  19.258  0.00  0.00    +0.000 A 
ATOM     10  C   UNL     1       3.121   5.968  18.680  0.00  0.00    +0.000 A 
BRANCH   9  11
ATOM     11  S   UNL     1       4.583   3.624  18.471  0.00  0.00    +0.000 S 
ATOM     12  O   UNL     1       4.968   2.631  19.452  0.00  0.00    +0.000 OA
ATOM     13  O   UNL     1       4.009   3.235  17.199  0.00  0.00    +0.000 OA
BRANCH  11  14
ATOM     14  N   UNL     1       5.942   4.631  18.167  0.00  0.00    +0.000 NA
ATOM     15  C   UNL     1       5.858   5.431  16.918  0.00  0.00    +0.000 C 
ATOM     16  C   UNL     1       7.175   6.136  16.619  0.00  0.00    +0.000 C 
ATOM     17  C   UNL     1       7.618   6.982  17.802  0.00  0.00    +0.000 C 
ATOM     18  C   UNL     1       7.769   6.094  19.028  0.00  0.00    +0.000 C 
ATOM     19  C   UNL     1       6.464   5.368  19.350  0.00  0.00    +0.000 C 
ENDBRANCH  11  14
ENDBRANCH   9  11
ENDBRANCH   3   5
BRANCH   2  20
ATOM     20  C   UNL     1       1.286  10.451  18.534  0.00  0.00    +0.000 C 
BRANCH  20  21
ATOM     21  N   UNL     1       0.047  11.144  18.764  0.00  0.00    +0.000 N 
ATOM     22  C   UNL     1      -0.125  12.186  19.646  0.00  0.00    +0.000 A 
ATOM     23  O   UNL     1       0.752  12.656  20.360  0.00  0.00    +0.000 OA
ATOM     24  O   UNL     1      -1.452  12.634  19.651  0.00  0.00    +0.000 OA
ATOM     25  C   UNL     1      -2.066  11.748  18.780  0.00  0.00    +0.000 A 
ATOM     26  C   UNL     1      -3.413  11.724  18.482  0.00  0.00    +0.000 A 
ATOM     27  C   UNL     1      -3.862  10.722  17.617  0.00  0.00    +0.000 A 
ATOM     28  C   UNL     1      -2.961   9.785  17.072  0.00  0.00    +0.000 A 
ATOM     29  C   UNL     1      -1.597   9.839  17.378  0.00  0.00    +0.000 A 
ATOM     30  C   UNL     1      -1.185  10.833  18.238  0.00  0.00    +0.000 A 
ENDBRANCH  20  21
ENDBRANCH   2  20
TORSDOF 5
ENDMDL
MODEL 4
REMARK VINA RESULT:      -8.5      2.553      9.072
REMARK  Name = 
REMARK  5 active torsions:
REMARK  status: ('A' for Active; 'I' for Inactive)
REMARK    1  A    between atoms: C_2  and  C_3
REMARK    2  A    between atoms: C_3  and  N_4
REMARK    3  A    between atoms: N_14  and  C_15
REMARK    4  A    between atoms: C_19  and  S_20
REMARK    5  A    between atoms: S_20  and  N_23
REMARK                            x       y       z     vdW  Elec       q    Type
REMARK                         _______ _______ _______ _____ _____    ______ ____
ROOT
ATOM      1  O   UNL     1       2.276   4.446  18.723  0.00  0.00    +0.000 OA
ATOM      2  C   UNL     1       3.395   4.905  18.947  0.00  0.00    +0.000 C 
ATOM      3  N   UNL     1       3.720   6.256  19.008  0.00  0.00    +0.000 N 
ATOM      4  H   UNL     1       4.705   6.495  18.939  0.00  0.00    +0.000 HD
ENDROOT
BRANCH   3   5
ATOM      5  C   UNL     1       2.796   7.326  18.958  0.00  0.00    +0.000 A 
ATOM      6  C   UNL     1       2.587   8.096  17.807  0.00  0.00    +0.000 A 
ATOM      7  C   UNL     1       1.699   9.176  17.811  0.00  0.00    +0.000 A 
ATOM      8  C   UNL     1       1.015   9.512  18.975  0.00  0.00    +0.000 A 
ATOM      9  C   UNL     1       1.215   8.747  20.127  0.00  0.00    +0.000 A 
ATOM     10  C   UNL     1       2.061   7.625  20.110  0.00  0.00    +0.000 A 
BRANCH   9  11
ATOM     11  S   UNL     1       0.344   9.186  21.625  0.00  0.00    +0.000 S 
ATOM     12  O   UNL     1      -0.763   8.264  21.765  0.00  0.00    +0.000 OA
ATOM     13  O   UNL     1       1.341   9.321  22.669  0.00  0.00    +0.000 OA
BRANCH  11  14
ATOM     14  N   UNL     1      -0.295  10.743  21.282  0.00  0.00    +0.000 NA
ATOM     15  C   UNL     1      -1.276  10.782  20.167  0.00  0.00    +0.000 C 
ATOM     16  C   UNL     1      -1.639  12.214  19.794  0.00  0.00    +0.000 C 
ATOM     17  C   UNL     1      -2.136  12.981  21.010  0.00  0.00    +0.000 C 
ATOM     18  C   UNL     1      -1.057  12.979  22.082  0.00  0.00    +0.000 C 
ATOM     19  C   UNL     1      -0.667  11.554  22.473  0.00  0.00    +0.000 C 
ENDBRANCH  11  14
ENDBRANCH   9  11
ENDBRANCH   3   5
BRANCH   2  20
ATOM     20  C   UNL     1       4.592   3.968  19.088  0.00  0.00    +0.000 C 
BRANCH  20  21
ATOM     21  N   UNL     1       5.698   4.406  18.280  0.00  0.00    +0.000 N 
ATOM     22  C   UNL     1       6.823   5.041  18.755  0.00  0.00    +0.000 A 
ATOM     23  O   UNL     1       7.028   5.326  19.928  0.00  0.00    +0.000 OA
ATOM     24  O   UNL     1       7.707   5.354  17.715  0.00  0.00    +0.000 OA
ATOM     25  C   UNL     1       7.005   4.935  16.594  0.00  0.00    +0.000 A 
ATOM     26  C   UNL     1       7.425   5.080  15.288  0.00  0.00    +0.000 A 
ATOM     27  C   UNL     1       6.558   4.643  14.282  0.00  0.00    +0.000 A 
ATOM     28  C   UNL     1       5.311   4.072  14.606  0.00  0.00    +0.000 A 
ATOM     29  C   UNL     1       4.913   3.923  15.939  0.00  0.00    +0.000 A 
ATOM     30  C   UNL     1       5.785   4.369  16.908  0.00  0.00    +0.000 A 
ENDBRANCH  20  21
ENDBRANCH   2  20
TORSDOF 5
ENDMDL
MODEL 5
REMARK VINA RESULT:      -8.4      2.791      8.935
REMARK  Name = 
REMARK  5 active torsions:
REMARK  status: ('A' for Active; 'I' for Inactive)
REMARK    1  A    between atoms: C_2  and  C_3
REMARK    2  A    between atoms: C_3  and  N_4
REMARK    3  A    between atoms: N_14  and  C_15
REMARK    4  A    between atoms: C_19  and  S_20
REMARK    5  A    between atoms: S_20  and  N_23
REMARK                            x       y       z     vdW  Elec       q    Type
REMARK                         _______ _______ _______ _____ _____    ______ ____
ROOT
ATOM      1  O   UNL     1       1.976   4.715  17.867  0.00  0.00    +0.000 OA
ATOM      2  C   UNL     1       3.018   4.998  18.457  0.00  0.00    +0.000 C 
ATOM      3  N   UNL     1       3.352   6.253  18.953  0.00  0.00    +0.000 N 
ATOM      4  H   UNL     1       4.330   6.413  19.179  0.00  0.00    +0.000 HD
ENDROOT
BRANCH   3   5
ATOM      5  C   UNL     1       2.496   7.379  18.985  0.00  0.00    +0.000 A 
ATOM      6  C   UNL     1       2.153   8.105  17.837  0.00  0.00    +0.000 A 
ATOM      7  C   UNL     1       1.341   9.240  17.916  0.00  0.00    +0.000 A 
ATOM      8  C   UNL     1       0.872   9.678  19.150  0.00  0.00    +0.000 A 
ATOM      9  C   UNL     1       1.207   8.959  20.300  0.00  0.00    +0.000 A 
ATOM     10  C   UNL     1       1.972   7.783  20.218  0.00  0.00    +0.000 A 
BRANCH   9  11
ATOM     11  S   UNL     1       0.613   9.528  21.887  0.00  0.00    +0.000 S 
ATOM     12  O   UNL     1      -0.636   8.844  22.149  0.00  0.00    +0.000 OA
ATOM     13  O   UNL     1       1.724   9.435  22.812  0.00  0.00    +0.000 OA
BRANCH  11  14
ATOM     14  N   UNL     1       0.268  11.189  21.619  0.00  0.00    +0.000 NA
ATOM     15  C   UNL     1       1.305  11.927  20.854  0.00  0.00    +0.000 C 
ATOM     16  C   UNL     1       1.026  13.424  20.835  0.00  0.00    +0.000 C 
ATOM     17  C   UNL     1      -0.372  13.708  20.308  0.00  0.00    +0.000 C 
ATOM     18  C   UNL     1      -1.393  12.997  21.183  0.00  0.00    +0.000 C 
ATOM     19  C   UNL     1      -1.135  11.492  21.226  0.00  0.00    +0.000 C 
ENDBRANCH  11  14
ENDBRANCH   9  11
ENDBRANCH   3   5
BRANCH   2  20
ATOM     20  C   UNL     1       4.120   3.952  18.609  0.00  0.00    +0.000 C 
BRANCH  20  21
ATOM     21  N   UNL     1       5.344   4.389  17.993  0.00  0.00    +0.000 N 
ATOM     22  C   UNL     1       6.395   4.982  18.654  0.00  0.00    +0.000 A 
ATOM     23  O   UNL     1       6.424   5.227  19.853  0.00  0.00    +0.000 OA
ATOM     24  O   UNL     1       7.433   5.305  17.771  0.00  0.00    +0.000 OA
ATOM     25  C   UNL     1       6.903   4.937  16.544  0.00  0.00    +0.000 A 
ATOM     26  C   UNL     1       7.520   5.111  15.322  0.00  0.00    +0.000 A 
ATOM     27  C   UNL     1       6.808   4.725  14.182  0.00  0.00    +0.000 A 
ATOM     28  C   UNL     1       5.515   4.173  14.294  0.00  0.00    +0.000 A 
ATOM     29  C   UNL     1       4.916   3.994  15.545  0.00  0.00    +0.000 A 
ATOM     30  C   UNL     1       5.638   4.390  16.650  0.00  0.00    +0.000 A 
ENDBRANCH  20  21
ENDBRANCH   2  20
TORSDOF 5
ENDMDL
MODEL 6
REMARK VINA RESULT:      -8.3      1.805      2.201
REMARK  Name = 
REMARK  5 active torsions:
REMARK  status: ('A' for Active; 'I' for Inactive)
REMARK    1  A    between atoms: C_2  and  C_3
REMARK    2  A    between atoms: C_3  and  N_4
REMARK    3  A    between atoms: N_14  and  C_15
REMARK    4  A    between atoms: C_19  and  S_20
REMARK    5  A    between atoms: S_20  and  N_23
REMARK                            x       y       z     vdW  Elec       q    Type
REMARK                         _______ _______ _______ _____ _____    ______ ____
ROOT
ATOM      1  O   UNL     1      -0.184   7.962  21.645  0.00  0.00    +0.000 OA
ATOM      2  C   UNL     1       0.852   8.477  21.229  0.00  0.00    +0.000 C 
ATOM      3  N   UNL     1       1.924   7.797  20.662  0.00  0.00    +0.000 N 
ATOM      4  H   UNL     1       2.807   8.297  20.603  0.00  0.00    +0.000 HD
ENDROOT
BRANCH   3   5
ATOM      5  C   UNL     1       1.947   6.418  20.344  0.00  0.00    +0.000 A 
ATOM      6  C   UNL     1       0.906   5.544  20.681  0.00  0.00    +0.000 A 
ATOM      7  C   UNL     1       0.987   4.178  20.391  0.00  0.00    +0.000 A 
ATOM      8  C   UNL     1       2.121   3.663  19.772  0.00  0.00    +0.000 A 
ATOM      9  C   UNL     1       3.162   4.528  19.430  0.00  0.00    +0.000 A 
ATOM     10  C   UNL     1       3.059   5.909  19.665  0.00  0.00    +0.000 A 
BRANCH   9  11
ATOM     11  S   UNL     1       4.624   3.863  18.644  0.00  0.00    +0.000 S 
ATOM     12  O   UNL     1       5.276   3.002  19.608  0.00  0.00    +0.000 OA
ATOM     13  O   UNL     1       4.216   3.360  17.348  0.00  0.00    +0.000 OA
BRANCH  11  14
ATOM     14  N   UNL     1       5.618   5.244  18.402  0.00  0.00    +0.000 NA
ATOM     15  C   UNL     1       7.040   5.064  18.790  0.00  0.00    +0.000 C 
ATOM     16  C   UNL     1       7.803   6.381  18.738  0.00  0.00    +0.000 C 
ATOM     17  C   UNL     1       7.670   7.031  17.369  0.00  0.00    +0.000 C 
ATOM     18  C   UNL     1       6.198   7.267  17.066  0.00  0.00    +0.000 C 
ATOM     19  C   UNL     1       5.405   5.963  17.117  0.00  0.00    +0.000 C 
ENDBRANCH  11  14
ENDBRANCH   9  11
ENDBRANCH   3   5
BRANCH   2  20
ATOM     20  C   UNL     1       1.085   9.975  21.404  0.00  0.00    +0.000 C 
BRANCH  20  21
ATOM     21  N   UNL     1      -0.088  10.731  21.058  0.00  0.00    +0.000 N 
ATOM     22  C   UNL     1      -0.844  11.468  21.941  0.00  0.00    +0.000 A 
ATOM     23  O   UNL     1      -0.624  11.569  23.141  0.00  0.00    +0.000 OA
ATOM     24  O   UNL     1      -1.931  12.074  21.298  0.00  0.00    +0.000 OA
ATOM     25  C   UNL     1      -1.814  11.591  20.003  0.00  0.00    +0.000 A 
ATOM     26  C   UNL     1      -2.694  11.848  18.972  0.00  0.00    +0.000 A 
ATOM     27  C   UNL     1      -2.441  11.231  17.743  0.00  0.00    +0.000 A 
ATOM     28  C   UNL     1      -1.323  10.389  17.577  0.00  0.00    +0.000 A 
ATOM     29  C   UNL     1      -0.437  10.155  18.634  0.00  0.00    +0.000 A 
ATOM     30  C   UNL     1      -0.715  10.771  19.835  0.00  0.00    +0.000 A 
ENDBRANCH  20  21
ENDBRANCH   2  20
TORSDOF 5
ENDMDL
MODEL 7
REMARK VINA RESULT:      -8.3      2.647      8.686
REMARK  Name = 
REMARK  5 active torsions:
REMARK  status: ('A' for Active; 'I' for Inactive)
REMARK    1  A    between atoms: C_2  and  C_3
REMARK    2  A    between atoms: C_3  and  N_4
REMARK    3  A    between atoms: N_14  and  C_15
REMARK    4  A    between atoms: C_19  and  S_20
REMARK    5  A    between atoms: S_20  and  N_23
REMARK                            x       y       z     vdW  Elec       q    Type
REMARK                         _______ _______ _______ _____ _____    ______ ____
ROOT
ATOM      1  O   UNL     1       2.552   7.472  19.008  0.00  0.00    +0.000 OA
ATOM      2  C   UNL     1       2.245   6.741  19.949  0.00  0.00    +0.000 C 
ATOM      3  N   UNL     1       1.573   7.140  21.100  0.00  0.00    +0.000 N 
ATOM      4  H   UNL     1       1.614   6.511  21.897  0.00  0.00    +0.000 HD
ENDROOT
BRANCH   3   5
ATOM      5  C   UNL     1       1.010   8.419  21.320  0.00  0.00    +0.000 A 
ATOM      6  C   UNL     1       0.407   8.785  22.530  0.00  0.00    +0.000 A 
ATOM      7  C   UNL     1      -0.180  10.043  22.693  0.00  0.00    +0.000 A 
ATOM      8  C   UNL     1      -0.187  10.952  21.640  0.00  0.00    +0.000 A 
ATOM      9  C   UNL     1       0.414  10.596  20.430  0.00  0.00    +0.000 A 
ATOM     10  C   UNL     1       1.058   9.356  20.282  0.00  0.00    +0.000 A 
BRANCH   9  11
ATOM     11  S   UNL     1       0.395  11.759  19.073  0.00  0.00    +0.000 S 
ATOM     12  O   UNL     1       0.256  13.083  19.642  0.00  0.00    +0.000 OA
ATOM     13  O   UNL     1       1.515  11.427  18.216  0.00  0.00    +0.000 OA
BRANCH  11  14
ATOM     14  N   UNL     1      -1.058  11.382  18.236  0.00  0.00    +0.000 NA
ATOM     15  C   UNL     1      -1.084  10.036  17.608  0.00  0.00    +0.000 C 
ATOM     16  C   UNL     1      -2.310   9.857  16.722  0.00  0.00    +0.000 C 
ATOM     17  C   UNL     1      -3.587  10.143  17.499  0.00  0.00    +0.000 C 
ATOM     18  C   UNL     1      -3.537  11.563  18.043  0.00  0.00    +0.000 C 
ATOM     19  C   UNL     1      -2.313  11.774  18.932  0.00  0.00    +0.000 C 
ENDBRANCH  11  14
ENDBRANCH   9  11
ENDBRANCH   3   5
BRANCH   2  20
ATOM     20  C   UNL     1       2.691   5.281  19.961  0.00  0.00    +0.000 C 
BRANCH  20  21
ATOM     21  N   UNL     1       3.350   4.926  18.733  0.00  0.00    +0.000 N 
ATOM     22  C   UNL     1       2.735   4.358  17.641  0.00  0.00    +0.000 A 
ATOM     23  O   UNL     1       1.547   4.070  17.572  0.00  0.00    +0.000 OA
ATOM     24  O   UNL     1       3.652   4.117  16.609  0.00  0.00    +0.000 OA
ATOM     25  C   UNL     1       4.853   4.506  17.184  0.00  0.00    +0.000 A 
ATOM     26  C   UNL     1       6.093   4.408  16.589  0.00  0.00    +0.000 A 
ATOM     27  C   UNL     1       7.201   4.802  17.344  0.00  0.00    +0.000 A 
ATOM     28  C   UNL     1       7.041   5.288  18.658  0.00  0.00    +0.000 A 
ATOM     29  C   UNL     1       5.771   5.392  19.235  0.00  0.00    +0.000 A 
ATOM     30  C   UNL     1       4.698   4.989  18.470  0.00  0.00    +0.000 A 
ENDBRANCH  20  21
ENDBRANCH   2  20
TORSDOF 5
ENDMDL
MODEL 8
REMARK VINA RESULT:      -8.3      2.280      2.965
REMARK  Name = 
REMARK  5 active torsions:
REMARK  status: ('A' for Active; 'I' for Inactive)
REMARK    1  A    between atoms: C_2  and  C_3
REMARK    2  A    between atoms: C_3  and  N_4
REMARK    3  A    between atoms: N_14  and  C_15
REMARK    4  A    between atoms: C_19  and  S_20
REMARK    5  A    between atoms: S_20  and  N_23
REMARK                            x       y       z     vdW  Elec       q    Type
REMARK                         _______ _______ _______ _____ _____    ______ ____
ROOT
ATOM      1  O   UNL     1      -0.324   7.822  21.309  0.00  0.00    +0.000 OA
ATOM      2  C   UNL     1       0.833   8.240  21.307  0.00  0.00    +0.000 C 
ATOM      3  N   UNL     1       1.964   7.493  20.997  0.00  0.00    +0.000 N 
ATOM      4  H   UNL     1       2.861   7.876  21.283  0.00  0.00    +0.000 HD
ENDROOT
BRANCH   3   5
ATOM      5  C   UNL     1       1.963   6.168  20.502  0.00  0.00    +0.000 A 
ATOM      6  C   UNL     1       0.875   5.299  20.659  0.00  0.00    +0.000 A 
ATOM      7  C   UNL     1       0.931   3.981  20.197  0.00  0.00    +0.000 A 
ATOM      8  C   UNL     1       2.084   3.505  19.582  0.00  0.00    +0.000 A 
ATOM      9  C   UNL     1       3.172   4.365  19.418  0.00  0.00    +0.000 A 
ATOM     10  C   UNL     1       3.099   5.707  19.828  0.00  0.00    +0.000 A 
BRANCH   9  11
ATOM     11  S   UNL     1       4.659   3.750  18.638  0.00  0.00    +0.000 S 
ATOM     12  O   UNL     1       5.342   2.920  19.608  0.00  0.00    +0.000 OA
ATOM     13  O   UNL     1       4.271   3.224  17.345  0.00  0.00    +0.000 OA
BRANCH  11  14
ATOM     14  N   UNL     1       5.601   5.165  18.388  0.00  0.00    +0.000 NA
ATOM     15  C   UNL     1       7.030   5.039  18.771  0.00  0.00    +0.000 C 
ATOM     16  C   UNL     1       7.744   6.383  18.711  0.00  0.00    +0.000 C 
ATOM     17  C   UNL     1       7.582   7.023  17.341  0.00  0.00    +0.000 C 
ATOM     18  C   UNL     1       6.102   7.204  17.042  0.00  0.00    +0.000 C 
ATOM     19  C   UNL     1       5.357   5.872  17.101  0.00  0.00    +0.000 C 
ENDBRANCH  11  14
ENDBRANCH   9  11
ENDBRANCH   3   5
BRANCH   2  20
ATOM     20  C   UNL     1       1.132   9.666  21.763  0.00  0.00    +0.000 C 
BRANCH  20  21
ATOM     21  N   UNL     1       0.235  10.610  21.153  0.00  0.00    +0.000 N 
ATOM     22  C   UNL     1       0.377  11.133  19.888  0.00  0.00    +0.000 A 
ATOM     23  O   UNL     1       1.292  10.873  19.117  0.00  0.00    +0.000 OA
ATOM     24  O   UNL     1      -0.652  12.037  19.593  0.00  0.00    +0.000 OA
ATOM     25  C   UNL     1      -1.364  12.072  20.783  0.00  0.00    +0.000 A 
ATOM     26  C   UNL     1      -2.458  12.873  21.036  0.00  0.00    +0.000 A 
ATOM     27  C   UNL     1      -3.018  12.811  22.316  0.00  0.00    +0.000 A 
ATOM     28  C   UNL     1      -2.479  11.952  23.296  0.00  0.00    +0.000 A 
ATOM     29  C   UNL     1      -1.378  11.139  23.010  0.00  0.00    +0.000 A 
ATOM     30  C   UNL     1      -0.843  11.226  21.743  0.00  0.00    +0.000 A 
ENDBRANCH  20  21
ENDBRANCH   2  20
TORSDOF 5
ENDMDL
MODEL 9
REMARK VINA RESULT:      -8.2      2.541      8.978
REMARK  Name = 
REMARK  5 active torsions:
REMARK  status: ('A' for Active; 'I' for Inactive)
REMARK    1  A    between atoms: C_2  and  C_3
REMARK    2  A    between atoms: C_3  and  N_4
REMARK    3  A    between atoms: N_14  and  C_15
REMARK    4  A    between atoms: C_19  and  S_20
REMARK    5  A    between atoms: S_20  and  N_23
REMARK                            x       y       z     vdW  Elec       q    Type
REMARK                         _______ _______ _______ _____ _____    ______ ____
ROOT
ATOM      1  O   UNL     1       1.601   5.404  20.134  0.00  0.00    +0.000 OA
ATOM      2  C   UNL     1       2.145   6.012  19.214  0.00  0.00    +0.000 C 
ATOM      3  N   UNL     1       2.115   7.388  19.020  0.00  0.00    +0.000 N 
ATOM      4  H   UNL     1       2.374   7.730  18.099  0.00  0.00    +0.000 HD
ENDROOT
BRANCH   3   5
ATOM      5  C   UNL     1       1.569   8.332  19.922  0.00  0.00    +0.000 A 
ATOM      6  C   UNL     1       1.567   8.144  21.310  0.00  0.00    +0.000 A 
ATOM      7  C   UNL     1       0.976   9.078  22.165  0.00  0.00    +0.000 A 
ATOM      8  C   UNL     1       0.360  10.211  21.643  0.00  0.00    +0.000 A 
ATOM      9  C   UNL     1       0.360  10.409  20.260  0.00  0.00    +0.000 A 
ATOM     10  C   UNL     1       1.006   9.503  19.402  0.00  0.00    +0.000 A 
BRANCH   9  11
ATOM     11  S   UNL     1      -0.440  11.859  19.587  0.00  0.00    +0.000 S 
ATOM     12  O   UNL     1      -0.802  12.707  20.703  0.00  0.00    +0.000 OA
ATOM     13  O   UNL     1       0.405  12.351  18.518  0.00  0.00    +0.000 OA
BRANCH  11  14
ATOM     14  N   UNL     1      -1.886  11.240  18.895  0.00  0.00    +0.000 NA
ATOM     15  C   UNL     1      -3.063  12.140  19.001  0.00  0.00    +0.000 C 
ATOM     16  C   UNL     1      -4.340  11.443  18.551  0.00  0.00    +0.000 C 
ATOM     17  C   UNL     1      -4.184  10.880  17.146  0.00  0.00    +0.000 C 
ATOM     18  C   UNL     1      -3.019   9.903  17.122  0.00  0.00    +0.000 C 
ATOM     19  C   UNL     1      -1.723  10.573  17.575  0.00  0.00    +0.000 C 
ENDBRANCH  11  14
ENDBRANCH   9  11
ENDBRANCH   3   5
BRANCH   2  20
ATOM     20  C   UNL     1       2.854   5.241  18.102  0.00  0.00    +0.000 C 
BRANCH  20  21
ATOM     21  N   UNL     1       4.233   4.999  18.431  0.00  0.00    +0.000 N 
ATOM     22  C   UNL     1       4.690   3.971  19.223  0.00  0.00    +0.000 A 
ATOM     23  O   UNL     1       3.981   3.129  19.761  0.00  0.00    +0.000 OA
ATOM     24  O   UNL     1       6.082   4.018  19.365  0.00  0.00    +0.000 OA
ATOM     25  C   UNL     1       6.410   5.175  18.675  0.00  0.00    +0.000 A 
ATOM     26  C   UNL     1       7.678   5.709  18.567  0.00  0.00    +0.000 A 
ATOM     27  C   UNL     1       7.810   6.916  17.873  0.00  0.00    +0.000 A 
ATOM     28  C   UNL     1       6.684   7.545  17.304  0.00  0.00    +0.000 A 
ATOM     29  C   UNL     1       5.411   6.976  17.414  0.00  0.00    +0.000 A 
ATOM     30  C   UNL     1       5.310   5.791  18.110  0.00  0.00    +0.000 A 
ENDBRANCH  20  21
ENDBRANCH   2  20
TORSDOF 5
ENDMDL
