MODEL 1
REMARK VINA RESULT:      -9.2      0.000      0.000
REMARK  Name = 
REMARK  7 active torsions:
REMARK  status: ('A' for Active; 'I' for Inactive)
REMARK    1  A    between atoms: C_1  and  N_2
REMARK    2  A    between atoms: N_7  and  C_8
REMARK    3  A    between atoms: C_8  and  C_9
REMARK    4  A    between atoms: C_13  and  N_14
REMARK    5  A    between atoms: C_19  and  C_20
REMARK    6  A    between atoms: C_20  and  O_21
REMARK    7  A    between atoms: C_23  and  C_24
REMARK                            x       y       z     vdW  Elec       q    Type
REMARK                         _______ _______ _______ _____ _____    ______ ____
ROOT
ATOM      1  N   UNL     1       3.899   4.462  19.082  0.00  0.00    +0.000 N 
ATOM      2  C   UNL     1       5.245   5.033  19.340  0.00  0.00    +0.000 C 
ATOM      3  C   UNL     1       5.875   4.975  17.983  0.00  0.00    +0.000 A 
ATOM      4  C   UNL     1       5.267   3.938  17.276  0.00  0.00    +0.000 A 
ATOM      5  C   UNL     1       5.528   3.686  15.942  0.00  0.00    +0.000 A 
ATOM      6  C   UNL     1       6.433   4.530  15.286  0.00  0.00    +0.000 A 
ATOM      7  C   UNL     1       7.028   5.605  15.996  0.00  0.00    +0.000 A 
ATOM      8  C   UNL     1       6.758   5.845  17.356  0.00  0.00    +0.000 A 
ATOM      9  C   UNL     1       4.085   3.501  18.054  0.00  0.00    +0.000 C 
ATOM     10  O   UNL     1       3.332   2.609  17.705  0.00  0.00    +0.000 OA
ENDROOT
BRANCH   1  15
ATOM     11  C   UNL     1       2.051   7.498  19.859  0.00  0.00    +0.000 A 
ATOM     12  C   UNL     1       2.389   8.245  18.721  0.00  0.00    +0.000 A 
ATOM     13  C   UNL     1       2.842   7.608  17.572  0.00  0.00    +0.000 A 
ATOM     14  C   UNL     1       3.061   6.234  17.583  0.00  0.00    +0.000 A 
ATOM     15  C   UNL     1       2.952   5.525  18.789  0.00  0.00    +0.000 A 
ATOM     16  C   UNL     1       2.294   6.119  19.870  0.00  0.00    +0.000 A 
BRANCH  11  17
ATOM     17  C   UNL     1       1.460   8.176  21.067  0.00  0.00    +0.000 C 
BRANCH  17  24
ATOM     18  C   UNL     1      -1.060  11.615  19.942  0.00  0.00    +0.000 C 
ATOM     19  N   UNL     1      -0.730  11.122  21.251  0.00  0.00    +0.000 N 
ATOM     20  C   UNL     1      -1.146  11.640  22.433  0.00  0.00    +0.000 A 
ATOM     21  N   UNL     1      -0.591  10.982  23.424  0.00  0.00    +0.000 NA
ATOM     22  N   UNL     1       0.212  10.010  22.871  0.00  0.00    +0.000 NA
ATOM     23  C   UNL     1       0.116  10.087  21.562  0.00  0.00    +0.000 A 
ATOM     24  N   UNL     1       0.710   9.339  20.611  0.00  0.00    +0.000 N 
ATOM     25  H   UNL     1       0.287   9.234  19.702  0.00  0.00    +0.000 HD
ENDBRANCH  17  24
ENDBRANCH  11  17
ENDBRANCH   1  15
BRANCH   8  26
ATOM     26  C   UNL     1       7.284   7.079  18.039  0.00  0.00    +0.000 C 
ATOM     27  F   UNL     1       8.226   6.793  18.981  0.00  0.00    +0.000 F 
ATOM     28  F   UNL     1       7.874   7.953  17.179  0.00  0.00    +0.000 F 
ENDBRANCH   8  26
BRANCH   6  29
ATOM     29  C   UNL     1       6.747   4.333  13.827  0.00  0.00    +0.000 C 
BRANCH  29  30
ATOM     30  O   UNL     1       7.594   5.375  13.358  0.00  0.00    +0.000 OA
ATOM     31  H   UNL     1       7.624   6.053  14.055  0.00  0.00    +0.000 HD
ENDBRANCH  29  30
ENDBRANCH   6  29
TORSDOF 6
ENDMDL
MODEL 2
REMARK VINA RESULT:      -8.3      1.033      1.292
REMARK  Name = 
REMARK  7 active torsions:
REMARK  status: ('A' for Active; 'I' for Inactive)
REMARK    1  A    between atoms: C_1  and  N_2
REMARK    2  A    between atoms: N_7  and  C_8
REMARK    3  A    between atoms: C_8  and  C_9
REMARK    4  A    between atoms: C_13  and  N_14
REMARK    5  A    between atoms: C_19  and  C_20
REMARK    6  A    between atoms: C_20  and  O_21
REMARK    7  A    between atoms: C_23  and  C_24
REMARK                            x       y       z     vdW  Elec       q    Type
REMARK                         _______ _______ _______ _____ _____    ______ ____
ROOT
ATOM      1  N   UNL     1       3.923   4.655  19.091  0.00  0.00    +0.000 N 
ATOM      2  C   UNL     1       5.279   5.207  19.335  0.00  0.00    +0.000 C 
ATOM      3  C   UNL     1       5.908   5.102  17.981  0.00  0.00    +0.000 A 
ATOM      4  C   UNL     1       5.281   4.059  17.300  0.00  0.00    +0.000 A 
ATOM      5  C   UNL     1       5.537   3.768  15.972  0.00  0.00    +0.000 A 
ATOM      6  C   UNL     1       6.458   4.577  15.296  0.00  0.00    +0.000 A 
ATOM      7  C   UNL     1       7.073   5.658  15.978  0.00  0.00    +0.000 A 
ATOM      8  C   UNL     1       6.808   5.938  17.332  0.00  0.00    +0.000 A 
ATOM      9  C   UNL     1       4.090   3.664  18.087  0.00  0.00    +0.000 C 
ATOM     10  O   UNL     1       3.320   2.778  17.761  0.00  0.00    +0.000 OA
ENDROOT
BRANCH   1  15
ATOM     11  C   UNL     1       1.953   7.613  19.869  0.00  0.00    +0.000 A 
ATOM     12  C   UNL     1       2.400   8.442  18.829  0.00  0.00    +0.000 A 
ATOM     13  C   UNL     1       2.986   7.891  17.695  0.00  0.00    +0.000 A 
ATOM     14  C   UNL     1       3.225   6.522  17.635  0.00  0.00    +0.000 A 
ATOM     15  C   UNL     1       2.996   5.728  18.770  0.00  0.00    +0.000 A 
ATOM     16  C   UNL     1       2.215   6.238  19.810  0.00  0.00    +0.000 A 
BRANCH  11  17
ATOM     17  C   UNL     1       1.223   8.200  21.048  0.00  0.00    +0.000 C 
BRANCH  17  24
ATOM     18  C   UNL     1       1.587  12.571  20.595  0.00  0.00    +0.000 C 
ATOM     19  N   UNL     1       0.509  11.705  20.203  0.00  0.00    +0.000 N 
ATOM     20  C   UNL     1      -0.644  12.081  19.598  0.00  0.00    +0.000 A 
ATOM     21  N   UNL     1      -1.429  11.039  19.455  0.00  0.00    +0.000 NA
ATOM     22  N   UNL     1      -0.770   9.954  19.987  0.00  0.00    +0.000 NA
ATOM     23  C   UNL     1       0.404  10.354  20.424  0.00  0.00    +0.000 A 
ATOM     24  N   UNL     1       1.390   9.646  21.010  0.00  0.00    +0.000 N 
ATOM     25  H   UNL     1       2.347   9.956  20.952  0.00  0.00    +0.000 HD
ENDBRANCH  17  24
ENDBRANCH  11  17
ENDBRANCH   1  15
BRANCH   8  26
ATOM     26  C   UNL     1       7.357   7.179  17.983  0.00  0.00    +0.000 C 
ATOM     27  F   UNL     1       8.327   6.902  18.899  0.00  0.00    +0.000 F 
ATOM     28  F   UNL     1       7.922   8.041  17.095  0.00  0.00    +0.000 F 
ENDBRANCH   8  26
BRANCH   6  29
ATOM     29  C   UNL     1       6.769   4.336  13.843  0.00  0.00    +0.000 C 
BRANCH  29  30
ATOM     30  O   UNL     1       7.635   5.350  13.348  0.00  0.00    +0.000 OA
ATOM     31  H   UNL     1       7.429   6.165  13.837  0.00  0.00    +0.000 HD
ENDBRANCH  29  30
ENDBRANCH   6  29
TORSDOF 6
ENDMDL
MODEL 3
REMARK VINA RESULT:      -7.9      3.927      8.123
REMARK  Name = 
REMARK  7 active torsions:
REMARK  status: ('A' for Active; 'I' for Inactive)
REMARK    1  A    between atoms: C_1  and  N_2
REMARK    2  A    between atoms: N_7  and  C_8
REMARK    3  A    between atoms: C_8  and  C_9
REMARK    4  A    between atoms: C_13  and  N_14
REMARK    5  A    between atoms: C_19  and  C_20
REMARK    6  A    between atoms: C_20  and  O_21
REMARK    7  A    between atoms: C_23  and  C_24
REMARK                            x       y       z     vdW  Elec       q    Type
REMARK                         _______ _______ _______ _____ _____    ______ ____
ROOT
ATOM      1  N   UNL     1       2.628   7.622  19.319  0.00  0.00    +0.000 N 
ATOM      2  C   UNL     1       2.239   8.418  20.511  0.00  0.00    +0.000 C 
ATOM      3  C   UNL     1       1.074   9.203  19.995  0.00  0.00    +0.000 A 
ATOM      4  C   UNL     1       1.232   9.344  18.617  0.00  0.00    +0.000 A 
ATOM      5  C   UNL     1       0.269   9.916  17.805  0.00  0.00    +0.000 A 
ATOM      6  C   UNL     1      -0.915  10.353  18.412  0.00  0.00    +0.000 A 
ATOM      7  C   UNL     1      -1.091  10.182  19.809  0.00  0.00    +0.000 A 
ATOM      8  C   UNL     1      -0.099   9.604  20.624  0.00  0.00    +0.000 A 
ATOM      9  C   UNL     1       2.332   8.444  18.200  0.00  0.00    +0.000 C 
ATOM     10  O   UNL     1       2.718   8.327  17.051  0.00  0.00    +0.000 OA
ENDROOT
BRANCH   1  15
ATOM     11  C   UNL     1       2.422   4.046  18.682  0.00  0.00    +0.000 A 
ATOM     12  C   UNL     1       2.075   3.623  19.974  0.00  0.00    +0.000 A 
ATOM     13  C   UNL     1       1.518   4.519  20.880  0.00  0.00    +0.000 A 
ATOM     14  C   UNL     1       1.401   5.863  20.541  0.00  0.00    +0.000 A 
ATOM     15  C   UNL     1       1.967   6.328  19.344  0.00  0.00    +0.000 A 
ATOM     16  C   UNL     1       2.321   5.404  18.356  0.00  0.00    +0.000 A 
BRANCH  11  17
ATOM     17  C   UNL     1       2.925   3.054  17.667  0.00  0.00    +0.000 C 
BRANCH  17  24
ATOM     18  C   UNL     1       5.904   5.328  15.343  0.00  0.00    +0.000 C 
ATOM     19  N   UNL     1       5.983   4.847  16.695  0.00  0.00    +0.000 N 
ATOM     20  C   UNL     1       7.028   5.006  17.545  0.00  0.00    +0.000 A 
ATOM     21  N   UNL     1       6.783   4.374  18.669  0.00  0.00    +0.000 NA
ATOM     22  N   UNL     1       5.547   3.784  18.547  0.00  0.00    +0.000 NA
ATOM     23  C   UNL     1       5.059   4.082  17.362  0.00  0.00    +0.000 A 
ATOM     24  N   UNL     1       3.882   3.735  16.805  0.00  0.00    +0.000 N 
ATOM     25  H   UNL     1       3.465   4.309  16.088  0.00  0.00    +0.000 HD
ENDBRANCH  17  24
ENDBRANCH  11  17
ENDBRANCH   1  15
BRANCH   8  26
ATOM     26  C   UNL     1      -0.374   9.298  22.071  0.00  0.00    +0.000 C 
ATOM     27  F   UNL     1      -1.190  10.221  22.653  0.00  0.00    +0.000 F 
ATOM     28  F   UNL     1      -0.983   8.095  22.256  0.00  0.00    +0.000 F 
ENDBRANCH   8  26
BRANCH   6  29
ATOM     29  C   UNL     1      -2.019  10.962  17.588  0.00  0.00    +0.000 C 
BRANCH  29  30
ATOM     30  O   UNL     1      -1.662  12.276  17.178  0.00  0.00    +0.000 OA
ATOM     31  H   UNL     1      -1.416  12.768  17.979  0.00  0.00    +0.000 HD
ENDBRANCH  29  30
ENDBRANCH   6  29
TORSDOF 6
ENDMDL
MODEL 4
REMARK VINA RESULT:      -7.8      4.549      6.931
REMARK  Name = 
REMARK  7 active torsions:
REMARK  status: ('A' for Active; 'I' for Inactive)
REMARK    1  A    between atoms: C_1  and  N_2
REMARK    2  A    between atoms: N_7  and  C_8
REMARK    3  A    between atoms: C_8  and  C_9
REMARK    4  A    between atoms: C_13  and  N_14
REMARK    5  A    between atoms: C_19  and  C_20
REMARK    6  A    between atoms: C_20  and  O_21
REMARK    7  A    between atoms: C_23  and  C_24
REMARK                            x       y       z     vdW  Elec       q    Type
REMARK                         _______ _______ _______ _____ _____    ______ ____
ROOT
ATOM      1  N   UNL     1       5.912   5.374  15.803  0.00  0.00    +0.000 N 
ATOM      2  C   UNL     1       4.772   6.303  16.005  0.00  0.00    +0.000 C 
ATOM      3  C   UNL     1       3.995   5.615  17.084  0.00  0.00    +0.000 A 
ATOM      4  C   UNL     1       4.264   4.249  16.996  0.00  0.00    +0.000 A 
ATOM      5  C   UNL     1       3.801   3.332  17.922  0.00  0.00    +0.000 A 
ATOM      6  C   UNL     1       3.045   3.818  18.995  0.00  0.00    +0.000 A 
ATOM      7  C   UNL     1       2.798   5.211  19.104  0.00  0.00    +0.000 A 
ATOM      8  C   UNL     1       3.269   6.132  18.149  0.00  0.00    +0.000 A 
ATOM      9  C   UNL     1       5.395   4.076  16.056  0.00  0.00    +0.000 C 
ATOM     10  O   UNL     1       5.878   2.997  15.762  0.00  0.00    +0.000 OA
ENDROOT
BRANCH   1  15
ATOM     11  C   UNL     1       7.933   7.794  17.621  0.00  0.00    +0.000 A 
ATOM     12  C   UNL     1       7.970   7.144  18.863  0.00  0.00    +0.000 A 
ATOM     13  C   UNL     1       7.708   5.781  18.951  0.00  0.00    +0.000 A 
ATOM     14  C   UNL     1       7.306   5.079  17.819  0.00  0.00    +0.000 A 
ATOM     15  C   UNL     1       7.038   5.776  16.630  0.00  0.00    +0.000 A 
ATOM     16  C   UNL     1       7.507   7.085  16.490  0.00  0.00    +0.000 A 
BRANCH  11  17
ATOM     17  C   UNL     1       8.320   9.245  17.509  0.00  0.00    +0.000 C 
BRANCH  17  24
ATOM     18  C   UNL     1       9.159  10.867  21.523  0.00  0.00    +0.000 C 
ATOM     19  N   UNL     1       9.722  11.245  20.256  0.00  0.00    +0.000 N 
ATOM     20  C   UNL     1      10.653  12.208  20.046  0.00  0.00    +0.000 A 
ATOM     21  N   UNL     1      10.880  12.330  18.758  0.00  0.00    +0.000 NA
ATOM     22  N   UNL     1      10.070  11.424  18.112  0.00  0.00    +0.000 NA
ATOM     23  C   UNL     1       9.384  10.761  19.017  0.00  0.00    +0.000 A 
ATOM     24  N   UNL     1       8.478   9.776  18.856  0.00  0.00    +0.000 N 
ATOM     25  H   UNL     1       8.313   9.107  19.592  0.00  0.00    +0.000 HD
ENDBRANCH  17  24
ENDBRANCH  11  17
ENDBRANCH   1  15
BRANCH   8  26
ATOM     26  C   UNL     1       3.122   7.613  18.371  0.00  0.00    +0.000 C 
ATOM     27  F   UNL     1       2.493   8.236  17.335  0.00  0.00    +0.000 F 
ATOM     28  F   UNL     1       2.395   7.916  19.481  0.00  0.00    +0.000 F 
ENDBRANCH   8  26
BRANCH   6  29
ATOM     29  C   UNL     1       2.529   2.883  20.056  0.00  0.00    +0.000 C 
BRANCH  29  30
ATOM     30  O   UNL     1       3.607   2.370  20.830  0.00  0.00    +0.000 OA
ATOM     31  H   UNL     1       3.217   1.864  21.562  0.00  0.00    +0.000 HD
ENDBRANCH  29  30
ENDBRANCH   6  29
TORSDOF 6
ENDMDL
MODEL 5
REMARK VINA RESULT:      -7.8      5.660     10.781
REMARK  Name = 
REMARK  7 active torsions:
REMARK  status: ('A' for Active; 'I' for Inactive)
REMARK    1  A    between atoms: C_1  and  N_2
REMARK    2  A    between atoms: N_7  and  C_8
REMARK    3  A    between atoms: C_8  and  C_9
REMARK    4  A    between atoms: C_13  and  N_14
REMARK    5  A    between atoms: C_19  and  C_20
REMARK    6  A    between atoms: C_20  and  O_21
REMARK    7  A    between atoms: C_23  and  C_24
REMARK                            x       y       z     vdW  Elec       q    Type
REMARK                         _______ _______ _______ _____ _____    ______ ____
ROOT
ATOM      1  N   UNL     1      -0.752  12.175  20.740  0.00  0.00    +0.000 N 
ATOM      2  C   UNL     1      -1.190  13.004  21.891  0.00  0.00    +0.000 C 
ATOM      3  C   UNL     1      -2.680  12.968  21.754  0.00  0.00    +0.000 A 
ATOM      4  C   UNL     1      -2.978  12.759  20.407  0.00  0.00    +0.000 A 
ATOM      5  C   UNL     1      -4.266  12.554  19.947  0.00  0.00    +0.000 A 
ATOM      6  C   UNL     1      -5.299  12.542  20.892  0.00  0.00    +0.000 A 
ATOM      7  C   UNL     1      -4.994  12.722  22.266  0.00  0.00    +0.000 A 
ATOM      8  C   UNL     1      -3.678  12.938  22.719  0.00  0.00    +0.000 A 
ATOM      9  C   UNL     1      -1.716  12.399  19.721  0.00  0.00    +0.000 C 
ATOM     10  O   UNL     1      -1.634  12.150  18.532  0.00  0.00    +0.000 OA
ENDROOT
BRANCH   1  15
ATOM     11  C   UNL     1       0.958   8.963  20.785  0.00  0.00    +0.000 A 
ATOM     12  C   UNL     1       1.076   8.809  22.174  0.00  0.00    +0.000 A 
ATOM     13  C   UNL     1       0.246   9.521  23.033  0.00  0.00    +0.000 A 
ATOM     14  C   UNL     1      -0.634  10.468  22.519  0.00  0.00    +0.000 A 
ATOM     15  C   UNL     1      -0.583  10.792  21.154  0.00  0.00    +0.000 A 
ATOM     16  C   UNL     1       0.084   9.933  20.276  0.00  0.00    +0.000 A 
BRANCH  11  17
ATOM     17  C   UNL     1       1.782   8.116  19.853  0.00  0.00    +0.000 C 
BRANCH  17  24
ATOM     18  C   UNL     1       2.224   3.986  21.336  0.00  0.00    +0.000 C 
ATOM     19  N   UNL     1       2.829   4.608  20.190  0.00  0.00    +0.000 N 
ATOM     20  C   UNL     1       3.684   4.023  19.316  0.00  0.00    +0.000 A 
ATOM     21  N   UNL     1       4.094   4.908  18.438  0.00  0.00    +0.000 NA
ATOM     22  N   UNL     1       3.492   6.105  18.752  0.00  0.00    +0.000 NA
ATOM     23  C   UNL     1       2.719   5.920  19.800  0.00  0.00    +0.000 A 
ATOM     24  N   UNL     1       1.933   6.798  20.454  0.00  0.00    +0.000 N 
ATOM     25  H   UNL     1       1.129   6.478  20.971  0.00  0.00    +0.000 HD
ENDBRANCH  17  24
ENDBRANCH  11  17
ENDBRANCH   1  15
BRANCH   8  26
ATOM     26  C   UNL     1      -3.368  12.974  24.191  0.00  0.00    +0.000 C 
ATOM     27  F   UNL     1      -3.478  14.225  24.718  0.00  0.00    +0.000 F 
ATOM     28  F   UNL     1      -4.198  12.187  24.930  0.00  0.00    +0.000 F 
ENDBRANCH   8  26
BRANCH   6  29
ATOM     29  C   UNL     1      -6.723  12.298  20.468  0.00  0.00    +0.000 C 
BRANCH  29  30
ATOM     30  O   UNL     1      -7.134  10.990  20.846  0.00  0.00    +0.000 OA
ATOM     31  H   UNL     1      -6.619  10.364  20.310  0.00  0.00    +0.000 HD
ENDBRANCH  29  30
ENDBRANCH   6  29
TORSDOF 6
ENDMDL
MODEL 6
REMARK VINA RESULT:      -7.7      4.036      8.488
REMARK  Name = 
REMARK  7 active torsions:
REMARK  status: ('A' for Active; 'I' for Inactive)
REMARK    1  A    between atoms: C_1  and  N_2
REMARK    2  A    between atoms: N_7  and  C_8
REMARK    3  A    between atoms: C_8  and  C_9
REMARK    4  A    between atoms: C_13  and  N_14
REMARK    5  A    between atoms: C_19  and  C_20
REMARK    6  A    between atoms: C_20  and  O_21
REMARK    7  A    between atoms: C_23  and  C_24
REMARK                            x       y       z     vdW  Elec       q    Type
REMARK                         _______ _______ _______ _____ _____    ______ ____
ROOT
ATOM      1  N   UNL     1       2.612   7.960  19.263  0.00  0.00    +0.000 N 
ATOM      2  C   UNL     1       2.192   8.704  20.477  0.00  0.00    +0.000 C 
ATOM      3  C   UNL     1       0.937   9.376  20.012  0.00  0.00    +0.000 A 
ATOM      4  C   UNL     1       1.030   9.543  18.631  0.00  0.00    +0.000 A 
ATOM      5  C   UNL     1      -0.013  10.025  17.861  0.00  0.00    +0.000 A 
ATOM      6  C   UNL     1      -1.211  10.338  18.514  0.00  0.00    +0.000 A 
ATOM      7  C   UNL     1      -1.318  10.139  19.915  0.00  0.00    +0.000 A 
ATOM      8  C   UNL     1      -0.245   9.655  20.687  0.00  0.00    +0.000 A 
ATOM      9  C   UNL     1       2.197   8.759  18.164  0.00  0.00    +0.000 C 
ATOM     10  O   UNL     1       2.550   8.690  17.001  0.00  0.00    +0.000 OA
ENDROOT
BRANCH   1  15
ATOM     11  C   UNL     1       2.849   4.349  18.890  0.00  0.00    +0.000 A 
ATOM     12  C   UNL     1       2.352   3.976  20.148  0.00  0.00    +0.000 A 
ATOM     13  C   UNL     1       1.582   4.864  20.891  0.00  0.00    +0.000 A 
ATOM     14  C   UNL     1       1.389   6.164  20.432  0.00  0.00    +0.000 A 
ATOM     15  C   UNL     1       2.082   6.607  19.295  0.00  0.00    +0.000 A 
ATOM     16  C   UNL     1       2.668   5.665  18.445  0.00  0.00    +0.000 A 
BRANCH  11  17
ATOM     17  C   UNL     1       3.592   3.353  18.040  0.00  0.00    +0.000 C 
BRANCH  17  24
ATOM     18  C   UNL     1       7.843   4.411  17.540  0.00  0.00    +0.000 C 
ATOM     19  N   UNL     1       6.794   4.382  16.558  0.00  0.00    +0.000 N 
ATOM     20  C   UNL     1       6.917   4.686  15.243  0.00  0.00    +0.000 A 
ATOM     21  N   UNL     1       5.740   4.623  14.663  0.00  0.00    +0.000 NA
ATOM     22  N   UNL     1       4.826   4.271  15.629  0.00  0.00    +0.000 NA
ATOM     23  C   UNL     1       5.465   4.112  16.768  0.00  0.00    +0.000 A 
ATOM     24  N   UNL     1       4.988   3.762  17.979  0.00  0.00    +0.000 N 
ATOM     25  H   UNL     1       5.586   3.313  18.655  0.00  0.00    +0.000 HD
ENDBRANCH  17  24
ENDBRANCH  11  17
ENDBRANCH   1  15
BRANCH   8  26
ATOM     26  C   UNL     1      -0.435   9.312  22.139  0.00  0.00    +0.000 C 
ATOM     27  F   UNL     1      -1.243  10.199  22.784  0.00  0.00    +0.000 F 
ATOM     28  F   UNL     1      -1.004   8.089  22.328  0.00  0.00    +0.000 F 
ENDBRANCH   8  26
BRANCH   6  29
ATOM     29  C   UNL     1      -2.399  10.843  17.738  0.00  0.00    +0.000 C 
BRANCH  29  30
ATOM     30  O   UNL     1      -1.980  11.760  16.735  0.00  0.00    +0.000 OA
ATOM     31  H   UNL     1      -2.318  11.428  15.886  0.00  0.00    +0.000 HD
ENDBRANCH  29  30
ENDBRANCH   6  29
TORSDOF 6
ENDMDL
MODEL 7
REMARK VINA RESULT:      -7.7      4.534      6.851
REMARK  Name = 
REMARK  7 active torsions:
REMARK  status: ('A' for Active; 'I' for Inactive)
REMARK    1  A    between atoms: C_1  and  N_2
REMARK    2  A    between atoms: N_7  and  C_8
REMARK    3  A    between atoms: C_8  and  C_9
REMARK    4  A    between atoms: C_13  and  N_14
REMARK    5  A    between atoms: C_19  and  C_20
REMARK    6  A    between atoms: C_20  and  O_21
REMARK    7  A    between atoms: C_23  and  C_24
REMARK                            x       y       z     vdW  Elec       q    Type
REMARK                         _______ _______ _______ _____ _____    ______ ____
ROOT
ATOM      1  N   UNL     1       5.723   6.004  15.936  0.00  0.00    +0.000 N 
ATOM      2  C   UNL     1       4.544   6.572  16.637  0.00  0.00    +0.000 C 
ATOM      3  C   UNL     1       4.009   5.380  17.365  0.00  0.00    +0.000 A 
ATOM      4  C   UNL     1       4.388   4.241  16.655  0.00  0.00    +0.000 A 
ATOM      5  C   UNL     1       4.160   2.958  17.117  0.00  0.00    +0.000 A 
ATOM      6  C   UNL     1       3.534   2.817  18.361  0.00  0.00    +0.000 A 
ATOM      7  C   UNL     1       3.176   3.974  19.100  0.00  0.00    +0.000 A 
ATOM      8  C   UNL     1       3.408   5.275  18.613  0.00  0.00    +0.000 A 
ATOM      9  C   UNL     1       5.375   4.661  15.633  0.00  0.00    +0.000 C 
ATOM     10  O   UNL     1       5.907   3.899  14.846  0.00  0.00    +0.000 OA
ENDROOT
BRANCH   1  15
ATOM     11  C   UNL     1       8.126   7.971  17.831  0.00  0.00    +0.000 A 
ATOM     12  C   UNL     1       8.103   7.234  19.025  0.00  0.00    +0.000 A 
ATOM     13  C   UNL     1       7.647   5.921  19.032  0.00  0.00    +0.000 A 
ATOM     14  C   UNL     1       7.115   5.367  17.872  0.00  0.00    +0.000 A 
ATOM     15  C   UNL     1       6.918   6.179  16.744  0.00  0.00    +0.000 A 
ATOM     16  C   UNL     1       7.569   7.414  16.673  0.00  0.00    +0.000 A 
BRANCH  11  17
ATOM     17  C   UNL     1       8.718   9.355  17.803  0.00  0.00    +0.000 C 
BRANCH  17  24
ATOM     18  C   UNL     1       8.776  11.042  21.877  0.00  0.00    +0.000 C 
ATOM     19  N   UNL     1       9.644  11.322  20.766  0.00  0.00    +0.000 N 
ATOM     20  C   UNL     1      10.684  12.192  20.760  0.00  0.00    +0.000 A 
ATOM     21  N   UNL     1      11.206  12.248  19.556  0.00  0.00    +0.000 NA
ATOM     22  N   UNL     1      10.483  11.393  18.756  0.00  0.00    +0.000 NA
ATOM     23  C   UNL     1       9.551  10.826  19.490  0.00  0.00    +0.000 A 
ATOM     24  N   UNL     1       8.617   9.918  19.142  0.00  0.00    +0.000 N 
ATOM     25  H   UNL     1       8.228   9.293  19.831  0.00  0.00    +0.000 HD
ENDBRANCH  17  24
ENDBRANCH  11  17
ENDBRANCH   1  15
BRANCH   8  26
ATOM     26  C   UNL     1       3.157   6.477  19.483  0.00  0.00    +0.000 C 
ATOM     27  F   UNL     1       2.678   7.540  18.778  0.00  0.00    +0.000 F 
ATOM     28  F   UNL     1       2.244   6.243  20.466  0.00  0.00    +0.000 F 
ENDBRANCH   8  26
BRANCH   6  29
ATOM     29  C   UNL     1       3.277   1.451  18.940  0.00  0.00    +0.000 C 
BRANCH  29  30
ATOM     30  O   UNL     1       4.335   0.563  18.601  0.00  0.00    +0.000 OA
ATOM     31  H   UNL     1       4.332   0.472  17.633  0.00  0.00    +0.000 HD
ENDBRANCH  29  30
ENDBRANCH   6  29
TORSDOF 6
ENDMDL
MODEL 8
REMARK VINA RESULT:      -7.7      3.560      4.963
REMARK  Name = 
REMARK  7 active torsions:
REMARK  status: ('A' for Active; 'I' for Inactive)
REMARK    1  A    between atoms: C_1  and  N_2
REMARK    2  A    between atoms: N_7  and  C_8
REMARK    3  A    between atoms: C_8  and  C_9
REMARK    4  A    between atoms: C_13  and  N_14
REMARK    5  A    between atoms: C_19  and  C_20
REMARK    6  A    between atoms: C_20  and  O_21
REMARK    7  A    between atoms: C_23  and  C_24
REMARK                            x       y       z     vdW  Elec       q    Type
REMARK                         _______ _______ _______ _____ _____    ______ ____
ROOT
ATOM      1  N   UNL     1       2.870   6.082  17.615  0.00  0.00    +0.000 N 
ATOM      2  C   UNL     1       1.828   5.034  17.757  0.00  0.00    +0.000 C 
ATOM      3  C   UNL     1       2.536   3.998  18.573  0.00  0.00    +0.000 A 
ATOM      4  C   UNL     1       3.903   4.126  18.329  0.00  0.00    +0.000 A 
ATOM      5  C   UNL     1       4.859   3.400  19.016  0.00  0.00    +0.000 A 
ATOM      6  C   UNL     1       4.415   2.515  20.007  0.00  0.00    +0.000 A 
ATOM      7  C   UNL     1       3.027   2.408  20.278  0.00  0.00    +0.000 A 
ATOM      8  C   UNL     1       2.064   3.148  19.565  0.00  0.00    +0.000 A 
ATOM      9  C   UNL     1       4.107   5.387  17.579  0.00  0.00    +0.000 C 
ATOM     10  O   UNL     1       5.196   5.794  17.214  0.00  0.00    +0.000 OA
ENDROOT
BRANCH   1  15
ATOM     11  C   UNL     1       1.525   9.127  19.085  0.00  0.00    +0.000 A 
ATOM     12  C   UNL     1       1.063   8.587  20.295  0.00  0.00    +0.000 A 
ATOM     13  C   UNL     1       1.567   7.379  20.764  0.00  0.00    +0.000 A 
ATOM     14  C   UNL     1       2.456   6.650  19.981  0.00  0.00    +0.000 A 
ATOM     15  C   UNL     1       2.732   7.071  18.671  0.00  0.00    +0.000 A 
ATOM     16  C   UNL     1       2.404   8.376  18.293  0.00  0.00    +0.000 A 
BRANCH  11  17
ATOM     17  C   UNL     1       1.059  10.484  18.630  0.00  0.00    +0.000 C 
BRANCH  17  24
ATOM     18  C   UNL     1      -2.603   9.871  16.251  0.00  0.00    +0.000 C 
ATOM     19  N   UNL     1      -2.424  10.620  17.465  0.00  0.00    +0.000 N 
ATOM     20  C   UNL     1      -3.383  11.307  18.133  0.00  0.00    +0.000 A 
ATOM     21  N   UNL     1      -2.848  11.931  19.157  0.00  0.00    +0.000 NA
ATOM     22  N   UNL     1      -1.501  11.645  19.152  0.00  0.00    +0.000 NA
ATOM     23  C   UNL     1      -1.250  10.844  18.140  0.00  0.00    +0.000 A 
ATOM     24  N   UNL     1      -0.082  10.298  17.746  0.00  0.00    +0.000 N 
ATOM     25  H   UNL     1      -0.071   9.436  17.223  0.00  0.00    +0.000 HD
ENDBRANCH  17  24
ENDBRANCH  11  17
ENDBRANCH   1  15
BRANCH   8  26
ATOM     26  C   UNL     1       0.617   3.126  19.977  0.00  0.00    +0.000 C 
ATOM     27  F   UNL     1       0.160   4.357  20.342  0.00  0.00    +0.000 F 
ATOM     28  F   UNL     1      -0.213   2.702  18.985  0.00  0.00    +0.000 F 
ENDBRANCH   8  26
BRANCH   6  29
ATOM     29  C   UNL     1       5.399   1.710  20.814  0.00  0.00    +0.000 C 
BRANCH  29  30
ATOM     30  O   UNL     1       5.541   0.407  20.262  0.00  0.00    +0.000 OA
ATOM     31  H   UNL     1       5.763  -0.190  20.997  0.00  0.00    +0.000 HD
ENDBRANCH  29  30
ENDBRANCH   6  29
TORSDOF 6
ENDMDL
MODEL 9
REMARK VINA RESULT:      -7.7      6.988      9.288
REMARK  Name = 
REMARK  7 active torsions:
REMARK  status: ('A' for Active; 'I' for Inactive)
REMARK    1  A    between atoms: C_1  and  N_2
REMARK    2  A    between atoms: N_7  and  C_8
REMARK    3  A    between atoms: C_8  and  C_9
REMARK    4  A    between atoms: C_13  and  N_14
REMARK    5  A    between atoms: C_19  and  C_20
REMARK    6  A    between atoms: C_20  and  O_21
REMARK    7  A    between atoms: C_23  and  C_24
REMARK                            x       y       z     vdW  Elec       q    Type
REMARK                         _______ _______ _______ _____ _____    ______ ____
ROOT
ATOM      1  N   UNL     1      -0.311  11.216  18.527  0.00  0.00    +0.000 N 
ATOM      2  C   UNL     1       0.384  10.367  19.527  0.00  0.00    +0.000 C 
ATOM      3  C   UNL     1      -0.066  10.974  20.820  0.00  0.00    +0.000 A 
ATOM      4  C   UNL     1      -0.372  12.313  20.577  0.00  0.00    +0.000 A 
ATOM      5  C   UNL     1      -0.934  13.139  21.533  0.00  0.00    +0.000 A 
ATOM      6  C   UNL     1      -1.215  12.584  22.787  0.00  0.00    +0.000 A 
ATOM      7  C   UNL     1      -0.934  11.214  23.026  0.00  0.00    +0.000 A 
ATOM      8  C   UNL     1      -0.354  10.387  22.045  0.00  0.00    +0.000 A 
ATOM      9  C   UNL     1      -0.380  12.510  19.109  0.00  0.00    +0.000 C 
ATOM     10  O   UNL     1      -0.617  13.574  18.566  0.00  0.00    +0.000 OA
ENDROOT
BRANCH   1  15
ATOM     11  C   UNL     1      -3.850  11.328  17.691  0.00  0.00    +0.000 A 
ATOM     12  C   UNL     1      -3.803  10.607  16.488  0.00  0.00    +0.000 A 
ATOM     13  C   UNL     1      -2.729   9.769  16.213  0.00  0.00    +0.000 A 
ATOM     14  C   UNL     1      -1.646   9.723  17.086  0.00  0.00    +0.000 A 
ATOM     15  C   UNL     1      -1.585  10.620  18.163  0.00  0.00    +0.000 A 
ATOM     16  C   UNL     1      -2.747  11.293  18.553  0.00  0.00    +0.000 A 
BRANCH  11  17
ATOM     17  C   UNL     1      -5.061  12.153  18.036  0.00  0.00    +0.000 C 
BRANCH  17  24
ATOM     18  C   UNL     1      -4.518  14.465  21.752  0.00  0.00    +0.000 C 
ATOM     19  N   UNL     1      -5.422  13.381  21.482  0.00  0.00    +0.000 N 
ATOM     20  C   UNL     1      -6.313  12.843  22.351  0.00  0.00    +0.000 A 
ATOM     21  N   UNL     1      -6.918  11.823  21.788  0.00  0.00    +0.000 NA
ATOM     22  N   UNL     1      -6.405  11.692  20.518  0.00  0.00    +0.000 NA
ATOM     23  C   UNL     1      -5.513  12.640  20.330  0.00  0.00    +0.000 A 
ATOM     24  N   UNL     1      -4.763  12.911  19.244  0.00  0.00    +0.000 N 
ATOM     25  H   UNL     1      -4.419  13.844  19.079  0.00  0.00    +0.000 HD
ENDBRANCH  17  24
ENDBRANCH  11  17
ENDBRANCH   1  15
BRANCH   8  26
ATOM     26  C   UNL     1      -0.209   8.907  22.276  0.00  0.00    +0.000 C 
ATOM     27  F   UNL     1      -0.975   8.168  21.425  0.00  0.00    +0.000 F 
ATOM     28  F   UNL     1       1.067   8.463  22.105  0.00  0.00    +0.000 F 
ENDBRANCH   8  26
BRANCH   6  29
ATOM     29  C   UNL     1      -1.851  13.416  23.869  0.00  0.00    +0.000 C 
BRANCH  29  30
ATOM     30  O   UNL     1      -0.991  14.486  24.240  0.00  0.00    +0.000 OA
ATOM     31  H   UNL     1      -0.276  14.518  23.582  0.00  0.00    +0.000 HD
ENDBRANCH  29  30
ENDBRANCH   6  29
TORSDOF 6
ENDMDL
