MODEL 1
REMARK VINA RESULT:      -8.7      0.000      0.000
REMARK  Name = 
REMARK  6 active torsions:
REMARK  status: ('A' for Active; 'I' for Inactive)
REMARK    1  A    between atoms: C_1  and  C_2
REMARK    2  A    between atoms: C_2  and  C_3
REMARK    3  A    between atoms: C_7  and  N_8
REMARK    4  A    between atoms: N_17  and  C_18
REMARK    5  A    between atoms: C_18  and  C_19
REMARK    6  A    between atoms: N_21  and  C_22
REMARK                            x       y       z     vdW  Elec       q    Type
REMARK                         _______ _______ _______ _____ _____    ______ ____
ROOT
ATOM      1  C   UNL     1       3.708   1.509  17.873  0.00  0.00    +0.000 C 
ATOM      2  C   UNL     1       3.648   2.738  18.777  0.00  0.00    +0.000 C 
ATOM      3  N   UNL     1       3.672   2.333  20.166  0.00  0.00    +0.000 N 
ATOM      4  C   UNL     1       2.717   2.987  20.922  0.00  0.00    +0.000 C 
ATOM      5  O   UNL     1       2.643   2.906  22.134  0.00  0.00    +0.000 OA
ATOM      6  N   UNL     1       1.935   3.708  20.077  0.00  0.00    +0.000 N 
ATOM      7  C   UNL     1       2.274   3.444  18.782  0.00  0.00    +0.000 C 
ATOM      8  O   UNL     1       1.613   3.779  17.806  0.00  0.00    +0.000 OA
ATOM      9  H   UNL     1       4.400   1.790  20.613  0.00  0.00    +0.000 HD
ENDROOT
BRANCH   2  10
ATOM     10  C   UNL     1       4.730   3.767  18.427  0.00  0.00    +0.000 A 
ATOM     11  C   UNL     1       5.305   4.617  19.385  0.00  0.00    +0.000 A 
ATOM     12  C   UNL     1       6.296   5.535  19.027  0.00  0.00    +0.000 A 
ATOM     13  C   UNL     1       6.750   5.611  17.710  0.00  0.00    +0.000 A 
ATOM     14  C   UNL     1       6.189   4.782  16.736  0.00  0.00    +0.000 A 
ATOM     15  C   UNL     1       5.158   3.896  17.090  0.00  0.00    +0.000 A 
BRANCH  14  16
ATOM     16  N   UNL     1       6.669   4.792  15.403  0.00  0.00    +0.000 N 
ATOM     17  C   UNL     1       6.226   4.089  14.312  0.00  0.00    +0.000 A 
ATOM     18  N   UNL     1       6.915   4.449  13.253  0.00  0.00    +0.000 NA
ATOM     19  N   UNL     1       7.806   5.391  13.693  0.00  0.00    +0.000 NA
ATOM     20  N   UNL     1       7.666   5.609  14.993  0.00  0.00    +0.000 NA
ENDBRANCH  14  16
ENDBRANCH   2  10
BRANCH   6  21
ATOM     21  C   UNL     1       0.958   4.683  20.502  0.00  0.00    +0.000 C 
BRANCH  21  22
ATOM     22  C   UNL     1       1.435   6.125  20.465  0.00  0.00    +0.000 C 
ATOM     23  O   UNL     1       2.524   6.391  19.965  0.00  0.00    +0.000 OA
ATOM     24  N   UNL     1       0.503   7.044  20.920  0.00  0.00    +0.000 N 
ATOM     25  H   UNL     1      -0.357   6.679  21.328  0.00  0.00    +0.000 HD
BRANCH  24  26
ATOM     26  C   UNL     1       0.681   8.442  20.970  0.00  0.00    +0.000 A 
ATOM     27  C   UNL     1       0.513   9.197  22.138  0.00  0.00    +0.000 A 
ATOM     28  C   UNL     1       0.617  10.586  22.111  0.00  0.00    +0.000 A 
ATOM     29  C   UNL     1       0.900  11.226  20.911  0.00  0.00    +0.000 A 
ATOM     30  F   UNL     1       0.958  12.562  20.876  0.00  0.00    +0.000 F 
ATOM     31  C   UNL     1       1.108  10.496  19.748  0.00  0.00    +0.000 A 
ATOM     32  C   UNL     1       1.018   9.100  19.780  0.00  0.00    +0.000 A 
ENDBRANCH  24  26
ENDBRANCH  21  22
ENDBRANCH   6  21
TORSDOF 5
ENDMDL
MODEL 2
REMARK VINA RESULT:      -8.5      4.839      9.855
REMARK  Name = 
REMARK  6 active torsions:
REMARK  status: ('A' for Active; 'I' for Inactive)
REMARK    1  A    between atoms: C_1  and  C_2
REMARK    2  A    between atoms: C_2  and  C_3
REMARK    3  A    between atoms: C_7  and  N_8
REMARK    4  A    between atoms: N_17  and  C_18
REMARK    5  A    between atoms: C_18  and  C_19
REMARK    6  A    between atoms: N_21  and  C_22
REMARK                            x       y       z     vdW  Elec       q    Type
REMARK                         _______ _______ _______ _____ _____    ______ ____
ROOT
ATOM      1  C   UNL     1      -0.533  13.638  20.223  0.00  0.00    +0.000 C 
ATOM      2  C   UNL     1      -0.662  12.133  20.440  0.00  0.00    +0.000 C 
ATOM      3  N   UNL     1      -1.150  11.865  21.776  0.00  0.00    +0.000 N 
ATOM      4  C   UNL     1      -0.431  10.869  22.411  0.00  0.00    +0.000 C 
ATOM      5  O   UNL     1      -0.746  10.387  23.483  0.00  0.00    +0.000 OA
ATOM      6  N   UNL     1       0.630  10.552  21.624  0.00  0.00    +0.000 N 
ATOM      7  C   UNL     1       0.693  11.399  20.556  0.00  0.00    +0.000 C 
ATOM      8  O   UNL     1       1.650  11.494  19.797  0.00  0.00    +0.000 OA
ATOM      9  H   UNL     1      -2.022  12.200  22.168  0.00  0.00    +0.000 HD
ENDROOT
BRANCH   2  10
ATOM     10  C   UNL     1      -1.496  11.459  19.344  0.00  0.00    +0.000 A 
ATOM     11  C   UNL     1      -0.971  10.476  18.490  0.00  0.00    +0.000 A 
ATOM     12  C   UNL     1      -1.768   9.879  17.509  0.00  0.00    +0.000 A 
ATOM     13  C   UNL     1      -3.110  10.235  17.372  0.00  0.00    +0.000 A 
ATOM     14  C   UNL     1      -3.654  11.217  18.203  0.00  0.00    +0.000 A 
ATOM     15  C   UNL     1      -2.837  11.849  19.155  0.00  0.00    +0.000 A 
BRANCH  14  16
ATOM     16  N   UNL     1      -5.027  11.558  18.130  0.00  0.00    +0.000 N 
ATOM     17  C   UNL     1      -5.718  12.182  17.123  0.00  0.00    +0.000 A 
ATOM     18  N   UNL     1      -6.991  12.242  17.442  0.00  0.00    +0.000 NA
ATOM     19  N   UNL     1      -7.095  11.649  18.671  0.00  0.00    +0.000 NA
ATOM     20  N   UNL     1      -5.912  11.229  19.099  0.00  0.00    +0.000 NA
ENDBRANCH  14  16
ENDBRANCH   2  10
BRANCH   6  21
ATOM     21  C   UNL     1       1.499   9.421  21.844  0.00  0.00    +0.000 C 
BRANCH  21  22
ATOM     22  C   UNL     1       1.042   8.127  21.192  0.00  0.00    +0.000 C 
ATOM     23  O   UNL     1      -0.158   7.883  21.104  0.00  0.00    +0.000 OA
ATOM     24  N   UNL     1       2.067   7.373  20.642  0.00  0.00    +0.000 N 
ATOM     25  H   UNL     1       3.022   7.687  20.808  0.00  0.00    +0.000 HD
BRANCH  24  26
ATOM     26  C   UNL     1       1.915   6.148  19.961  0.00  0.00    +0.000 A 
ATOM     27  C   UNL     1       1.420   4.987  20.569  0.00  0.00    +0.000 A 
ATOM     28  C   UNL     1       1.372   3.781  19.873  0.00  0.00    +0.000 A 
ATOM     29  C   UNL     1       1.814   3.735  18.556  0.00  0.00    +0.000 A 
ATOM     30  F   UNL     1       1.808   2.570  17.901  0.00  0.00    +0.000 F 
ATOM     31  C   UNL     1       2.274   4.882  17.921  0.00  0.00    +0.000 A 
ATOM     32  C   UNL     1       2.307   6.095  18.617  0.00  0.00    +0.000 A 
ENDBRANCH  24  26
ENDBRANCH  21  22
ENDBRANCH   6  21
TORSDOF 5
ENDMDL
MODEL 3
REMARK VINA RESULT:      -8.5      2.010      2.374
REMARK  Name = 
REMARK  6 active torsions:
REMARK  status: ('A' for Active; 'I' for Inactive)
REMARK    1  A    between atoms: C_1  and  C_2
REMARK    2  A    between atoms: C_2  and  C_3
REMARK    3  A    between atoms: C_7  and  N_8
REMARK    4  A    between atoms: N_17  and  C_18
REMARK    5  A    between atoms: C_18  and  C_19
REMARK    6  A    between atoms: N_21  and  C_22
REMARK                            x       y       z     vdW  Elec       q    Type
REMARK                         _______ _______ _______ _____ _____    ______ ____
ROOT
ATOM      1  C   UNL     1       2.225   4.004  17.138  0.00  0.00    +0.000 C 
ATOM      2  C   UNL     1       2.983   4.692  18.270  0.00  0.00    +0.000 C 
ATOM      3  N   UNL     1       2.685   4.046  19.530  0.00  0.00    +0.000 N 
ATOM      4  C   UNL     1       2.401   4.952  20.534  0.00  0.00    +0.000 C 
ATOM      5  O   UNL     1       2.254   4.644  21.701  0.00  0.00    +0.000 OA
ATOM      6  N   UNL     1       2.337   6.189  19.975  0.00  0.00    +0.000 N 
ATOM      7  C   UNL     1       2.447   6.099  18.618  0.00  0.00    +0.000 C 
ATOM      8  O   UNL     1       2.215   7.014  17.837  0.00  0.00    +0.000 OA
ATOM      9  H   UNL     1       2.842   3.069  19.747  0.00  0.00    +0.000 HD
ENDROOT
BRANCH   2  10
ATOM     10  C   UNL     1       4.486   4.794  17.982  0.00  0.00    +0.000 A 
ATOM     11  C   UNL     1       5.447   4.900  18.999  0.00  0.00    +0.000 A 
ATOM     12  C   UNL     1       6.809   4.981  18.695  0.00  0.00    +0.000 A 
ATOM     13  C   UNL     1       7.243   4.938  17.370  0.00  0.00    +0.000 A 
ATOM     14  C   UNL     1       6.306   4.842  16.337  0.00  0.00    +0.000 A 
ATOM     15  C   UNL     1       4.937   4.810  16.646  0.00  0.00    +0.000 A 
BRANCH  14  16
ATOM     16  N   UNL     1       6.717   4.735  14.986  0.00  0.00    +0.000 N 
ATOM     17  C   UNL     1       6.216   3.945  13.982  0.00  0.00    +0.000 A 
ATOM     18  N   UNL     1       6.850   4.210  12.863  0.00  0.00    +0.000 NA
ATOM     19  N   UNL     1       7.766   5.179  13.175  0.00  0.00    +0.000 NA
ATOM     20  N   UNL     1       7.693   5.508  14.457  0.00  0.00    +0.000 NA
ENDBRANCH  14  16
ENDBRANCH   2  10
BRANCH   6  21
ATOM     21  C   UNL     1       2.261   7.420  20.725  0.00  0.00    +0.000 C 
BRANCH  21  22
ATOM     22  C   UNL     1       0.939   8.159  20.610  0.00  0.00    +0.000 C 
ATOM     23  O   UNL     1       0.004   7.848  21.342  0.00  0.00    +0.000 OA
ATOM     24  N   UNL     1       0.959   9.227  19.727  0.00  0.00    +0.000 N 
ATOM     25  H   UNL     1       1.801   9.359  19.167  0.00  0.00    +0.000 HD
BRANCH  24  26
ATOM     26  C   UNL     1      -0.123  10.089  19.452  0.00  0.00    +0.000 A 
ATOM     27  C   UNL     1      -0.564  11.077  20.342  0.00  0.00    +0.000 A 
ATOM     28  C   UNL     1      -1.693  11.842  20.055  0.00  0.00    +0.000 A 
ATOM     29  C   UNL     1      -2.380  11.627  18.867  0.00  0.00    +0.000 A 
ATOM     30  F   UNL     1      -3.488  12.332  18.611  0.00  0.00    +0.000 F 
ATOM     31  C   UNL     1      -1.939  10.679  17.953  0.00  0.00    +0.000 A 
ATOM     32  C   UNL     1      -0.798   9.921  18.235  0.00  0.00    +0.000 A 
ENDBRANCH  24  26
ENDBRANCH  21  22
ENDBRANCH   6  21
TORSDOF 5
ENDMDL
MODEL 4
REMARK VINA RESULT:      -8.5      2.808      6.986
REMARK  Name = 
REMARK  6 active torsions:
REMARK  status: ('A' for Active; 'I' for Inactive)
REMARK    1  A    between atoms: C_1  and  C_2
REMARK    2  A    between atoms: C_2  and  C_3
REMARK    3  A    between atoms: C_7  and  N_8
REMARK    4  A    between atoms: N_17  and  C_18
REMARK    5  A    between atoms: C_18  and  C_19
REMARK    6  A    between atoms: N_21  and  C_22
REMARK                            x       y       z     vdW  Elec       q    Type
REMARK                         _______ _______ _______ _____ _____    ______ ____
ROOT
ATOM      1  C   UNL     1       1.356   3.363  21.435  0.00  0.00    +0.000 C 
ATOM      2  C   UNL     1       1.935   3.705  20.065  0.00  0.00    +0.000 C 
ATOM      3  N   UNL     1       1.220   2.986  19.032  0.00  0.00    +0.000 N 
ATOM      4  C   UNL     1       2.071   2.395  18.116  0.00  0.00    +0.000 C 
ATOM      5  O   UNL     1       1.692   1.856  17.093  0.00  0.00    +0.000 OA
ATOM      6  N   UNL     1       3.343   2.548  18.567  0.00  0.00    +0.000 N 
ATOM      7  C   UNL     1       3.337   3.109  19.811  0.00  0.00    +0.000 C 
ATOM      8  O   UNL     1       4.311   3.173  20.552  0.00  0.00    +0.000 OA
ATOM      9  H   UNL     1       0.225   3.041  18.850  0.00  0.00    +0.000 HD
ENDROOT
BRANCH   2  10
ATOM     10  C   UNL     1       1.990   5.218  19.822  0.00  0.00    +0.000 A 
ATOM     11  C   UNL     1       2.525   5.778  18.651  0.00  0.00    +0.000 A 
ATOM     12  C   UNL     1       2.548   7.163  18.463  0.00  0.00    +0.000 A 
ATOM     13  C   UNL     1       2.020   8.018  19.431  0.00  0.00    +0.000 A 
ATOM     14  C   UNL     1       1.490   7.487  20.610  0.00  0.00    +0.000 A 
ATOM     15  C   UNL     1       1.514   6.098  20.815  0.00  0.00    +0.000 A 
BRANCH  14  16
ATOM     16  N   UNL     1       0.892   8.323  21.584  0.00  0.00    +0.000 N 
ATOM     17  C   UNL     1       1.476   9.234  22.428  0.00  0.00    +0.000 A 
ATOM     18  N   UNL     1       0.543   9.841  23.125  0.00  0.00    +0.000 NA
ATOM     19  N   UNL     1      -0.643   9.296  22.712  0.00  0.00    +0.000 NA
ATOM     20  N   UNL     1      -0.445   8.378  21.777  0.00  0.00    +0.000 NA
ENDBRANCH  14  16
ENDBRANCH   2  10
BRANCH   6  21
ATOM     21  C   UNL     1       4.524   2.245  17.794  0.00  0.00    +0.000 C 
BRANCH  21  22
ATOM     22  C   UNL     1       5.304   3.459  17.318  0.00  0.00    +0.000 C 
ATOM     23  O   UNL     1       5.360   3.712  16.118  0.00  0.00    +0.000 OA
ATOM     24  N   UNL     1       5.804   4.251  18.339  0.00  0.00    +0.000 N 
ATOM     25  H   UNL     1       5.701   3.908  19.294  0.00  0.00    +0.000 HD
BRANCH  24  26
ATOM     26  C   UNL     1       6.541   5.442  18.173  0.00  0.00    +0.000 A 
ATOM     27  C   UNL     1       7.703   5.734  18.898  0.00  0.00    +0.000 A 
ATOM     28  C   UNL     1       8.342   6.964  18.756  0.00  0.00    +0.000 A 
ATOM     29  C   UNL     1       7.823   7.906  17.877  0.00  0.00    +0.000 A 
ATOM     30  F   UNL     1       8.412   9.102  17.771  0.00  0.00    +0.000 F 
ATOM     31  C   UNL     1       6.693   7.624  17.120  0.00  0.00    +0.000 A 
ATOM     32  C   UNL     1       6.061   6.383  17.252  0.00  0.00    +0.000 A 
ENDBRANCH  24  26
ENDBRANCH  21  22
ENDBRANCH   6  21
TORSDOF 5
ENDMDL
MODEL 5
REMARK VINA RESULT:      -8.5      1.264      1.667
REMARK  Name = 
REMARK  6 active torsions:
REMARK  status: ('A' for Active; 'I' for Inactive)
REMARK    1  A    between atoms: C_1  and  C_2
REMARK    2  A    between atoms: C_2  and  C_3
REMARK    3  A    between atoms: C_7  and  N_8
REMARK    4  A    between atoms: N_17  and  C_18
REMARK    5  A    between atoms: C_18  and  C_19
REMARK    6  A    between atoms: N_21  and  C_22
REMARK                            x       y       z     vdW  Elec       q    Type
REMARK                         _______ _______ _______ _____ _____    ______ ____
ROOT
ATOM      1  C   UNL     1       3.427   2.126  16.835  0.00  0.00    +0.000 C 
ATOM      2  C   UNL     1       3.938   2.960  18.007  0.00  0.00    +0.000 C 
ATOM      3  N   UNL     1       4.347   2.093  19.091  0.00  0.00    +0.000 N 
ATOM      4  C   UNL     1       3.867   2.517  20.316  0.00  0.00    +0.000 C 
ATOM      5  O   UNL     1       4.194   2.022  21.378  0.00  0.00    +0.000 OA
ATOM      6  N   UNL     1       3.014   3.552  20.096  0.00  0.00    +0.000 N 
ATOM      7  C   UNL     1       2.828   3.732  18.756  0.00  0.00    +0.000 C 
ATOM      8  O   UNL     1       1.961   4.442  18.261  0.00  0.00    +0.000 OA
ATOM      9  H   UNL     1       5.052   1.368  19.038  0.00  0.00    +0.000 HD
ENDROOT
BRANCH   2  10
ATOM     10  C   UNL     1       5.027   3.951  17.581  0.00  0.00    +0.000 A 
ATOM     11  C   UNL     1       5.638   4.839  18.480  0.00  0.00    +0.000 A 
ATOM     12  C   UNL     1       6.634   5.721  18.053  0.00  0.00    +0.000 A 
ATOM     13  C   UNL     1       7.058   5.722  16.724  0.00  0.00    +0.000 A 
ATOM     14  C   UNL     1       6.460   4.855  15.806  0.00  0.00    +0.000 A 
ATOM     15  C   UNL     1       5.425   4.006  16.229  0.00  0.00    +0.000 A 
BRANCH  14  16
ATOM     16  N   UNL     1       6.908   4.789  14.464  0.00  0.00    +0.000 N 
ATOM     17  C   UNL     1       6.461   4.002  13.433  0.00  0.00    +0.000 A 
ATOM     18  N   UNL     1       7.113   4.311  12.336  0.00  0.00    +0.000 NA
ATOM     19  N   UNL     1       7.985   5.305  12.689  0.00  0.00    +0.000 NA
ATOM     20  N   UNL     1       7.869   5.606  13.975  0.00  0.00    +0.000 NA
ENDBRANCH  14  16
ENDBRANCH   2  10
BRANCH   6  21
ATOM     21  C   UNL     1       2.468   4.393  21.134  0.00  0.00    +0.000 C 
BRANCH  21  22
ATOM     22  C   UNL     1       1.646   5.571  20.636  0.00  0.00    +0.000 C 
ATOM     23  O   UNL     1       0.420   5.502  20.647  0.00  0.00    +0.000 OA
ATOM     24  N   UNL     1       2.395   6.690  20.310  0.00  0.00    +0.000 N 
ATOM     25  H   UNL     1       3.410   6.598  20.328  0.00  0.00    +0.000 HD
BRANCH  24  26
ATOM     26  C   UNL     1       1.881   7.919  19.847  0.00  0.00    +0.000 A 
ATOM     27  C   UNL     1       2.021   8.361  18.525  0.00  0.00    +0.000 A 
ATOM     28  C   UNL     1       1.569   9.623  18.145  0.00  0.00    +0.000 A 
ATOM     29  C   UNL     1       0.965  10.446  19.087  0.00  0.00    +0.000 A 
ATOM     30  F   UNL     1       0.569  11.673  18.732  0.00  0.00    +0.000 F 
ATOM     31  C   UNL     1       0.781  10.013  20.394  0.00  0.00    +0.000 A 
ATOM     32  C   UNL     1       1.222   8.741  20.772  0.00  0.00    +0.000 A 
ENDBRANCH  24  26
ENDBRANCH  21  22
ENDBRANCH   6  21
TORSDOF 5
ENDMDL
MODEL 6
REMARK VINA RESULT:      -8.4      3.264      8.311
REMARK  Name = 
REMARK  6 active torsions:
REMARK  status: ('A' for Active; 'I' for Inactive)
REMARK    1  A    between atoms: C_1  and  C_2
REMARK    2  A    between atoms: C_2  and  C_3
REMARK    3  A    between atoms: C_7  and  N_8
REMARK    4  A    between atoms: N_17  and  C_18
REMARK    5  A    between atoms: C_18  and  C_19
REMARK    6  A    between atoms: N_21  and  C_22
REMARK                            x       y       z     vdW  Elec       q    Type
REMARK                         _______ _______ _______ _____ _____    ______ ____
ROOT
ATOM      1  C   UNL     1       1.110   3.803  20.818  0.00  0.00    +0.000 C 
ATOM      2  C   UNL     1       1.931   4.308  19.635  0.00  0.00    +0.000 C 
ATOM      3  N   UNL     1       1.487   3.667  18.415  0.00  0.00    +0.000 N 
ATOM      4  C   UNL     1       2.541   3.210  17.646  0.00  0.00    +0.000 C 
ATOM      5  O   UNL     1       2.412   2.763  16.522  0.00  0.00    +0.000 OA
ATOM      6  N   UNL     1       3.683   3.372  18.363  0.00  0.00    +0.000 N 
ATOM      7  C   UNL     1       3.391   3.803  19.624  0.00  0.00    +0.000 C 
ATOM      8  O   UNL     1       4.189   3.833  20.553  0.00  0.00    +0.000 OA
ATOM      9  H   UNL     1       0.548   3.697  18.037  0.00  0.00    +0.000 HD
ENDROOT
BRANCH   2  10
ATOM     10  C   UNL     1       1.938   5.839  19.547  0.00  0.00    +0.000 A 
ATOM     11  C   UNL     1       2.419   6.531  18.424  0.00  0.00    +0.000 A 
ATOM     12  C   UNL     1       2.399   7.928  18.379  0.00  0.00    +0.000 A 
ATOM     13  C   UNL     1       1.879   8.664  19.444  0.00  0.00    +0.000 A 
ATOM     14  C   UNL     1       1.403   8.000  20.578  0.00  0.00    +0.000 A 
ATOM     15  C   UNL     1       1.471   6.598  20.639  0.00  0.00    +0.000 A 
BRANCH  14  16
ATOM     16  N   UNL     1       0.815   8.714  21.650  0.00  0.00    +0.000 N 
ATOM     17  C   UNL     1      -0.510   8.920  21.939  0.00  0.00    +0.000 A 
ATOM     18  N   UNL     1      -0.612   9.584  23.067  0.00  0.00    +0.000 NA
ATOM     19  N   UNL     1       0.673   9.800  23.488  0.00  0.00    +0.000 NA
ATOM     20  N   UNL     1       1.546   9.276  22.640  0.00  0.00    +0.000 NA
ENDBRANCH  14  16
ENDBRANCH   2  10
BRANCH   6  21
ATOM     21  C   UNL     1       5.013   3.202  17.827  0.00  0.00    +0.000 C 
BRANCH  21  22
ATOM     22  C   UNL     1       5.319   4.039  16.597  0.00  0.00    +0.000 C 
ATOM     23  O   UNL     1       5.149   5.255  16.633  0.00  0.00    +0.000 OA
ATOM     24  N   UNL     1       5.887   3.329  15.551  0.00  0.00    +0.000 N 
ATOM     25  H   UNL     1       5.952   2.316  15.651  0.00  0.00    +0.000 HD
BRANCH  24  26
ATOM     26  C   UNL     1       6.286   3.867  14.310  0.00  0.00    +0.000 A 
ATOM     27  C   UNL     1       5.794   3.410  13.081  0.00  0.00    +0.000 A 
ATOM     28  C   UNL     1       6.289   3.919  11.882  0.00  0.00    +0.000 A 
ATOM     29  C   UNL     1       7.274   4.897  11.910  0.00  0.00    +0.000 A 
ATOM     30  F   UNL     1       7.780   5.356  10.759  0.00  0.00    +0.000 F 
ATOM     31  C   UNL     1       7.750   5.392  13.118  0.00  0.00    +0.000 A 
ATOM     32  C   UNL     1       7.243   4.891  14.321  0.00  0.00    +0.000 A 
ENDBRANCH  24  26
ENDBRANCH  21  22
ENDBRANCH   6  21
TORSDOF 5
ENDMDL
MODEL 7
REMARK VINA RESULT:      -8.0      0.900      1.136
REMARK  Name = 
REMARK  6 active torsions:
REMARK  status: ('A' for Active; 'I' for Inactive)
REMARK    1  A    between atoms: C_1  and  C_2
REMARK    2  A    between atoms: C_2  and  C_3
REMARK    3  A    between atoms: C_7  and  N_8
REMARK    4  A    between atoms: N_17  and  C_18
REMARK    5  A    between atoms: C_18  and  C_19
REMARK    6  A    between atoms: N_21  and  C_22
REMARK                            x       y       z     vdW  Elec       q    Type
REMARK                         _______ _______ _______ _____ _____    ______ ____
ROOT
ATOM      1  C   UNL     1       2.789   1.957  17.436  0.00  0.00    +0.000 C 
ATOM      2  C   UNL     1       3.198   2.995  18.478  0.00  0.00    +0.000 C 
ATOM      3  N   UNL     1       3.304   2.373  19.781  0.00  0.00    +0.000 N 
ATOM      4  C   UNL     1       2.684   3.112  20.771  0.00  0.00    +0.000 C 
ATOM      5  O   UNL     1       2.762   2.853  21.956  0.00  0.00    +0.000 OA
ATOM      6  N   UNL     1       2.020   4.137  20.174  0.00  0.00    +0.000 N 
ATOM      7  C   UNL     1       2.086   4.014  18.816  0.00  0.00    +0.000 C 
ATOM      8  O   UNL     1       1.412   4.661  18.024  0.00  0.00    +0.000 OA
ATOM      9  H   UNL     1       3.910   1.598  20.020  0.00  0.00    +0.000 HD
ENDROOT
BRANCH   2  10
ATOM     10  C   UNL     1       4.461   3.761  18.067  0.00  0.00    +0.000 A 
ATOM     11  C   UNL     1       5.287   4.414  18.996  0.00  0.00    +0.000 A 
ATOM     12  C   UNL     1       6.435   5.093  18.582  0.00  0.00    +0.000 A 
ATOM     13  C   UNL     1       6.796   5.120  17.234  0.00  0.00    +0.000 A 
ATOM     14  C   UNL     1       5.987   4.486  16.288  0.00  0.00    +0.000 A 
ATOM     15  C   UNL     1       4.807   3.847  16.704  0.00  0.00    +0.000 A 
BRANCH  14  16
ATOM     16  N   UNL     1       6.356   4.443  14.922  0.00  0.00    +0.000 N 
ATOM     17  C   UNL     1       7.331   5.145  14.259  0.00  0.00    +0.000 A 
ATOM     18  N   UNL     1       7.378   4.748  13.008  0.00  0.00    +0.000 NA
ATOM     19  N   UNL     1       6.412   3.786  12.886  0.00  0.00    +0.000 NA
ATOM     20  N   UNL     1       5.787   3.590  14.039  0.00  0.00    +0.000 NA
ENDBRANCH  14  16
ENDBRANCH   2  10
BRANCH   6  21
ATOM     21  C   UNL     1       1.419   5.241  20.883  0.00  0.00    +0.000 C 
BRANCH  21  22
ATOM     22  C   UNL     1       1.866   6.618  20.419  0.00  0.00    +0.000 C 
ATOM     23  O   UNL     1       2.942   6.743  19.840  0.00  0.00    +0.000 OA
ATOM     24  N   UNL     1       0.924   7.616  20.608  0.00  0.00    +0.000 N 
ATOM     25  H   UNL     1       0.078   7.373  21.123  0.00  0.00    +0.000 HD
BRANCH  24  26
ATOM     26  C   UNL     1       1.075   8.971  20.247  0.00  0.00    +0.000 A 
ATOM     27  C   UNL     1       0.936  10.028  21.155  0.00  0.00    +0.000 A 
ATOM     28  C   UNL     1       1.011  11.352  20.726  0.00  0.00    +0.000 A 
ATOM     29  C   UNL     1       1.234  11.622  19.382  0.00  0.00    +0.000 A 
ATOM     30  F   UNL     1       1.263  12.891  18.962  0.00  0.00    +0.000 F 
ATOM     31  C   UNL     1       1.412  10.589  18.469  0.00  0.00    +0.000 A 
ATOM     32  C   UNL     1       1.352   9.261  18.904  0.00  0.00    +0.000 A 
ENDBRANCH  24  26
ENDBRANCH  21  22
ENDBRANCH   6  21
TORSDOF 5
ENDMDL
MODEL 8
REMARK VINA RESULT:      -7.9      3.370      8.192
REMARK  Name = 
REMARK  6 active torsions:
REMARK  status: ('A' for Active; 'I' for Inactive)
REMARK    1  A    between atoms: C_1  and  C_2
REMARK    2  A    between atoms: C_2  and  C_3
REMARK    3  A    between atoms: C_7  and  N_8
REMARK    4  A    between atoms: N_17  and  C_18
REMARK    5  A    between atoms: C_18  and  C_19
REMARK    6  A    between atoms: N_21  and  C_22
REMARK                            x       y       z     vdW  Elec       q    Type
REMARK                         _______ _______ _______ _____ _____    ______ ____
ROOT
ATOM      1  C   UNL     1       2.038   4.512  21.297  0.00  0.00    +0.000 C 
ATOM      2  C   UNL     1       2.487   4.666  19.846  0.00  0.00    +0.000 C 
ATOM      3  N   UNL     1       1.789   3.714  19.008  0.00  0.00    +0.000 N 
ATOM      4  C   UNL     1       2.637   3.057  18.136  0.00  0.00    +0.000 C 
ATOM      5  O   UNL     1       2.254   2.315  17.251  0.00  0.00    +0.000 OA
ATOM      6  N   UNL     1       3.912   3.405  18.450  0.00  0.00    +0.000 N 
ATOM      7  C   UNL     1       3.926   4.171  19.580  0.00  0.00    +0.000 C 
ATOM      8  O   UNL     1       4.933   4.454  20.218  0.00  0.00    +0.000 OA
ATOM      9  H   UNL     1       0.784   3.642  18.902  0.00  0.00    +0.000 HD
ENDROOT
BRANCH   2  10
ATOM     10  C   UNL     1       2.363   6.112  19.352  0.00  0.00    +0.000 A 
ATOM     11  C   UNL     1       2.770   6.512  18.069  0.00  0.00    +0.000 A 
ATOM     12  C   UNL     1       2.631   7.839  17.653  0.00  0.00    +0.000 A 
ATOM     13  C   UNL     1       2.065   8.792  18.500  0.00  0.00    +0.000 A 
ATOM     14  C   UNL     1       1.660   8.422  19.786  0.00  0.00    +0.000 A 
ATOM     15  C   UNL     1       1.847   7.098  20.216  0.00  0.00    +0.000 A 
BRANCH  14  16
ATOM     16  N   UNL     1       1.027   9.350  20.648  0.00  0.00    +0.000 N 
ATOM     17  C   UNL     1       0.931   9.345  22.016  0.00  0.00    +0.000 A 
ATOM     18  N   UNL     1       0.313  10.434  22.413  0.00  0.00    +0.000 NA
ATOM     19  N   UNL     1       0.013  11.128  21.273  0.00  0.00    +0.000 NA
ATOM     20  N   UNL     1       0.442  10.484  20.196  0.00  0.00    +0.000 NA
ENDBRANCH  14  16
ENDBRANCH   2  10
BRANCH   6  21
ATOM     21  C   UNL     1       5.066   3.088  17.644  0.00  0.00    +0.000 C 
BRANCH  21  22
ATOM     22  C   UNL     1       5.189   3.889  16.359  0.00  0.00    +0.000 C 
ATOM     23  O   UNL     1       4.578   4.948  16.244  0.00  0.00    +0.000 OA
ATOM     24  N   UNL     1       6.103   3.377  15.453  0.00  0.00    +0.000 N 
ATOM     25  H   UNL     1       6.526   2.475  15.671  0.00  0.00    +0.000 HD
BRANCH  24  26
ATOM     26  C   UNL     1       6.425   3.937  14.199  0.00  0.00    +0.000 A 
ATOM     27  C   UNL     1       5.855   3.503  12.995  0.00  0.00    +0.000 A 
ATOM     28  C   UNL     1       6.274   4.034  11.777  0.00  0.00    +0.000 A 
ATOM     29  C   UNL     1       7.261   5.011  11.760  0.00  0.00    +0.000 A 
ATOM     30  F   UNL     1       7.693   5.490  10.589  0.00  0.00    +0.000 F 
ATOM     31  C   UNL     1       7.813   5.483  12.944  0.00  0.00    +0.000 A 
ATOM     32  C   UNL     1       7.382   4.960  14.168  0.00  0.00    +0.000 A 
ENDBRANCH  24  26
ENDBRANCH  21  22
ENDBRANCH   6  21
TORSDOF 5
ENDMDL
MODEL 9
REMARK VINA RESULT:      -7.9      3.414      8.255
REMARK  Name = 
REMARK  6 active torsions:
REMARK  status: ('A' for Active; 'I' for Inactive)
REMARK    1  A    between atoms: C_1  and  C_2
REMARK    2  A    between atoms: C_2  and  C_3
REMARK    3  A    between atoms: C_7  and  N_8
REMARK    4  A    between atoms: N_17  and  C_18
REMARK    5  A    between atoms: C_18  and  C_19
REMARK    6  A    between atoms: N_21  and  C_22
REMARK                            x       y       z     vdW  Elec       q    Type
REMARK                         _______ _______ _______ _____ _____    ______ ____
ROOT
ATOM      1  C   UNL     1       1.360   4.910  20.861  0.00  0.00    +0.000 C 
ATOM      2  C   UNL     1       2.113   5.110  19.549  0.00  0.00    +0.000 C 
ATOM      3  N   UNL     1       1.582   4.227  18.533  0.00  0.00    +0.000 N 
ATOM      4  C   UNL     1       2.576   3.575  17.828  0.00  0.00    +0.000 C 
ATOM      5  O   UNL     1       2.368   2.891  16.844  0.00  0.00    +0.000 OA
ATOM      6  N   UNL     1       3.764   3.856  18.424  0.00  0.00    +0.000 N 
ATOM      7  C   UNL     1       3.560   4.568  19.569  0.00  0.00    +0.000 C 
ATOM      8  O   UNL     1       4.415   4.780  20.421  0.00  0.00    +0.000 OA
ATOM      9  H   UNL     1       0.622   4.202  18.212  0.00  0.00    +0.000 HD
ENDROOT
BRANCH   2  10
ATOM     10  C   UNL     1       2.144   6.581  19.117  0.00  0.00    +0.000 A 
ATOM     11  C   UNL     1       2.708   7.003  17.903  0.00  0.00    +0.000 A 
ATOM     12  C   UNL     1       2.707   8.353  17.542  0.00  0.00    +0.000 A 
ATOM     13  C   UNL     1       2.125   9.309  18.374  0.00  0.00    +0.000 A 
ATOM     14  C   UNL     1       1.565   8.918  19.593  0.00  0.00    +0.000 A 
ATOM     15  C   UNL     1       1.612   7.567  19.974  0.00  0.00    +0.000 A 
BRANCH  14  16
ATOM     16  N   UNL     1       0.913   9.854  20.432  0.00  0.00    +0.000 N 
ATOM     17  C   UNL     1      -0.093  10.738  20.137  0.00  0.00    +0.000 A 
ATOM     18  N   UNL     1      -0.448  11.374  21.230  0.00  0.00    +0.000 NA
ATOM     19  N   UNL     1       0.354  10.881  22.224  0.00  0.00    +0.000 NA
ATOM     20  N   UNL     1       1.181   9.958  21.754  0.00  0.00    +0.000 NA
ENDBRANCH  14  16
ENDBRANCH   2  10
BRANCH   6  21
ATOM     21  C   UNL     1       5.054   3.527  17.865  0.00  0.00    +0.000 C 
BRANCH  21  22
ATOM     22  C   UNL     1       5.410   4.276  16.592  0.00  0.00    +0.000 C 
ATOM     23  O   UNL     1       5.208   5.485  16.523  0.00  0.00    +0.000 OA
ATOM     24  N   UNL     1       6.055   3.504  15.638  0.00  0.00    +0.000 N 
ATOM     25  H   UNL     1       6.139   2.504  15.821  0.00  0.00    +0.000 HD
BRANCH  24  26
ATOM     26  C   UNL     1       6.512   3.956  14.383  0.00  0.00    +0.000 A 
ATOM     27  C   UNL     1       7.405   5.024  14.231  0.00  0.00    +0.000 A 
ATOM     28  C   UNL     1       7.756   5.484  12.963  0.00  0.00    +0.000 A 
ATOM     29  C   UNL     1       7.218   4.869  11.840  0.00  0.00    +0.000 A 
ATOM     30  F   UNL     1       7.520   5.338  10.624  0.00  0.00    +0.000 F 
ATOM     31  C   UNL     1       6.359   3.785  11.967  0.00  0.00    +0.000 A 
ATOM     32  C   UNL     1       6.019   3.314  13.239  0.00  0.00    +0.000 A 
ENDBRANCH  24  26
ENDBRANCH  21  22
ENDBRANCH   6  21
TORSDOF 5
ENDMDL
