MODEL 1
REMARK VINA RESULT:      -9.5      0.000      0.000
REMARK  Name = 
REMARK  7 active torsions:
REMARK  status: ('A' for Active; 'I' for Inactive)
REMARK    1  A    between atoms: C_2  and  C_12
REMARK    2  A    between atoms: N_3  and  C_4
REMARK    3  A    between atoms: C_4  and  C_5
REMARK    4  A    between atoms: C_5  and  C_6
REMARK    5  A    between atoms: C_16  and  C_18
REMARK    6  A    between atoms: N_20  and  C_21
REMARK    7  A    between atoms: C_21  and  C_22
REMARK                            x       y       z     vdW  Elec       q    Type
REMARK                         _______ _______ _______ _____ _____    ______ ____
ROOT
ATOM      1  C   UNL     1       0.831  11.334  19.048  0.00  0.00    +0.000 C 
ATOM      2  C   UNL     1       1.495  10.382  18.064  0.00  0.00    +0.000 C 
ATOM      3  C   UNL     1       1.245   8.917  18.369  0.00  0.00    +0.000 C 
ATOM      4  N   UNL     1       1.447   8.575  19.770  0.00  0.00    +0.000 N 
ATOM      5  C   UNL     1       1.949   7.336  20.184  0.00  0.00    +0.000 C 
ATOM      6  O   UNL     1       2.045   7.007  21.367  0.00  0.00    +0.000 OA
ATOM      7  C   UNL     1       0.711   9.407  20.721  0.00  0.00    +0.000 C 
ATOM      8  C   UNL     1       1.029  10.881  20.497  0.00  0.00    +0.000 C 
ENDROOT
BRANCH   5   9
ATOM      9  C   UNL     1       2.432   6.356  19.100  0.00  0.00    +0.000 A 
ATOM     10  N   UNL     1       3.262   6.830  18.218  0.00  0.00    +0.000 NA
ATOM     11  N   UNL     1       3.876   5.983  17.319  0.00  0.00    +0.000 N 
ATOM     12  C   UNL     1       3.545   4.648  17.184  0.00  0.00    +0.000 A 
ATOM     13  O   UNL     1       4.024   3.899  16.328  0.00  0.00    +0.000 OA
ATOM     14  C   UNL     1       2.559   4.109  18.142  0.00  0.00    +0.000 A 
ATOM     15  C   UNL     1       2.216   2.752  18.096  0.00  0.00    +0.000 A 
ATOM     16  C   UNL     1       1.315   2.225  19.022  0.00  0.00    +0.000 A 
ATOM     17  C   UNL     1       0.742   3.057  19.980  0.00  0.00    +0.000 A 
ATOM     18  C   UNL     1       1.083   4.412  20.027  0.00  0.00    +0.000 A 
ATOM     19  C   UNL     1       2.002   4.942  19.113  0.00  0.00    +0.000 A 
BRANCH  11  20
ATOM     20  C   UNL     1       5.001   6.549  16.558  0.00  0.00    +0.000 C 
BRANCH  20  21
ATOM     21  C   UNL     1       6.274   6.631  17.386  0.00  0.00    +0.000 A 
ATOM     22  C   UNL     1       6.573   5.628  18.320  0.00  0.00    +0.000 A 
ATOM     23  C   UNL     1       7.641   5.774  19.209  0.00  0.00    +0.000 A 
ATOM     24  C   UNL     1       8.438   6.916  19.163  0.00  0.00    +0.000 A 
ATOM     25  C   UNL     1       8.197   7.888  18.195  0.00  0.00    +0.000 A 
ATOM     26  C   UNL     1       7.130   7.740  17.304  0.00  0.00    +0.000 A 
ENDBRANCH  20  21
ENDBRANCH  11  20
ENDBRANCH   5   9
BRANCH   1  28
ATOM     27  O   UNL     1      -1.431  12.108  19.470  0.00  0.00    +0.000 OA
ATOM     28  C   UNL     1      -0.638  11.565  18.710  0.00  0.00    +0.000 C 
ATOM     29  N   UNL     1      -0.988  11.101  17.461  0.00  0.00    +0.000 N 
ATOM     30  H   UNL     1      -0.358  10.467  16.986  0.00  0.00    +0.000 HD
BRANCH  29  31
ATOM     31  C   UNL     1      -2.340  11.247  16.939  0.00  0.00    +0.000 C 
BRANCH  31  32
ATOM     32  C   UNL     1      -3.291  10.252  17.597  0.00  0.00    +0.000 C 
BRANCH  32  33
ATOM     33  C   UNL     1      -4.662  10.827  17.816  0.00  0.00    +0.000 A 
ATOM     34  C   UNL     1      -5.082  11.951  17.108  0.00  0.00    +0.000 A 
ATOM     35  C   UNL     1      -6.367  12.438  17.325  0.00  0.00    +0.000 A 
ATOM     36  C   UNL     1      -7.192  11.798  18.242  0.00  0.00    +0.000 A 
ATOM     37  C   UNL     1      -6.693  10.693  18.909  0.00  0.00    +0.000 A 
ATOM     38  N   UNL     1      -5.451  10.196  18.717  0.00  0.00    +0.000 NA
ENDBRANCH  32  33
ENDBRANCH  31  32
ENDBRANCH  29  31
ENDBRANCH   1  28
TORSDOF 7
ENDMDL
MODEL 2
REMARK VINA RESULT:      -9.1      0.584      1.120
REMARK  Name = 
REMARK  7 active torsions:
REMARK  status: ('A' for Active; 'I' for Inactive)
REMARK    1  A    between atoms: C_2  and  C_12
REMARK    2  A    between atoms: N_3  and  C_4
REMARK    3  A    between atoms: C_4  and  C_5
REMARK    4  A    between atoms: C_5  and  C_6
REMARK    5  A    between atoms: C_16  and  C_18
REMARK    6  A    between atoms: N_20  and  C_21
REMARK    7  A    between atoms: C_21  and  C_22
REMARK                            x       y       z     vdW  Elec       q    Type
REMARK                         _______ _______ _______ _____ _____    ______ ____
ROOT
ATOM      1  C   UNL     1       0.717  11.207  18.942  0.00  0.00    +0.000 C 
ATOM      2  C   UNL     1       1.368  10.227  17.978  0.00  0.00    +0.000 C 
ATOM      3  C   UNL     1       1.151   8.771  18.346  0.00  0.00    +0.000 C 
ATOM      4  N   UNL     1       1.399   8.489  19.754  0.00  0.00    +0.000 N 
ATOM      5  C   UNL     1       1.932   7.275  20.201  0.00  0.00    +0.000 C 
ATOM      6  O   UNL     1       2.067   6.994  21.393  0.00  0.00    +0.000 OA
ATOM      7  C   UNL     1       0.676   9.346  20.693  0.00  0.00    +0.000 C 
ATOM      8  C   UNL     1       0.963  10.814  20.401  0.00  0.00    +0.000 C 
ENDROOT
BRANCH   5   9
ATOM      9  C   UNL     1       2.401   6.260  19.142  0.00  0.00    +0.000 A 
ATOM     10  N   UNL     1       3.230   6.701  18.244  0.00  0.00    +0.000 NA
ATOM     11  N   UNL     1       3.831   5.824  17.366  0.00  0.00    +0.000 N 
ATOM     12  C   UNL     1       3.487   4.488  17.270  0.00  0.00    +0.000 A 
ATOM     13  O   UNL     1       3.955   3.711  16.433  0.00  0.00    +0.000 OA
ATOM     14  C   UNL     1       2.501   3.985  18.247  0.00  0.00    +0.000 A 
ATOM     15  C   UNL     1       2.145   2.631  18.241  0.00  0.00    +0.000 A 
ATOM     16  C   UNL     1       1.243   2.139  19.186  0.00  0.00    +0.000 A 
ATOM     17  C   UNL     1       0.683   3.003  20.123  0.00  0.00    +0.000 A 
ATOM     18  C   UNL     1       1.038   4.355  20.130  0.00  0.00    +0.000 A 
ATOM     19  C   UNL     1       1.956   4.851  19.197  0.00  0.00    +0.000 A 
BRANCH  11  20
ATOM     20  C   UNL     1       4.959   6.357  16.584  0.00  0.00    +0.000 C 
BRANCH  20  21
ATOM     21  C   UNL     1       6.154   6.704  17.459  0.00  0.00    +0.000 A 
ATOM     22  C   UNL     1       6.858   7.899  17.250  0.00  0.00    +0.000 A 
ATOM     23  C   UNL     1       8.056   8.149  17.922  0.00  0.00    +0.000 A 
ATOM     24  C   UNL     1       8.558   7.218  18.829  0.00  0.00    +0.000 A 
ATOM     25  C   UNL     1       7.834   6.059  19.100  0.00  0.00    +0.000 A 
ATOM     26  C   UNL     1       6.633   5.810  18.428  0.00  0.00    +0.000 A 
ENDBRANCH  20  21
ENDBRANCH  11  20
ENDBRANCH   5   9
BRANCH   1  28
ATOM     27  O   UNL     1      -1.566  11.868  19.440  0.00  0.00    +0.000 OA
ATOM     28  C   UNL     1      -0.765  11.402  18.638  0.00  0.00    +0.000 C 
ATOM     29  N   UNL     1      -1.117  11.000  17.368  0.00  0.00    +0.000 N 
ATOM     30  H   UNL     1      -0.470  10.420  16.848  0.00  0.00    +0.000 HD
BRANCH  29  31
ATOM     31  C   UNL     1      -2.481  11.126  16.874  0.00  0.00    +0.000 C 
BRANCH  31  32
ATOM     32  C   UNL     1      -3.404  10.122  17.556  0.00  0.00    +0.000 C 
BRANCH  32  33
ATOM     33  C   UNL     1      -4.645  10.766  18.107  0.00  0.00    +0.000 A 
ATOM     34  C   UNL     1      -5.799  10.016  18.323  0.00  0.00    +0.000 A 
ATOM     35  C   UNL     1      -6.919  10.648  18.855  0.00  0.00    +0.000 A 
ATOM     36  C   UNL     1      -6.861  12.004  19.150  0.00  0.00    +0.000 A 
ATOM     37  C   UNL     1      -5.678  12.677  18.896  0.00  0.00    +0.000 A 
ATOM     38  N   UNL     1      -4.574  12.090  18.383  0.00  0.00    +0.000 NA
ENDBRANCH  32  33
ENDBRANCH  31  32
ENDBRANCH  29  31
ENDBRANCH   1  28
TORSDOF 7
ENDMDL
MODEL 3
REMARK VINA RESULT:      -9.0      2.892      9.786
REMARK  Name = 
REMARK  7 active torsions:
REMARK  status: ('A' for Active; 'I' for Inactive)
REMARK    1  A    between atoms: C_2  and  C_12
REMARK    2  A    between atoms: N_3  and  C_4
REMARK    3  A    between atoms: C_4  and  C_5
REMARK    4  A    between atoms: C_5  and  C_6
REMARK    5  A    between atoms: C_16  and  C_18
REMARK    6  A    between atoms: N_20  and  C_21
REMARK    7  A    between atoms: C_21  and  C_22
REMARK                            x       y       z     vdW  Elec       q    Type
REMARK                         _______ _______ _______ _____ _____    ______ ____
ROOT
ATOM      1  C   UNL     1       1.029  10.033  20.408  0.00  0.00    +0.000 C 
ATOM      2  C   UNL     1      -0.447   9.815  20.708  0.00  0.00    +0.000 C 
ATOM      3  C   UNL     1      -1.356  10.864  20.094  0.00  0.00    +0.000 C 
ATOM      4  N   UNL     1      -0.891  12.228  20.306  0.00  0.00    +0.000 N 
ATOM      5  C   UNL     1      -1.764  13.308  20.482  0.00  0.00    +0.000 C 
ATOM      6  O   UNL     1      -1.384  14.475  20.578  0.00  0.00    +0.000 OA
ATOM      7  C   UNL     1       0.491  12.479  19.901  0.00  0.00    +0.000 C 
ATOM      8  C   UNL     1       1.434  11.498  20.589  0.00  0.00    +0.000 C 
ENDROOT
BRANCH   5   9
ATOM      9  C   UNL     1      -3.269  13.006  20.593  0.00  0.00    +0.000 A 
ATOM     10  N   UNL     1      -3.883  12.700  19.489  0.00  0.00    +0.000 NA
ATOM     11  N   UNL     1      -5.186  12.249  19.522  0.00  0.00    +0.000 N 
ATOM     12  C   UNL     1      -5.961  12.247  20.667  0.00  0.00    +0.000 A 
ATOM     13  O   UNL     1      -7.153  11.928  20.696  0.00  0.00    +0.000 OA
ATOM     14  C   UNL     1      -5.294  12.650  21.920  0.00  0.00    +0.000 A 
ATOM     15  C   UNL     1      -6.005  12.623  23.127  0.00  0.00    +0.000 A 
ATOM     16  C   UNL     1      -5.371  12.964  24.322  0.00  0.00    +0.000 A 
ATOM     17  C   UNL     1      -4.035  13.353  24.310  0.00  0.00    +0.000 A 
ATOM     18  C   UNL     1      -3.323  13.381  23.107  0.00  0.00    +0.000 A 
ATOM     19  C   UNL     1      -3.948  13.021  21.907  0.00  0.00    +0.000 A 
BRANCH  11  20
ATOM     20  C   UNL     1      -5.700  11.657  18.277  0.00  0.00    +0.000 C 
BRANCH  20  21
ATOM     21  C   UNL     1      -4.590  11.088  17.407  0.00  0.00    +0.000 A 
ATOM     22  C   UNL     1      -4.401  11.565  16.102  0.00  0.00    +0.000 A 
ATOM     23  C   UNL     1      -3.507  10.935  15.233  0.00  0.00    +0.000 A 
ATOM     24  C   UNL     1      -2.771   9.834  15.664  0.00  0.00    +0.000 A 
ATOM     25  C   UNL     1      -2.895   9.392  16.979  0.00  0.00    +0.000 A 
ATOM     26  C   UNL     1      -3.789  10.023  17.849  0.00  0.00    +0.000 A 
ENDBRANCH  20  21
ENDBRANCH  11  20
ENDBRANCH   5   9
BRANCH   1  28
ATOM     27  O   UNL     1       1.180  10.079  17.986  0.00  0.00    +0.000 OA
ATOM     28  C   UNL     1       1.414   9.492  19.035  0.00  0.00    +0.000 C 
ATOM     29  N   UNL     1       2.053   8.272  19.091  0.00  0.00    +0.000 N 
ATOM     30  H   UNL     1       2.008   7.743  19.952  0.00  0.00    +0.000 HD
BRANCH  29  31
ATOM     31  C   UNL     1       2.524   7.598  17.890  0.00  0.00    +0.000 C 
BRANCH  31  32
ATOM     32  C   UNL     1       3.314   6.341  18.244  0.00  0.00    +0.000 C 
BRANCH  32  33
ATOM     33  C   UNL     1       2.444   5.262  18.825  0.00  0.00    +0.000 A 
ATOM     34  C   UNL     1       1.921   4.258  18.014  0.00  0.00    +0.000 A 
ATOM     35  C   UNL     1       1.139   3.265  18.597  0.00  0.00    +0.000 A 
ATOM     36  C   UNL     1       0.896   3.304  19.964  0.00  0.00    +0.000 A 
ATOM     37  C   UNL     1       1.446   4.343  20.695  0.00  0.00    +0.000 A 
ATOM     38  N   UNL     1       2.212   5.318  20.157  0.00  0.00    +0.000 NA
ENDBRANCH  32  33
ENDBRANCH  31  32
ENDBRANCH  29  31
ENDBRANCH   1  28
TORSDOF 7
ENDMDL
MODEL 4
REMARK VINA RESULT:      -8.9      2.352      2.705
REMARK  Name = 
REMARK  7 active torsions:
REMARK  status: ('A' for Active; 'I' for Inactive)
REMARK    1  A    between atoms: C_2  and  C_12
REMARK    2  A    between atoms: N_3  and  C_4
REMARK    3  A    between atoms: C_4  and  C_5
REMARK    4  A    between atoms: C_5  and  C_6
REMARK    5  A    between atoms: C_16  and  C_18
REMARK    6  A    between atoms: N_20  and  C_21
REMARK    7  A    between atoms: C_21  and  C_22
REMARK                            x       y       z     vdW  Elec       q    Type
REMARK                         _______ _______ _______ _____ _____    ______ ____
ROOT
ATOM      1  C   UNL     1       0.459  11.358  18.863  0.00  0.00    +0.000 C 
ATOM      2  C   UNL     1       1.130  10.373  17.918  0.00  0.00    +0.000 C 
ATOM      3  C   UNL     1       0.981   8.923  18.340  0.00  0.00    +0.000 C 
ATOM      4  N   UNL     1       1.268   8.699  19.750  0.00  0.00    +0.000 N 
ATOM      5  C   UNL     1       1.860   7.524  20.227  0.00  0.00    +0.000 C 
ATOM      6  O   UNL     1       2.031   7.290  21.424  0.00  0.00    +0.000 OA
ATOM      7  C   UNL     1       0.531   9.558  20.676  0.00  0.00    +0.000 C 
ATOM      8  C   UNL     1       0.751  11.026  20.329  0.00  0.00    +0.000 C 
ENDROOT
BRANCH   5   9
ATOM      9  C   UNL     1       2.348   6.493  19.192  0.00  0.00    +0.000 A 
ATOM     10  N   UNL     1       3.162   6.930  18.278  0.00  0.00    +0.000 NA
ATOM     11  N   UNL     1       3.780   6.044  17.420  0.00  0.00    +0.000 N 
ATOM     12  C   UNL     1       3.468   4.698  17.361  0.00  0.00    +0.000 A 
ATOM     13  O   UNL     1       3.950   3.911  16.543  0.00  0.00    +0.000 OA
ATOM     14  C   UNL     1       2.499   4.198  18.357  0.00  0.00    +0.000 A 
ATOM     15  C   UNL     1       2.175   2.836  18.388  0.00  0.00    +0.000 A 
ATOM     16  C   UNL     1       1.291   2.348  19.351  0.00  0.00    +0.000 A 
ATOM     17  C   UNL     1       0.714   3.223  20.268  0.00  0.00    +0.000 A 
ATOM     18  C   UNL     1       1.036   4.583  20.238  0.00  0.00    +0.000 A 
ATOM     19  C   UNL     1       1.938   5.075  19.287  0.00  0.00    +0.000 A 
BRANCH  11  20
ATOM     20  C   UNL     1       4.891   6.584  16.619  0.00  0.00    +0.000 C 
BRANCH  20  21
ATOM     21  C   UNL     1       6.116   6.891  17.465  0.00  0.00    +0.000 A 
ATOM     22  C   UNL     1       6.800   8.105  17.301  0.00  0.00    +0.000 A 
ATOM     23  C   UNL     1       8.022   8.329  17.939  0.00  0.00    +0.000 A 
ATOM     24  C   UNL     1       8.568   7.351  18.768  0.00  0.00    +0.000 A 
ATOM     25  C   UNL     1       7.867   6.169  18.997  0.00  0.00    +0.000 A 
ATOM     26  C   UNL     1       6.643   5.947  18.359  0.00  0.00    +0.000 A 
ENDBRANCH  20  21
ENDBRANCH  11  20
ENDBRANCH   5   9
BRANCH   1  28
ATOM     27  O   UNL     1      -1.541  11.266  17.490  0.00  0.00    +0.000 OA
ATOM     28  C   UNL     1      -1.036  11.483  18.585  0.00  0.00    +0.000 C 
ATOM     29  N   UNL     1      -1.764  11.865  19.691  0.00  0.00    +0.000 N 
ATOM     30  H   UNL     1      -1.269  12.246  20.487  0.00  0.00    +0.000 HD
BRANCH  29  31
ATOM     31  C   UNL     1      -3.211  12.016  19.641  0.00  0.00    +0.000 C 
BRANCH  31  32
ATOM     32  C   UNL     1      -3.656  13.265  20.396  0.00  0.00    +0.000 C 
BRANCH  32  33
ATOM     33  C   UNL     1      -3.912  12.995  21.852  0.00  0.00    +0.000 A 
ATOM     34  C   UNL     1      -5.152  13.279  22.420  0.00  0.00    +0.000 A 
ATOM     35  C   UNL     1      -5.353  12.993  23.767  0.00  0.00    +0.000 A 
ATOM     36  C   UNL     1      -4.317  12.439  24.508  0.00  0.00    +0.000 A 
ATOM     37  C   UNL     1      -3.114  12.196  23.867  0.00  0.00    +0.000 A 
ATOM     38  N   UNL     1      -2.891  12.461  22.561  0.00  0.00    +0.000 NA
ENDBRANCH  32  33
ENDBRANCH  31  32
ENDBRANCH  29  31
ENDBRANCH   1  28
TORSDOF 7
ENDMDL
MODEL 5
REMARK VINA RESULT:      -8.8      1.321      1.402
REMARK  Name = 
REMARK  7 active torsions:
REMARK  status: ('A' for Active; 'I' for Inactive)
REMARK    1  A    between atoms: C_2  and  C_12
REMARK    2  A    between atoms: N_3  and  C_4
REMARK    3  A    between atoms: C_4  and  C_5
REMARK    4  A    between atoms: C_5  and  C_6
REMARK    5  A    between atoms: C_16  and  C_18
REMARK    6  A    between atoms: N_20  and  C_21
REMARK    7  A    between atoms: C_21  and  C_22
REMARK                            x       y       z     vdW  Elec       q    Type
REMARK                         _______ _______ _______ _____ _____    ______ ____
ROOT
ATOM      1  C   UNL     1       0.719  11.409  19.090  0.00  0.00    +0.000 C 
ATOM      2  C   UNL     1       1.372  10.440  18.116  0.00  0.00    +0.000 C 
ATOM      3  C   UNL     1       1.157   8.980  18.470  0.00  0.00    +0.000 C 
ATOM      4  N   UNL     1       1.405   8.684  19.874  0.00  0.00    +0.000 N 
ATOM      5  C   UNL     1       1.940   7.466  20.310  0.00  0.00    +0.000 C 
ATOM      6  O   UNL     1       2.076   7.174  21.498  0.00  0.00    +0.000 OA
ATOM      7  C   UNL     1       0.681   9.530  20.822  0.00  0.00    +0.000 C 
ATOM      8  C   UNL     1       0.966  11.002  20.545  0.00  0.00    +0.000 C 
ENDROOT
BRANCH   5   9
ATOM      9  C   UNL     1       2.410   6.463  19.241  0.00  0.00    +0.000 A 
ATOM     10  N   UNL     1       3.193   6.928  18.313  0.00  0.00    +0.000 NA
ATOM     11  N   UNL     1       3.797   6.067  17.420  0.00  0.00    +0.000 N 
ATOM     12  C   UNL     1       3.498   4.720  17.342  0.00  0.00    +0.000 A 
ATOM     13  O   UNL     1       3.965   3.955  16.494  0.00  0.00    +0.000 OA
ATOM     14  C   UNL     1       2.563   4.188  18.353  0.00  0.00    +0.000 A 
ATOM     15  C   UNL     1       2.255   2.822  18.365  0.00  0.00    +0.000 A 
ATOM     16  C   UNL     1       1.403   2.304  19.342  0.00  0.00    +0.000 A 
ATOM     17  C   UNL     1       0.844   3.152  20.292  0.00  0.00    +0.000 A 
ATOM     18  C   UNL     1       1.149   4.516  20.282  0.00  0.00    +0.000 A 
ATOM     19  C   UNL     1       2.019   5.039  19.317  0.00  0.00    +0.000 A 
BRANCH  11  20
ATOM     20  C   UNL     1       4.878   6.636  16.599  0.00  0.00    +0.000 C 
BRANCH  20  21
ATOM     21  C   UNL     1       6.195   6.715  17.355  0.00  0.00    +0.000 A 
ATOM     22  C   UNL     1       6.595   5.660  18.188  0.00  0.00    +0.000 A 
ATOM     23  C   UNL     1       7.708   5.789  19.022  0.00  0.00    +0.000 A 
ATOM     24  C   UNL     1       8.451   6.968  19.019  0.00  0.00    +0.000 A 
ATOM     25  C   UNL     1       8.109   7.998  18.146  0.00  0.00    +0.000 A 
ATOM     26  C   UNL     1       6.996   7.867  17.310  0.00  0.00    +0.000 A 
ENDBRANCH  20  21
ENDBRANCH  11  20
ENDBRANCH   5   9
BRANCH   1  28
ATOM     27  O   UNL     1      -1.401  10.883  18.031  0.00  0.00    +0.000 OA
ATOM     28  C   UNL     1      -0.764  11.605  18.788  0.00  0.00    +0.000 C 
ATOM     29  N   UNL     1      -1.316  12.677  19.453  0.00  0.00    +0.000 N 
ATOM     30  H   UNL     1      -0.696  13.358  19.872  0.00  0.00    +0.000 HD
BRANCH  29  31
ATOM     31  C   UNL     1      -2.726  13.019  19.320  0.00  0.00    +0.000 C 
BRANCH  31  32
ATOM     32  C   UNL     1      -3.484  12.721  20.609  0.00  0.00    +0.000 C 
BRANCH  32  33
ATOM     33  C   UNL     1      -4.919  12.352  20.358  0.00  0.00    +0.000 A 
ATOM     34  C   UNL     1      -5.385  12.152  19.061  0.00  0.00    +0.000 A 
ATOM     35  C   UNL     1      -6.716  11.789  18.875  0.00  0.00    +0.000 A 
ATOM     36  C   UNL     1      -7.543  11.643  19.981  0.00  0.00    +0.000 A 
ATOM     37  C   UNL     1      -7.002  11.870  21.235  0.00  0.00    +0.000 A 
ATOM     38  N   UNL     1      -5.714  12.220  21.446  0.00  0.00    +0.000 NA
ENDBRANCH  32  33
ENDBRANCH  31  32
ENDBRANCH  29  31
ENDBRANCH   1  28
TORSDOF 7
ENDMDL
MODEL 6
REMARK VINA RESULT:      -8.7      2.052      2.780
REMARK  Name = 
REMARK  7 active torsions:
REMARK  status: ('A' for Active; 'I' for Inactive)
REMARK    1  A    between atoms: C_2  and  C_12
REMARK    2  A    between atoms: N_3  and  C_4
REMARK    3  A    between atoms: C_4  and  C_5
REMARK    4  A    between atoms: C_5  and  C_6
REMARK    5  A    between atoms: C_16  and  C_18
REMARK    6  A    between atoms: N_20  and  C_21
REMARK    7  A    between atoms: C_21  and  C_22
REMARK                            x       y       z     vdW  Elec       q    Type
REMARK                         _______ _______ _______ _____ _____    ______ ____
ROOT
ATOM      1  C   UNL     1       0.790  10.979  18.811  0.00  0.00    +0.000 C 
ATOM      2  C   UNL     1       1.497  10.051  17.835  0.00  0.00    +0.000 C 
ATOM      3  C   UNL     1       1.318   8.578  18.154  0.00  0.00    +0.000 C 
ATOM      4  N   UNL     1       1.539   8.260  19.558  0.00  0.00    +0.000 N 
ATOM      5  C   UNL     1       2.100   7.050  19.982  0.00  0.00    +0.000 C 
ATOM      6  O   UNL     1       2.213   6.736  21.168  0.00  0.00    +0.000 OA
ATOM      7  C   UNL     1       0.765   9.064  20.503  0.00  0.00    +0.000 C 
ATOM      8  C   UNL     1       1.011  10.549  20.264  0.00  0.00    +0.000 C 
ENDROOT
BRANCH   5   9
ATOM      9  C   UNL     1       2.628   6.084  18.906  0.00  0.00    +0.000 A 
ATOM     10  N   UNL     1       3.466   6.578  18.044  0.00  0.00    +0.000 NA
ATOM     11  N   UNL     1       4.118   5.748  17.157  0.00  0.00    +0.000 N 
ATOM     12  C   UNL     1       3.818   4.406  17.010  0.00  0.00    +0.000 A 
ATOM     13  O   UNL     1       4.332   3.670  16.163  0.00  0.00    +0.000 OA
ATOM     14  C   UNL     1       2.823   3.843  17.944  0.00  0.00    +0.000 A 
ATOM     15  C   UNL     1       2.509   2.479  17.886  0.00  0.00    +0.000 A 
ATOM     16  C   UNL     1       1.599   1.930  18.790  0.00  0.00    +0.000 A 
ATOM     17  C   UNL     1       0.987   2.747  19.738  0.00  0.00    +0.000 A 
ATOM     18  C   UNL     1       1.299   4.108  19.797  0.00  0.00    +0.000 A 
ATOM     19  C   UNL     1       2.226   4.661  18.905  0.00  0.00    +0.000 A 
BRANCH  11  20
ATOM     20  C   UNL     1       5.248   6.340  16.423  0.00  0.00    +0.000 C 
BRANCH  20  21
ATOM     21  C   UNL     1       6.464   6.552  17.311  0.00  0.00    +0.000 A 
ATOM     22  C   UNL     1       6.832   5.575  18.248  0.00  0.00    +0.000 A 
ATOM     23  C   UNL     1       7.834   5.828  19.188  0.00  0.00    +0.000 A 
ATOM     24  C   UNL     1       8.498   7.053  19.190  0.00  0.00    +0.000 A 
ATOM     25  C   UNL     1       8.193   8.006  18.221  0.00  0.00    +0.000 A 
ATOM     26  C   UNL     1       7.192   7.751  17.280  0.00  0.00    +0.000 A 
ENDBRANCH  20  21
ENDBRANCH  11  20
ENDBRANCH   5   9
BRANCH   1  28
ATOM     27  O   UNL     1      -1.297  10.380  17.726  0.00  0.00    +0.000 OA
ATOM     28  C   UNL     1      -0.689  11.136  18.474  0.00  0.00    +0.000 C 
ATOM     29  N   UNL     1      -1.276  12.217  19.095  0.00  0.00    +0.000 N 
ATOM     30  H   UNL     1      -0.678  12.922  19.506  0.00  0.00    +0.000 HD
BRANCH  29  31
ATOM     31  C   UNL     1      -2.689  12.526  18.924  0.00  0.00    +0.000 C 
BRANCH  31  32
ATOM     32  C   UNL     1      -3.442  12.392  20.243  0.00  0.00    +0.000 C 
BRANCH  32  33
ATOM     33  C   UNL     1      -2.680  12.972  21.401  0.00  0.00    +0.000 A 
ATOM     34  C   UNL     1      -2.783  14.325  21.713  0.00  0.00    +0.000 A 
ATOM     35  C   UNL     1      -2.077  14.817  22.807  0.00  0.00    +0.000 A 
ATOM     36  C   UNL     1      -1.286  13.951  23.552  0.00  0.00    +0.000 A 
ATOM     37  C   UNL     1      -1.233  12.622  23.168  0.00  0.00    +0.000 A 
ATOM     38  N   UNL     1      -1.909  12.116  22.113  0.00  0.00    +0.000 NA
ENDBRANCH  32  33
ENDBRANCH  31  32
ENDBRANCH  29  31
ENDBRANCH   1  28
TORSDOF 7
ENDMDL
MODEL 7
REMARK VINA RESULT:      -8.7      3.158     10.947
REMARK  Name = 
REMARK  7 active torsions:
REMARK  status: ('A' for Active; 'I' for Inactive)
REMARK    1  A    between atoms: C_2  and  C_12
REMARK    2  A    between atoms: N_3  and  C_4
REMARK    3  A    between atoms: C_4  and  C_5
REMARK    4  A    between atoms: C_5  and  C_6
REMARK    5  A    between atoms: C_16  and  C_18
REMARK    6  A    between atoms: N_20  and  C_21
REMARK    7  A    between atoms: C_21  and  C_22
REMARK                            x       y       z     vdW  Elec       q    Type
REMARK                         _______ _______ _______ _____ _____    ______ ____
ROOT
ATOM      1  C   UNL     1      -1.330  10.723  17.400  0.00  0.00    +0.000 C 
ATOM      2  C   UNL     1      -1.843  12.060  17.912  0.00  0.00    +0.000 C 
ATOM      3  C   UNL     1      -3.037  11.941  18.842  0.00  0.00    +0.000 C 
ATOM      4  N   UNL     1      -4.072  11.048  18.341  0.00  0.00    +0.000 N 
ATOM      5  C   UNL     1      -5.436  11.262  18.572  0.00  0.00    +0.000 C 
ATOM      6  O   UNL     1      -6.313  10.470  18.225  0.00  0.00    +0.000 OA
ATOM      7  C   UNL     1      -3.608   9.713  17.964  0.00  0.00    +0.000 C 
ATOM      8  C   UNL     1      -2.474   9.810  16.951  0.00  0.00    +0.000 C 
ENDROOT
BRANCH   5   9
ATOM      9  C   UNL     1      -5.851  12.572  19.266  0.00  0.00    +0.000 A 
ATOM     10  N   UNL     1      -5.683  12.625  20.553  0.00  0.00    +0.000 NA
ATOM     11  N   UNL     1      -5.865  13.814  21.228  0.00  0.00    +0.000 N 
ATOM     12  C   UNL     1      -6.381  14.953  20.636  0.00  0.00    +0.000 A 
ATOM     13  O   UNL     1      -6.629  15.997  21.245  0.00  0.00    +0.000 OA
ATOM     14  C   UNL     1      -6.633  14.889  19.183  0.00  0.00    +0.000 A 
ATOM     15  C   UNL     1      -7.107  16.022  18.510  0.00  0.00    +0.000 A 
ATOM     16  C   UNL     1      -7.311  15.982  17.130  0.00  0.00    +0.000 A 
ATOM     17  C   UNL     1      -7.062  14.807  16.427  0.00  0.00    +0.000 A 
ATOM     18  C   UNL     1      -6.590  13.675  17.098  0.00  0.00    +0.000 A 
ATOM     19  C   UNL     1      -6.364  13.714  18.479  0.00  0.00    +0.000 A 
BRANCH  11  20
ATOM     20  C   UNL     1      -5.379  13.855  22.616  0.00  0.00    +0.000 C 
BRANCH  20  21
ATOM     21  C   UNL     1      -3.898  13.523  22.719  0.00  0.00    +0.000 A 
ATOM     22  C   UNL     1      -2.949  14.332  22.077  0.00  0.00    +0.000 A 
ATOM     23  C   UNL     1      -1.608  13.946  22.013  0.00  0.00    +0.000 A 
ATOM     24  C   UNL     1      -1.192  12.757  22.609  0.00  0.00    +0.000 A 
ATOM     25  C   UNL     1      -2.110  11.979  23.311  0.00  0.00    +0.000 A 
ATOM     26  C   UNL     1      -3.452  12.367  23.376  0.00  0.00    +0.000 A 
ENDBRANCH  20  21
ENDBRANCH  11  20
ENDBRANCH   5   9
BRANCH   1  28
ATOM     27  O   UNL     1      -0.704   9.883  19.591  0.00  0.00    +0.000 OA
ATOM     28  C   UNL     1      -0.412  10.043  18.412  0.00  0.00    +0.000 C 
ATOM     29  N   UNL     1       0.783   9.626  17.867  0.00  0.00    +0.000 N 
ATOM     30  H   UNL     1       1.054   9.988  16.962  0.00  0.00    +0.000 HD
BRANCH  29  31
ATOM     31  C   UNL     1       1.787   8.932  18.661  0.00  0.00    +0.000 C 
BRANCH  31  32
ATOM     32  C   UNL     1       2.599   7.972  17.798  0.00  0.00    +0.000 C 
BRANCH  32  33
ATOM     33  C   UNL     1       2.862   6.663  18.488  0.00  0.00    +0.000 A 
ATOM     34  C   UNL     1       2.267   6.374  19.713  0.00  0.00    +0.000 A 
ATOM     35  C   UNL     1       2.521   5.141  20.307  0.00  0.00    +0.000 A 
ATOM     36  C   UNL     1       3.361   4.237  19.669  0.00  0.00    +0.000 A 
ATOM     37  C   UNL     1       3.919   4.608  18.457  0.00  0.00    +0.000 A 
ATOM     38  N   UNL     1       3.688   5.796  17.856  0.00  0.00    +0.000 NA
ENDBRANCH  32  33
ENDBRANCH  31  32
ENDBRANCH  29  31
ENDBRANCH   1  28
TORSDOF 7
ENDMDL
MODEL 8
REMARK VINA RESULT:      -8.7      2.100      3.179
REMARK  Name = 
REMARK  7 active torsions:
REMARK  status: ('A' for Active; 'I' for Inactive)
REMARK    1  A    between atoms: C_2  and  C_12
REMARK    2  A    between atoms: N_3  and  C_4
REMARK    3  A    between atoms: C_4  and  C_5
REMARK    4  A    between atoms: C_5  and  C_6
REMARK    5  A    between atoms: C_16  and  C_18
REMARK    6  A    between atoms: N_20  and  C_21
REMARK    7  A    between atoms: C_21  and  C_22
REMARK                            x       y       z     vdW  Elec       q    Type
REMARK                         _______ _______ _______ _____ _____    ______ ____
ROOT
ATOM      1  C   UNL     1       0.746  11.152  18.893  0.00  0.00    +0.000 C 
ATOM      2  C   UNL     1       1.421  10.196  17.921  0.00  0.00    +0.000 C 
ATOM      3  C   UNL     1       1.211   8.731  18.259  0.00  0.00    +0.000 C 
ATOM      4  N   UNL     1       1.438   8.424  19.664  0.00  0.00    +0.000 N 
ATOM      5  C   UNL     1       1.975   7.207  20.098  0.00  0.00    +0.000 C 
ATOM      6  O   UNL     1       2.093   6.904  21.286  0.00  0.00    +0.000 OA
ATOM      7  C   UNL     1       0.693   9.257  20.607  0.00  0.00    +0.000 C 
ATOM      8  C   UNL     1       0.971  10.734  20.348  0.00  0.00    +0.000 C 
ENDROOT
BRANCH   5   9
ATOM      9  C   UNL     1       2.470   6.216  19.028  0.00  0.00    +0.000 A 
ATOM     10  N   UNL     1       3.305   6.683  18.148  0.00  0.00    +0.000 NA
ATOM     11  N   UNL     1       3.929   5.828  17.263  0.00  0.00    +0.000 N 
ATOM     12  C   UNL     1       3.602   4.490  17.139  0.00  0.00    +0.000 A 
ATOM     13  O   UNL     1       4.090   3.733  16.296  0.00  0.00    +0.000 OA
ATOM     14  C   UNL     1       2.609   3.959  18.094  0.00  0.00    +0.000 A 
ATOM     15  C   UNL     1       2.269   2.601  18.060  0.00  0.00    +0.000 A 
ATOM     16  C   UNL     1       1.361   2.082  18.984  0.00  0.00    +0.000 A 
ATOM     17  C   UNL     1       0.778   2.923  19.928  0.00  0.00    +0.000 A 
ATOM     18  C   UNL     1       1.117   4.279  19.964  0.00  0.00    +0.000 A 
ATOM     19  C   UNL     1       2.041   4.801  19.052  0.00  0.00    +0.000 A 
BRANCH  11  20
ATOM     20  C   UNL     1       5.060   6.388  16.506  0.00  0.00    +0.000 C 
BRANCH  20  21
ATOM     21  C   UNL     1       6.220   6.780  17.408  0.00  0.00    +0.000 A 
ATOM     22  C   UNL     1       6.851   8.022  17.247  0.00  0.00    +0.000 A 
ATOM     23  C   UNL     1       8.023   8.324  17.943  0.00  0.00    +0.000 A 
ATOM     24  C   UNL     1       8.569   7.398  18.829  0.00  0.00    +0.000 A 
ATOM     25  C   UNL     1       7.915   6.189  19.054  0.00  0.00    +0.000 A 
ATOM     26  C   UNL     1       6.741   5.888  18.357  0.00  0.00    +0.000 A 
ENDBRANCH  20  21
ENDBRANCH  11  20
ENDBRANCH   5   9
BRANCH   1  28
ATOM     27  O   UNL     1      -1.247  10.976  17.517  0.00  0.00    +0.000 OA
ATOM     28  C   UNL     1      -0.733  11.340  18.568  0.00  0.00    +0.000 C 
ATOM     29  N   UNL     1      -1.436  11.961  19.577  0.00  0.00    +0.000 N 
ATOM     30  H   UNL     1      -0.918  12.436  20.306  0.00  0.00    +0.000 HD
BRANCH  29  31
ATOM     31  C   UNL     1      -2.867  12.211  19.473  0.00  0.00    +0.000 C 
BRANCH  31  32
ATOM     32  C   UNL     1      -3.422  12.762  20.783  0.00  0.00    +0.000 C 
BRANCH  32  33
ATOM     33  C   UNL     1      -2.402  13.555  21.550  0.00  0.00    +0.000 A 
ATOM     34  C   UNL     1      -2.090  13.227  22.867  0.00  0.00    +0.000 A 
ATOM     35  C   UNL     1      -1.123  13.974  23.534  0.00  0.00    +0.000 A 
ATOM     36  C   UNL     1      -0.502  15.027  22.874  0.00  0.00    +0.000 A 
ATOM     37  C   UNL     1      -0.878  15.291  21.568  0.00  0.00    +0.000 A 
ATOM     38  N   UNL     1      -1.810  14.582  20.896  0.00  0.00    +0.000 NA
ENDBRANCH  32  33
ENDBRANCH  31  32
ENDBRANCH  29  31
ENDBRANCH   1  28
TORSDOF 7
ENDMDL
MODEL 9
REMARK VINA RESULT:      -8.7      1.663      1.974
REMARK  Name = 
REMARK  7 active torsions:
REMARK  status: ('A' for Active; 'I' for Inactive)
REMARK    1  A    between atoms: C_2  and  C_12
REMARK    2  A    between atoms: N_3  and  C_4
REMARK    3  A    between atoms: C_4  and  C_5
REMARK    4  A    between atoms: C_5  and  C_6
REMARK    5  A    between atoms: C_16  and  C_18
REMARK    6  A    between atoms: N_20  and  C_21
REMARK    7  A    between atoms: C_21  and  C_22
REMARK                            x       y       z     vdW  Elec       q    Type
REMARK                         _______ _______ _______ _____ _____    ______ ____
ROOT
ATOM      1  C   UNL     1       0.794  11.168  19.141  0.00  0.00    +0.000 C 
ATOM      2  C   UNL     1       1.471  10.244  18.140  0.00  0.00    +0.000 C 
ATOM      3  C   UNL     1       1.232   8.770  18.410  0.00  0.00    +0.000 C 
ATOM      4  N   UNL     1       1.430   8.399  19.805  0.00  0.00    +0.000 N 
ATOM      5  C   UNL     1       1.940   7.155  20.194  0.00  0.00    +0.000 C 
ATOM      6  O   UNL     1       2.032   6.800  21.369  0.00  0.00    +0.000 OA
ATOM      7  C   UNL     1       0.681   9.203  20.770  0.00  0.00    +0.000 C 
ATOM      8  C   UNL     1       0.988  10.684  20.580  0.00  0.00    +0.000 C 
ENDROOT
BRANCH   5   9
ATOM      9  C   UNL     1       2.437   6.203  19.090  0.00  0.00    +0.000 A 
ATOM     10  N   UNL     1       3.262   6.705  18.220  0.00  0.00    +0.000 NA
ATOM     11  N   UNL     1       3.888   5.885  17.305  0.00  0.00    +0.000 N 
ATOM     12  C   UNL     1       3.574   4.549  17.142  0.00  0.00    +0.000 A 
ATOM     13  O   UNL     1       4.064   3.823  16.272  0.00  0.00    +0.000 OA
ATOM     14  C   UNL     1       2.593   3.978  18.086  0.00  0.00    +0.000 A 
ATOM     15  C   UNL     1       2.266   2.618  18.011  0.00  0.00    +0.000 A 
ATOM     16  C   UNL     1       1.369   2.061  18.925  0.00  0.00    +0.000 A 
ATOM     17  C   UNL     1       0.785   2.866  19.898  0.00  0.00    +0.000 A 
ATOM     18  C   UNL     1       1.110   4.224  19.974  0.00  0.00    +0.000 A 
ATOM     19  C   UNL     1       2.023   4.784  19.073  0.00  0.00    +0.000 A 
BRANCH  11  20
ATOM     20  C   UNL     1       5.009   6.480  16.559  0.00  0.00    +0.000 C 
BRANCH  20  21
ATOM     21  C   UNL     1       6.195   6.799  17.456  0.00  0.00    +0.000 A 
ATOM     22  C   UNL     1       6.894   8.004  17.299  0.00  0.00    +0.000 A 
ATOM     23  C   UNL     1       8.086   8.234  17.991  0.00  0.00    +0.000 A 
ATOM     24  C   UNL     1       8.584   7.272  18.866  0.00  0.00    +0.000 A 
ATOM     25  C   UNL     1       7.864   6.099  19.086  0.00  0.00    +0.000 A 
ATOM     26  C   UNL     1       6.671   5.871  18.395  0.00  0.00    +0.000 A 
ENDBRANCH  20  21
ENDBRANCH  11  20
ENDBRANCH   5   9
BRANCH   1  28
ATOM     27  O   UNL     1      -1.194  11.016  17.756  0.00  0.00    +0.000 OA
ATOM     28  C   UNL     1      -0.675  11.394  18.800  0.00  0.00    +0.000 C 
ATOM     29  N   UNL     1      -1.364  12.068  19.785  0.00  0.00    +0.000 N 
ATOM     30  H   UNL     1      -0.835  12.547  20.503  0.00  0.00    +0.000 HD
BRANCH  29  31
ATOM     31  C   UNL     1      -2.785  12.361  19.663  0.00  0.00    +0.000 C 
BRANCH  31  32
ATOM     32  C   UNL     1      -3.366  12.814  20.999  0.00  0.00    +0.000 C 
BRANCH  32  33
ATOM     33  C   UNL     1      -4.867  12.887  20.977  0.00  0.00    +0.000 A 
ATOM     34  C   UNL     1      -5.604  12.089  20.106  0.00  0.00    +0.000 A 
ATOM     35  C   UNL     1      -6.993  12.172  20.133  0.00  0.00    +0.000 A 
ATOM     36  C   UNL     1      -7.605  13.048  21.020  0.00  0.00    +0.000 A 
ATOM     37  C   UNL     1      -6.798  13.811  21.846  0.00  0.00    +0.000 A 
ATOM     38  N   UNL     1      -5.448  13.750  21.843  0.00  0.00    +0.000 NA
ENDBRANCH  32  33
ENDBRANCH  31  32
ENDBRANCH  29  31
ENDBRANCH   1  28
TORSDOF 7
ENDMDL
