MODEL 1
REMARK VINA RESULT:      -8.1      0.000      0.000
REMARK  Name = 
REMARK  3 active torsions:
REMARK  status: ('A' for Active; 'I' for Inactive)
REMARK    1  A    between atoms: C_1  and  C_2
REMARK    2  A    between atoms: N_8  and  C_9
REMARK    3  A    between atoms: C_13  and  C_15
REMARK                            x       y       z     vdW  Elec       q    Type
REMARK                         _______ _______ _______ _____ _____    ______ ____
ROOT
ATOM      1  C   UNL     1       6.968   6.876  17.190  0.00  0.00    +0.000 C 
ATOM      2  C   UNL     1       5.581   7.425  17.562  0.00  0.00    +0.000 C 
ATOM      3  C   UNL     1       4.874   6.276  18.271  0.00  0.00    +0.000 C 
ATOM      4  N   UNL     1       5.396   5.103  17.607  0.00  0.00    +0.000 N 
ATOM      5  C   UNL     1       4.777   3.917  17.263  0.00  0.00    +0.000 C 
ATOM      6  O   UNL     1       5.414   3.086  16.612  0.00  0.00    +0.000 OA
ATOM      7  C   UNL     1       6.755   5.351  17.133  0.00  0.00    +0.000 C 
ENDROOT
BRANCH   1  15
ATOM      8  C   UNL     1       9.569  14.325  18.156  0.00  0.00    +0.000 C 
ATOM      9  C   UNL     1       9.464  12.873  18.533  0.00  0.00    +0.000 A 
ATOM     10  C   UNL     1      10.090  12.393  19.697  0.00  0.00    +0.000 A 
ATOM     11  C   UNL     1      10.000  11.048  20.083  0.00  0.00    +0.000 A 
ATOM     12  C   UNL     1       9.269  10.225  19.236  0.00  0.00    +0.000 A 
ATOM     13  O   UNL     1       9.032   8.890  19.383  0.00  0.00    +0.000 OA
ATOM     14  C   UNL     1       8.304   8.560  18.277  0.00  0.00    +0.000 A 
ATOM     15  N   UNL     1       7.966   7.261  18.181  0.00  0.00    +0.000 N 
ATOM     16  N   UNL     1       8.034   9.567  17.470  0.00  0.00    +0.000 NA
ATOM     17  C   UNL     1       8.646  10.640  18.072  0.00  0.00    +0.000 A 
ATOM     18  C   UNL     1       8.732  11.992  17.707  0.00  0.00    +0.000 A 
ATOM     19  H   UNL     1       7.932   6.774  19.069  0.00  0.00    +0.000 HD
ENDBRANCH   1  15
BRANCH   5  20
ATOM     20  C   UNL     1       3.392   3.679  17.590  0.00  0.00    +0.000 A 
ATOM     21  C   UNL     1       2.213   3.877  16.896  0.00  0.00    +0.000 A 
ATOM     22  N   UNL     1       1.114   3.589  17.668  0.00  0.00    +0.000 NA
ATOM     23  C   UNL     1       1.589   3.229  18.844  0.00  0.00    +0.000 A 
ATOM     24  N   UNL     1       2.957   3.238  18.825  0.00  0.00    +0.000 N 
ATOM     25  C   UNL     1       3.777   2.728  19.896  0.00  0.00    +0.000 C 
ATOM     26  C   UNL     1       3.125   2.810  21.268  0.00  0.00    +0.000 C 
ATOM     27  C   UNL     1       1.616   2.587  21.316  0.00  0.00    +0.000 C 
ATOM     28  C   UNL     1       0.804   2.845  20.044  0.00  0.00    +0.000 C 
ENDBRANCH   5  20
TORSDOF 2
ENDMDL
MODEL 2
REMARK VINA RESULT:      -8.0      3.664      6.265
REMARK  Name = 
REMARK  3 active torsions:
REMARK  status: ('A' for Active; 'I' for Inactive)
REMARK    1  A    between atoms: C_1  and  C_2
REMARK    2  A    between atoms: N_8  and  C_9
REMARK    3  A    between atoms: C_13  and  C_15
REMARK                            x       y       z     vdW  Elec       q    Type
REMARK                         _______ _______ _______ _____ _____    ______ ____
ROOT
ATOM      1  C   UNL     1       7.033   6.842  17.535  0.00  0.00    +0.000 C 
ATOM      2  C   UNL     1       6.881   5.972  18.794  0.00  0.00    +0.000 C 
ATOM      3  C   UNL     1       5.533   5.280  18.640  0.00  0.00    +0.000 C 
ATOM      4  N   UNL     1       4.734   6.257  17.936  0.00  0.00    +0.000 N 
ATOM      5  C   UNL     1       3.398   6.584  18.063  0.00  0.00    +0.000 C 
ATOM      6  O   UNL     1       2.956   7.528  17.405  0.00  0.00    +0.000 OA
ATOM      7  C   UNL     1       5.582   7.082  17.078  0.00  0.00    +0.000 C 
ENDROOT
BRANCH   1  15
ATOM      8  C   UNL     1       3.897   2.952  11.353  0.00  0.00    +0.000 C 
ATOM      9  C   UNL     1       5.037   3.527  12.148  0.00  0.00    +0.000 A 
ATOM     10  C   UNL     1       6.353   3.454  11.658  0.00  0.00    +0.000 A 
ATOM     11  C   UNL     1       7.435   3.992  12.369  0.00  0.00    +0.000 A 
ATOM     12  C   UNL     1       7.124   4.586  13.585  0.00  0.00    +0.000 A 
ATOM     13  O   UNL     1       7.985   5.178  14.460  0.00  0.00    +0.000 OA
ATOM     14  C   UNL     1       7.188   5.563  15.499  0.00  0.00    +0.000 A 
ATOM     15  N   UNL     1       7.829   6.160  16.522  0.00  0.00    +0.000 N 
ATOM     16  N   UNL     1       5.907   5.298  15.343  0.00  0.00    +0.000 NA
ATOM     17  C   UNL     1       5.851   4.672  14.121  0.00  0.00    +0.000 A 
ATOM     18  C   UNL     1       4.775   4.142  13.392  0.00  0.00    +0.000 A 
ATOM     19  H   UNL     1       8.704   6.601  16.262  0.00  0.00    +0.000 HD
ENDBRANCH   1  15
BRANCH   5  20
ATOM     20  C   UNL     1       2.548   5.887  18.998  0.00  0.00    +0.000 A 
ATOM     21  C   UNL     1       2.038   6.224  20.238  0.00  0.00    +0.000 A 
ATOM     22  N   UNL     1       1.348   5.180  20.804  0.00  0.00    +0.000 NA
ATOM     23  C   UNL     1       1.433   4.187  19.942  0.00  0.00    +0.000 A 
ATOM     24  N   UNL     1       2.119   4.585  18.827  0.00  0.00    +0.000 N 
ATOM     25  C   UNL     1       2.233   3.791  17.630  0.00  0.00    +0.000 C 
ATOM     26  C   UNL     1       2.163   2.291  17.873  0.00  0.00    +0.000 C 
ATOM     27  C   UNL     1       1.226   1.827  18.986  0.00  0.00    +0.000 C 
ATOM     28  C   UNL     1       0.873   2.821  20.097  0.00  0.00    +0.000 C 
ENDBRANCH   5  20
TORSDOF 2
ENDMDL
MODEL 3
REMARK VINA RESULT:      -7.9      6.958      9.156
REMARK  Name = 
REMARK  3 active torsions:
REMARK  status: ('A' for Active; 'I' for Inactive)
REMARK    1  A    between atoms: C_1  and  C_2
REMARK    2  A    between atoms: N_8  and  C_9
REMARK    3  A    between atoms: C_13  and  C_15
REMARK                            x       y       z     vdW  Elec       q    Type
REMARK                         _______ _______ _______ _____ _____    ______ ____
ROOT
ATOM      1  C   UNL     1       1.718   8.408  20.739  0.00  0.00    +0.000 C 
ATOM      2  C   UNL     1       0.769   8.772  21.894  0.00  0.00    +0.000 C 
ATOM      3  C   UNL     1      -0.494   9.294  21.221  0.00  0.00    +0.000 C 
ATOM      4  N   UNL     1       0.005   9.940  20.028  0.00  0.00    +0.000 N 
ATOM      5  C   UNL     1      -0.411  11.093  19.390  0.00  0.00    +0.000 C 
ATOM      6  O   UNL     1       0.237  11.499  18.424  0.00  0.00    +0.000 OA
ATOM      7  C   UNL     1       1.229   9.286  19.572  0.00  0.00    +0.000 C 
ENDROOT
BRANCH   1  15
ATOM      8  C   UNL     1       6.022   4.905  15.048  0.00  0.00    +0.000 C 
ATOM      9  C   UNL     1       5.076   4.905  16.217  0.00  0.00    +0.000 A 
ATOM     10  C   UNL     1       4.616   3.692  16.760  0.00  0.00    +0.000 A 
ATOM     11  C   UNL     1       3.744   3.658  17.857  0.00  0.00    +0.000 A 
ATOM     12  C   UNL     1       3.358   4.894  18.360  0.00  0.00    +0.000 A 
ATOM     13  O   UNL     1       2.526   5.134  19.413  0.00  0.00    +0.000 OA
ATOM     14  C   UNL     1       2.449   6.496  19.469  0.00  0.00    +0.000 A 
ATOM     15  N   UNL     1       1.646   6.984  20.433  0.00  0.00    +0.000 N 
ATOM     16  N   UNL     1       3.180   7.130  18.574  0.00  0.00    +0.000 NA
ATOM     17  C   UNL     1       3.768   6.116  17.857  0.00  0.00    +0.000 A 
ATOM     18  C   UNL     1       4.652   6.135  16.767  0.00  0.00    +0.000 A 
ATOM     19  H   UNL     1       1.513   6.358  21.219  0.00  0.00    +0.000 HD
ENDBRANCH   1  15
BRANCH   5  20
ATOM     20  C   UNL     1      -1.535  11.851  19.885  0.00  0.00    +0.000 A 
ATOM     21  C   UNL     1      -1.722  12.632  21.010  0.00  0.00    +0.000 A 
ATOM     22  N   UNL     1      -3.017  13.080  21.108  0.00  0.00    +0.000 NA
ATOM     23  C   UNL     1      -3.648  12.576  20.067  0.00  0.00    +0.000 A 
ATOM     24  N   UNL     1      -2.782  11.857  19.289  0.00  0.00    +0.000 N 
ATOM     25  C   UNL     1      -3.119  11.327  17.992  0.00  0.00    +0.000 C 
ATOM     26  C   UNL     1      -4.596  11.006  17.820  0.00  0.00    +0.000 C 
ATOM     27  C   UNL     1      -5.579  11.942  18.519  0.00  0.00    +0.000 C 
ATOM     28  C   UNL     1      -5.084  12.741  19.728  0.00  0.00    +0.000 C 
ENDBRANCH   5  20
TORSDOF 2
ENDMDL
MODEL 4
REMARK VINA RESULT:      -7.7      7.191      8.735
REMARK  Name = 
REMARK  3 active torsions:
REMARK  status: ('A' for Active; 'I' for Inactive)
REMARK    1  A    between atoms: C_1  and  C_2
REMARK    2  A    between atoms: N_8  and  C_9
REMARK    3  A    between atoms: C_13  and  C_15
REMARK                            x       y       z     vdW  Elec       q    Type
REMARK                         _______ _______ _______ _____ _____    ______ ____
ROOT
ATOM      1  C   UNL     1       1.104  10.823  19.281  0.00  0.00    +0.000 C 
ATOM      2  C   UNL     1       1.933  10.587  18.008  0.00  0.00    +0.000 C 
ATOM      3  C   UNL     1       1.796   9.098  17.713  0.00  0.00    +0.000 C 
ATOM      4  N   UNL     1       1.699   8.505  19.027  0.00  0.00    +0.000 N 
ATOM      5  C   UNL     1       2.205   7.316  19.515  0.00  0.00    +0.000 C 
ATOM      6  O   UNL     1       2.065   7.062  20.713  0.00  0.00    +0.000 OA
ATOM      7  C   UNL     1       1.075   9.440  19.960  0.00  0.00    +0.000 C 
ENDROOT
BRANCH   1  15
ATOM      8  C   UNL     1      -4.324  12.797  24.741  0.00  0.00    +0.000 C 
ATOM      9  C   UNL     1      -3.799  12.697  23.336  0.00  0.00    +0.000 A 
ATOM     10  C   UNL     1      -4.537  13.224  22.261  0.00  0.00    +0.000 A 
ATOM     11  C   UNL     1      -4.069  13.158  20.942  0.00  0.00    +0.000 A 
ATOM     12  C   UNL     1      -2.842  12.530  20.767  0.00  0.00    +0.000 A 
ATOM     13  O   UNL     1      -2.172  12.336  19.595  0.00  0.00    +0.000 OA
ATOM     14  C   UNL     1      -1.053  11.647  19.964  0.00  0.00    +0.000 A 
ATOM     15  N   UNL     1      -0.230  11.310  18.954  0.00  0.00    +0.000 N 
ATOM     16  N   UNL     1      -0.943  11.421  21.258  0.00  0.00    +0.000 NA
ATOM     17  C   UNL     1      -2.082  11.980  21.785  0.00  0.00    +0.000 A 
ATOM     18  C   UNL     1      -2.557  12.067  23.102  0.00  0.00    +0.000 A 
ATOM     19  H   UNL     1      -0.306  11.909  18.140  0.00  0.00    +0.000 HD
ENDBRANCH   1  15
BRANCH   5  20
ATOM     20  C   UNL     1       2.948   6.419  18.663  0.00  0.00    +0.000 A 
ATOM     21  C   UNL     1       3.975   6.615  17.758  0.00  0.00    +0.000 A 
ATOM     22  N   UNL     1       4.299   5.455  17.098  0.00  0.00    +0.000 NA
ATOM     23  C   UNL     1       3.476   4.538  17.565  0.00  0.00    +0.000 A 
ATOM     24  N   UNL     1       2.670   5.072  18.533  0.00  0.00    +0.000 N 
ATOM     25  C   UNL     1       1.784   4.292  19.360  0.00  0.00    +0.000 C 
ATOM     26  C   UNL     1       1.281   3.018  18.698  0.00  0.00    +0.000 C 
ATOM     27  C   UNL     1       2.263   2.299  17.777  0.00  0.00    +0.000 C 
ATOM     28  C   UNL     1       3.398   3.114  17.151  0.00  0.00    +0.000 C 
ENDBRANCH   5  20
TORSDOF 2
ENDMDL
MODEL 5
REMARK VINA RESULT:      -7.6      7.454      9.326
REMARK  Name = 
REMARK  3 active torsions:
REMARK  status: ('A' for Active; 'I' for Inactive)
REMARK    1  A    between atoms: C_1  and  C_2
REMARK    2  A    between atoms: N_8  and  C_9
REMARK    3  A    between atoms: C_13  and  C_15
REMARK                            x       y       z     vdW  Elec       q    Type
REMARK                         _______ _______ _______ _____ _____    ______ ____
ROOT
ATOM      1  C   UNL     1       1.390   9.374  19.523  0.00  0.00    +0.000 C 
ATOM      2  C   UNL     1       0.859   9.933  20.853  0.00  0.00    +0.000 C 
ATOM      3  C   UNL     1      -0.636  10.128  20.635  0.00  0.00    +0.000 C 
ATOM      4  N   UNL     1      -0.727  10.481  19.237  0.00  0.00    +0.000 N 
ATOM      5  C   UNL     1      -1.557  11.375  18.589  0.00  0.00    +0.000 C 
ATOM      6  O   UNL     1      -1.385  11.574  17.385  0.00  0.00    +0.000 OA
ATOM      7  C   UNL     1       0.359   9.856  18.485  0.00  0.00    +0.000 C 
ENDROOT
BRANCH   1  15
ATOM      8  C   UNL     1       6.462   5.167  15.078  0.00  0.00    +0.000 C 
ATOM      9  C   UNL     1       5.435   5.330  16.164  0.00  0.00    +0.000 A 
ATOM     10  C   UNL     1       5.066   4.234  16.964  0.00  0.00    +0.000 A 
ATOM     11  C   UNL     1       4.121   4.356  17.992  0.00  0.00    +0.000 A 
ATOM     12  C   UNL     1       3.569   5.620  18.158  0.00  0.00    +0.000 A 
ATOM     13  O   UNL     1       2.638   6.001  19.078  0.00  0.00    +0.000 OA
ATOM     14  C   UNL     1       2.414   7.318  18.796  0.00  0.00    +0.000 A 
ATOM     15  N   UNL     1       1.492   7.920  19.570  0.00  0.00    +0.000 N 
ATOM     16  N   UNL     1       3.140   7.805  17.810  0.00  0.00    +0.000 NA
ATOM     17  C   UNL     1       3.885   6.728  17.391  0.00  0.00    +0.000 A 
ATOM     18  C   UNL     1       4.843   6.594  16.375  0.00  0.00    +0.000 A 
ATOM     19  H   UNL     1       1.366   7.488  20.478  0.00  0.00    +0.000 HD
ENDBRANCH   1  15
BRANCH   5  20
ATOM     20  C   UNL     1      -2.558  12.119  19.314  0.00  0.00    +0.000 A 
ATOM     21  C   UNL     1      -2.483  13.076  20.310  0.00  0.00    +0.000 A 
ATOM     22  N   UNL     1      -3.728  13.430  20.769  0.00  0.00    +0.000 NA
ATOM     23  C   UNL     1      -4.582  12.696  20.085  0.00  0.00    +0.000 A 
ATOM     24  N   UNL     1      -3.918  11.918  19.176  0.00  0.00    +0.000 N 
ATOM     25  C   UNL     1      -4.574  11.135  18.159  0.00  0.00    +0.000 C 
ATOM     26  C   UNL     1      -5.972  10.673  18.541  0.00  0.00    +0.000 C 
ATOM     27  C   UNL     1      -6.800  11.640  19.383  0.00  0.00    +0.000 C 
ATOM     28  C   UNL     1      -6.060  12.682  20.227  0.00  0.00    +0.000 C 
ENDBRANCH   5  20
TORSDOF 2
ENDMDL
MODEL 6
REMARK VINA RESULT:      -7.6      7.804     10.172
REMARK  Name = 
REMARK  3 active torsions:
REMARK  status: ('A' for Active; 'I' for Inactive)
REMARK    1  A    between atoms: C_1  and  C_2
REMARK    2  A    between atoms: N_8  and  C_9
REMARK    3  A    between atoms: C_13  and  C_15
REMARK                            x       y       z     vdW  Elec       q    Type
REMARK                         _______ _______ _______ _____ _____    ______ ____
ROOT
ATOM      1  C   UNL     1       1.436   8.812  21.203  0.00  0.00    +0.000 C 
ATOM      2  C   UNL     1       1.421   9.269  22.671  0.00  0.00    +0.000 C 
ATOM      3  C   UNL     1       0.001   9.761  22.921  0.00  0.00    +0.000 C 
ATOM      4  N   UNL     1      -0.391  10.314  21.644  0.00  0.00    +0.000 N 
ATOM      5  C   UNL     1      -1.155  11.425  21.343  0.00  0.00    +0.000 C 
ATOM      6  O   UNL     1      -1.279  11.754  20.162  0.00  0.00    +0.000 OA
ATOM      7  C   UNL     1       0.289   9.612  20.558  0.00  0.00    +0.000 C 
ENDROOT
BRANCH   1  15
ATOM      8  C   UNL     1       5.110   4.211  15.862  0.00  0.00    +0.000 C 
ATOM      9  C   UNL     1       4.237   4.451  17.063  0.00  0.00    +0.000 A 
ATOM     10  C   UNL     1       3.715   3.367  17.791  0.00  0.00    +0.000 A 
ATOM     11  C   UNL     1       2.909   3.558  18.922  0.00  0.00    +0.000 A 
ATOM     12  C   UNL     1       2.652   4.879  19.265  0.00  0.00    +0.000 A 
ATOM     13  O   UNL     1       1.904   5.331  20.311  0.00  0.00    +0.000 OA
ATOM     14  C   UNL     1       1.938   6.689  20.180  0.00  0.00    +0.000 A 
ATOM     15  N   UNL     1       1.233   7.371  21.102  0.00  0.00    +0.000 N 
ATOM     16  N   UNL     1       2.663   7.131  19.171  0.00  0.00    +0.000 NA
ATOM     17  C   UNL     1       3.126   5.982  18.576  0.00  0.00    +0.000 A 
ATOM     18  C   UNL     1       3.944   5.776  17.455  0.00  0.00    +0.000 A 
ATOM     19  H   UNL     1       1.098   6.872  21.973  0.00  0.00    +0.000 HD
ENDBRANCH   1  15
BRANCH   5  20
ATOM     20  C   UNL     1      -1.736  12.232  22.389  0.00  0.00    +0.000 A 
ATOM     21  C   UNL     1      -2.856  12.076  23.186  0.00  0.00    +0.000 A 
ATOM     22  N   UNL     1      -3.067  13.172  23.985  0.00  0.00    +0.000 NA
ATOM     23  C   UNL     1      -2.104  14.021  23.688  0.00  0.00    +0.000 A 
ATOM     24  N   UNL     1      -1.263  13.477  22.756  0.00  0.00    +0.000 N 
ATOM     25  C   UNL     1      -0.017  14.078  22.350  0.00  0.00    +0.000 C 
ATOM     26  C   UNL     1       0.004  15.595  22.467  0.00  0.00    +0.000 C 
ATOM     27  C   UNL     1      -0.763  16.196  23.642  0.00  0.00    +0.000 C 
ATOM     28  C   UNL     1      -1.901  15.377  24.259  0.00  0.00    +0.000 C 
ENDBRANCH   5  20
TORSDOF 2
ENDMDL
MODEL 7
REMARK VINA RESULT:      -7.6      7.229      8.381
REMARK  Name = 
REMARK  3 active torsions:
REMARK  status: ('A' for Active; 'I' for Inactive)
REMARK    1  A    between atoms: C_1  and  C_2
REMARK    2  A    between atoms: N_8  and  C_9
REMARK    3  A    between atoms: C_13  and  C_15
REMARK                            x       y       z     vdW  Elec       q    Type
REMARK                         _______ _______ _______ _____ _____    ______ ____
ROOT
ATOM      1  C   UNL     1       0.385   9.463  20.293  0.00  0.00    +0.000 C 
ATOM      2  C   UNL     1       0.560   8.292  21.274  0.00  0.00    +0.000 C 
ATOM      3  C   UNL     1       1.953   7.742  20.995  0.00  0.00    +0.000 C 
ATOM      4  N   UNL     1       2.118   7.956  19.575  0.00  0.00    +0.000 N 
ATOM      5  C   UNL     1       2.734   7.177  18.615  0.00  0.00    +0.000 C 
ATOM      6  O   UNL     1       2.668   7.530  17.436  0.00  0.00    +0.000 OA
ATOM      7  C   UNL     1       1.360   9.130  19.148  0.00  0.00    +0.000 C 
ENDROOT
BRANCH   1  15
ATOM      8  C   UNL     1      -5.070  14.115  23.725  0.00  0.00    +0.000 C 
ATOM      9  C   UNL     1      -3.662  13.719  23.375  0.00  0.00    +0.000 A 
ATOM     10  C   UNL     1      -2.572  14.453  23.875  0.00  0.00    +0.000 A 
ATOM     11  C   UNL     1      -1.248  14.102  23.578  0.00  0.00    +0.000 A 
ATOM     12  C   UNL     1      -1.087  12.996  22.752  0.00  0.00    +0.000 A 
ATOM     13  O   UNL     1       0.085  12.453  22.318  0.00  0.00    +0.000 OA
ATOM     14  C   UNL     1      -0.306  11.420  21.515  0.00  0.00    +0.000 A 
ATOM     15  N   UNL     1       0.697  10.734  20.935  0.00  0.00    +0.000 N 
ATOM     16  N   UNL     1      -1.610  11.245  21.434  0.00  0.00    +0.000 NA
ATOM     17  C   UNL     1      -2.123  12.248  22.221  0.00  0.00    +0.000 A 
ATOM     18  C   UNL     1      -3.443  12.602  22.539  0.00  0.00    +0.000 A 
ATOM     19  H   UNL     1       1.577  10.785  21.435  0.00  0.00    +0.000 HD
ENDBRANCH   1  15
BRANCH   5  20
ATOM     20  C   UNL     1       3.381   5.936  18.968  0.00  0.00    +0.000 A 
ATOM     21  C   UNL     1       4.701   5.592  19.192  0.00  0.00    +0.000 A 
ATOM     22  N   UNL     1       4.846   4.244  19.407  0.00  0.00    +0.000 NA
ATOM     23  C   UNL     1       3.635   3.735  19.306  0.00  0.00    +0.000 A 
ATOM     24  N   UNL     1       2.721   4.727  19.076  0.00  0.00    +0.000 N 
ATOM     25  C   UNL     1       1.294   4.522  19.090  0.00  0.00    +0.000 C 
ATOM     26  C   UNL     1       0.867   3.115  18.701  0.00  0.00    +0.000 C 
ATOM     27  C   UNL     1       1.785   1.980  19.147  0.00  0.00    +0.000 C 
ATOM     28  C   UNL     1       3.255   2.305  19.429  0.00  0.00    +0.000 C 
ENDBRANCH   5  20
TORSDOF 2
ENDMDL
MODEL 8
REMARK VINA RESULT:      -7.5      5.496      8.232
REMARK  Name = 
REMARK  3 active torsions:
REMARK  status: ('A' for Active; 'I' for Inactive)
REMARK    1  A    between atoms: C_1  and  C_2
REMARK    2  A    between atoms: N_8  and  C_9
REMARK    3  A    between atoms: C_13  and  C_15
REMARK                            x       y       z     vdW  Elec       q    Type
REMARK                         _______ _______ _______ _____ _____    ______ ____
ROOT
ATOM      1  C   UNL     1       2.187   6.477  19.649  0.00  0.00    +0.000 C 
ATOM      2  C   UNL     1       1.793   7.126  18.312  0.00  0.00    +0.000 C 
ATOM      3  C   UNL     1       1.762   8.624  18.590  0.00  0.00    +0.000 C 
ATOM      4  N   UNL     1       1.322   8.700  19.965  0.00  0.00    +0.000 N 
ATOM      5  C   UNL     1       0.488   9.605  20.592  0.00  0.00    +0.000 C 
ATOM      6  O   UNL     1       0.183   9.409  21.770  0.00  0.00    +0.000 OA
ATOM      7  C   UNL     1       1.756   7.515  20.702  0.00  0.00    +0.000 C 
ENDROOT
BRANCH   1  15
ATOM      8  C   UNL     1       6.342   3.755  13.444  0.00  0.00    +0.000 C 
ATOM      9  C   UNL     1       6.201   4.297  14.840  0.00  0.00    +0.000 A 
ATOM     10  C   UNL     1       7.341   4.559  15.620  0.00  0.00    +0.000 A 
ATOM     11  C   UNL     1       7.242   5.076  16.919  0.00  0.00    +0.000 A 
ATOM     12  C   UNL     1       5.953   5.297  17.386  0.00  0.00    +0.000 A 
ATOM     13  O   UNL     1       5.587   5.789  18.603  0.00  0.00    +0.000 OA
ATOM     14  C   UNL     1       4.223   5.775  18.569  0.00  0.00    +0.000 A 
ATOM     15  N   UNL     1       3.618   6.200  19.694  0.00  0.00    +0.000 N 
ATOM     16  N   UNL     1       3.701   5.353  17.435  0.00  0.00    +0.000 NA
ATOM     17  C   UNL     1       4.797   5.042  16.667  0.00  0.00    +0.000 A 
ATOM     18  C   UNL     1       4.912   4.539  15.363  0.00  0.00    +0.000 A 
ATOM     19  H   UNL     1       4.182   6.827  20.257  0.00  0.00    +0.000 HD
ENDBRANCH   1  15
BRANCH   5  20
ATOM     20  C   UNL     1      -0.077  10.719  19.869  0.00  0.00    +0.000 A 
ATOM     21  C   UNL     1      -1.165  10.838  19.023  0.00  0.00    +0.000 A 
ATOM     22  N   UNL     1      -1.254  12.098  18.485  0.00  0.00    +0.000 NA
ATOM     23  C   UNL     1      -0.227  12.766  18.969  0.00  0.00    +0.000 A 
ATOM     24  N   UNL     1       0.486  11.980  19.832  0.00  0.00    +0.000 N 
ATOM     25  C   UNL     1       1.562  12.467  20.659  0.00  0.00    +0.000 C 
ATOM     26  C   UNL     1       2.303  13.658  20.072  0.00  0.00    +0.000 C 
ATOM     27  C   UNL     1       1.462  14.658  19.281  0.00  0.00    +0.000 C 
ATOM     28  C   UNL     1       0.145  14.172  18.669  0.00  0.00    +0.000 C 
ENDBRANCH   5  20
TORSDOF 2
ENDMDL
MODEL 9
REMARK VINA RESULT:      -7.5      8.688     10.435
REMARK  Name = 
REMARK  3 active torsions:
REMARK  status: ('A' for Active; 'I' for Inactive)
REMARK    1  A    between atoms: C_1  and  C_2
REMARK    2  A    between atoms: N_8  and  C_9
REMARK    3  A    between atoms: C_13  and  C_15
REMARK                            x       y       z     vdW  Elec       q    Type
REMARK                         _______ _______ _______ _____ _____    ______ ____
ROOT
ATOM      1  C   UNL     1      -0.438  10.384  19.196  0.00  0.00    +0.000 C 
ATOM      2  C   UNL     1      -1.239  11.654  18.865  0.00  0.00    +0.000 C 
ATOM      3  C   UNL     1      -0.801  12.682  19.901  0.00  0.00    +0.000 C 
ATOM      4  N   UNL     1      -0.538  11.882  21.075  0.00  0.00    +0.000 N 
ATOM      5  C   UNL     1      -0.766  12.147  22.412  0.00  0.00    +0.000 C 
ATOM      6  O   UNL     1      -0.537  11.261  23.237  0.00  0.00    +0.000 OA
ATOM      7  C   UNL     1      -0.096  10.544  20.689  0.00  0.00    +0.000 C 
ENDROOT
BRANCH   1  15
ATOM      8  C   UNL     1       4.541   4.189  19.343  0.00  0.00    +0.000 C 
ATOM      9  C   UNL     1       4.021   5.491  18.796  0.00  0.00    +0.000 A 
ATOM     10  C   UNL     1       4.607   6.065  17.654  0.00  0.00    +0.000 A 
ATOM     11  C   UNL     1       4.138   7.270  17.112  0.00  0.00    +0.000 A 
ATOM     12  C   UNL     1       3.073   7.860  17.782  0.00  0.00    +0.000 A 
ATOM     13  O   UNL     1       2.438   9.024  17.463  0.00  0.00    +0.000 OA
ATOM     14  C   UNL     1       1.503   9.170  18.446  0.00  0.00    +0.000 A 
ATOM     15  N   UNL     1       0.752  10.284  18.360  0.00  0.00    +0.000 N 
ATOM     16  N   UNL     1       1.470   8.193  19.330  0.00  0.00    +0.000 NA
ATOM     17  C   UNL     1       2.471   7.347  18.917  0.00  0.00    +0.000 A 
ATOM     18  C   UNL     1       2.941   6.133  19.440  0.00  0.00    +0.000 A 
ATOM     19  H   UNL     1       0.680  10.665  17.423  0.00  0.00    +0.000 HD
ENDBRANCH   1  15
BRANCH   5  20
ATOM     20  C   UNL     1      -1.330  13.407  22.834  0.00  0.00    +0.000 A 
ATOM     21  C   UNL     1      -0.767  14.605  23.230  0.00  0.00    +0.000 A 
ATOM     22  N   UNL     1      -1.720  15.503  23.643  0.00  0.00    +0.000 NA
ATOM     23  C   UNL     1      -2.874  14.878  23.525  0.00  0.00    +0.000 A 
ATOM     24  N   UNL     1      -2.683  13.625  23.009  0.00  0.00    +0.000 N 
ATOM     25  C   UNL     1      -3.757  12.755  22.597  0.00  0.00    +0.000 C 
ATOM     26  C   UNL     1      -5.058  12.977  23.353  0.00  0.00    +0.000 C 
ATOM     27  C   UNL     1      -5.377  14.418  23.745  0.00  0.00    +0.000 C 
ATOM     28  C   UNL     1      -4.216  15.409  23.871  0.00  0.00    +0.000 C 
ENDBRANCH   5  20
TORSDOF 2
ENDMDL
