MODEL 1
REMARK VINA RESULT:      -8.6      0.000      0.000
REMARK  Name = 
REMARK  6 active torsions:
REMARK  status: ('A' for Active; 'I' for Inactive)
REMARK    1  A    between atoms: C_1  and  C_2
REMARK    2  A    between atoms: C_6  and  C_7
REMARK    3  A    between atoms: C_7  and  O_8
REMARK    4  A    between atoms: O_8  and  C_9
REMARK    5  A    between atoms: C_14  and  C_15
REMARK    6  A    between atoms: N_17  and  C_18
REMARK                            x       y       z     vdW  Elec       q    Type
REMARK                         _______ _______ _______ _____ _____    ______ ____
ROOT
ATOM      1  C   UNL     1       2.855   7.540  18.190  0.00  0.00    +0.000 C 
ATOM      2  O   UNL     1       2.784   8.109  17.103  0.00  0.00    +0.000 OA
ATOM      3  N   UNL     1       3.698   6.483  18.479  0.00  0.00    +0.000 N 
ATOM      4  H   UNL     1       3.514   5.964  19.331  0.00  0.00    +0.000 HD
ENDROOT
BRANCH   3   5
ATOM      5  C   UNL     1       4.733   5.998  17.642  0.00  0.00    +0.000 A 
ATOM      6  C   UNL     1       6.089   6.252  17.931  0.00  0.00    +0.000 A 
ATOM      7  C   UNL     1       7.079   6.106  16.967  0.00  0.00    +0.000 A 
ATOM      8  C   UNL     1       6.700   5.507  15.799  0.00  0.00    +0.000 A 
ATOM      9  N   UNL     1       7.477   5.228  14.684  0.00  0.00    +0.000 N 
ATOM     10  C   UNL     1       6.726   4.392  13.847  0.00  0.00    +0.000 A 
ATOM     11  O   UNL     1       7.114   3.893  12.803  0.00  0.00    +0.000 OA
ATOM     12  N   UNL     1       5.454   4.263  14.425  0.00  0.00    +0.000 N 
ATOM     13  C   UNL     1       5.427   4.983  15.596  0.00  0.00    +0.000 A 
ATOM     14  C   UNL     1       4.395   5.281  16.477  0.00  0.00    +0.000 A 
ATOM     15  H   UNL     1       7.974   5.990  14.243  0.00  0.00    +0.000 HD
ATOM     16  H   UNL     1       4.736   3.688  14.031  0.00  0.00    +0.000 HD
ENDBRANCH   3   5
BRANCH   1  22
ATOM     17  C   UNL     1       1.599   7.416  20.472  0.00  0.00    +0.000 A 
ATOM     18  C   UNL     1       0.688   8.059  21.331  0.00  0.00    +0.000 A 
ATOM     19  C   UNL     1       0.204   9.343  21.060  0.00  0.00    +0.000 A 
ATOM     20  C   UNL     1       0.623  10.010  19.921  0.00  0.00    +0.000 A 
ATOM     21  C   UNL     1       1.493   9.374  19.044  0.00  0.00    +0.000 A 
ATOM     22  C   UNL     1       1.970   8.060  19.278  0.00  0.00    +0.000 A 
BRANCH  17  23
ATOM     23  O   UNL     1       1.967   6.171  20.915  0.00  0.00    +0.000 OA
BRANCH  23  24
ATOM     24  C   UNL     1       1.125   5.087  20.514  0.00  0.00    +0.000 C 
BRANCH  24  30
ATOM     25  C   UNL     1       4.835   1.812  20.346  0.00  0.00    +0.000 C 
ATOM     26  C   UNL     1       3.637   2.411  19.672  0.00  0.00    +0.000 A 
ATOM     27  C   UNL     1       3.252   2.051  18.379  0.00  0.00    +0.000 A 
ATOM     28  C   UNL     1       2.150   2.658  17.768  0.00  0.00    +0.000 A 
ATOM     29  C   UNL     1       1.414   3.631  18.442  0.00  0.00    +0.000 A 
ATOM     30  C   UNL     1       1.777   3.982  19.743  0.00  0.00    +0.000 A 
ATOM     31  C   UNL     1       2.904   3.389  20.337  0.00  0.00    +0.000 A 
ENDBRANCH  24  30
ENDBRANCH  23  24
ENDBRANCH  17  23
ENDBRANCH   1  22
TORSDOF 5
ENDMDL
MODEL 2
REMARK VINA RESULT:      -8.2      3.042      6.057
REMARK  Name = 
REMARK  6 active torsions:
REMARK  status: ('A' for Active; 'I' for Inactive)
REMARK    1  A    between atoms: C_1  and  C_2
REMARK    2  A    between atoms: C_6  and  C_7
REMARK    3  A    between atoms: C_7  and  O_8
REMARK    4  A    between atoms: O_8  and  C_9
REMARK    5  A    between atoms: C_14  and  C_15
REMARK    6  A    between atoms: N_17  and  C_18
REMARK                            x       y       z     vdW  Elec       q    Type
REMARK                         _______ _______ _______ _____ _____    ______ ____
ROOT
ATOM      1  C   UNL     1       1.879   8.393  18.654  0.00  0.00    +0.000 C 
ATOM      2  O   UNL     1       2.078   9.012  17.610  0.00  0.00    +0.000 OA
ATOM      3  N   UNL     1       2.248   7.081  18.882  0.00  0.00    +0.000 N 
ATOM      4  H   UNL     1       1.843   6.619  19.690  0.00  0.00    +0.000 HD
ENDROOT
BRANCH   3   5
ATOM      5  C   UNL     1       3.064   6.292  18.034  0.00  0.00    +0.000 A 
ATOM      6  C   UNL     1       2.764   4.937  17.780  0.00  0.00    +0.000 A 
ATOM      7  C   UNL     1       3.715   4.067  17.262  0.00  0.00    +0.000 A 
ATOM      8  C   UNL     1       4.875   4.634  16.819  0.00  0.00    +0.000 A 
ATOM      9  N   UNL     1       5.976   4.009  16.251  0.00  0.00    +0.000 N 
ATOM     10  C   UNL     1       6.806   5.012  15.730  0.00  0.00    +0.000 A 
ATOM     11  O   UNL     1       7.836   4.828  15.102  0.00  0.00    +0.000 OA
ATOM     12  N   UNL     1       6.240   6.244  16.088  0.00  0.00    +0.000 N 
ATOM     13  C   UNL     1       5.084   6.010  16.793  0.00  0.00    +0.000 A 
ATOM     14  C   UNL     1       4.220   6.864  17.467  0.00  0.00    +0.000 A 
ATOM     15  H   UNL     1       6.426   3.267  16.768  0.00  0.00    +0.000 HD
ATOM     16  H   UNL     1       6.632   7.122  15.808  0.00  0.00    +0.000 HD
ENDBRANCH   3   5
BRANCH   1  22
ATOM     17  C   UNL     1       0.484  10.347  19.670  0.00  0.00    +0.000 A 
ATOM     18  C   UNL     1      -0.011  10.927  20.853  0.00  0.00    +0.000 A 
ATOM     19  C   UNL     1       0.136  10.301  22.095  0.00  0.00    +0.000 A 
ATOM     20  C   UNL     1       0.782   9.079  22.177  0.00  0.00    +0.000 A 
ATOM     21  C   UNL     1       1.308   8.511  21.022  0.00  0.00    +0.000 A 
ATOM     22  C   UNL     1       1.203   9.143  19.758  0.00  0.00    +0.000 A 
BRANCH  17  23
ATOM     23  O   UNL     1       0.229  11.105  18.554  0.00  0.00    +0.000 OA
BRANCH  23  24
ATOM     24  C   UNL     1      -0.838  12.049  18.667  0.00  0.00    +0.000 C 
BRANCH  24  30
ATOM     25  C   UNL     1      -3.232  10.214  14.741  0.00  0.00    +0.000 C 
ATOM     26  C   UNL     1      -3.310  10.775  16.129  0.00  0.00    +0.000 A 
ATOM     27  C   UNL     1      -4.529  11.012  16.769  0.00  0.00    +0.000 A 
ATOM     28  C   UNL     1      -4.564  11.570  18.051  0.00  0.00    +0.000 A 
ATOM     29  C   UNL     1      -3.382  11.895  18.715  0.00  0.00    +0.000 A 
ATOM     30  C   UNL     1      -2.159  11.641  18.093  0.00  0.00    +0.000 A 
ATOM     31  C   UNL     1      -2.134  11.109  16.793  0.00  0.00    +0.000 A 
ENDBRANCH  24  30
ENDBRANCH  23  24
ENDBRANCH  17  23
ENDBRANCH   1  22
TORSDOF 5
ENDMDL
MODEL 3
REMARK VINA RESULT:      -8.1      2.337      6.645
REMARK  Name = 
REMARK  6 active torsions:
REMARK  status: ('A' for Active; 'I' for Inactive)
REMARK    1  A    between atoms: C_1  and  C_2
REMARK    2  A    between atoms: C_6  and  C_7
REMARK    3  A    between atoms: C_7  and  O_8
REMARK    4  A    between atoms: O_8  and  C_9
REMARK    5  A    between atoms: C_14  and  C_15
REMARK    6  A    between atoms: N_17  and  C_18
REMARK                            x       y       z     vdW  Elec       q    Type
REMARK                         _______ _______ _______ _____ _____    ______ ____
ROOT
ATOM      1  C   UNL     1       3.533   6.171  17.572  0.00  0.00    +0.000 C 
ATOM      2  O   UNL     1       2.629   5.354  17.742  0.00  0.00    +0.000 OA
ATOM      3  N   UNL     1       3.438   7.525  17.832  0.00  0.00    +0.000 N 
ATOM      4  H   UNL     1       4.166   8.121  17.453  0.00  0.00    +0.000 HD
ENDROOT
BRANCH   3   5
ATOM      5  C   UNL     1       2.363   8.167  18.496  0.00  0.00    +0.000 A 
ATOM      6  C   UNL     1       1.577   9.141  17.847  0.00  0.00    +0.000 A 
ATOM      7  C   UNL     1       0.774  10.022  18.560  0.00  0.00    +0.000 A 
ATOM      8  C   UNL     1       0.625   9.759  19.892  0.00  0.00    +0.000 A 
ATOM      9  N   UNL     1      -0.120  10.460  20.830  0.00  0.00    +0.000 N 
ATOM     10  C   UNL     1      -0.172   9.681  21.993  0.00  0.00    +0.000 A 
ATOM     11  O   UNL     1      -0.796   9.953  23.006  0.00  0.00    +0.000 OA
ATOM     12  N   UNL     1       0.639   8.558  21.775  0.00  0.00    +0.000 N 
ATOM     13  C   UNL     1       1.162   8.631  20.506  0.00  0.00    +0.000 A 
ATOM     14  C   UNL     1       2.103   7.852  19.844  0.00  0.00    +0.000 A 
ATOM     15  H   UNL     1       0.064  11.447  20.948  0.00  0.00    +0.000 HD
ATOM     16  H   UNL     1       0.747   7.827  22.452  0.00  0.00    +0.000 HD
ENDBRANCH   3   5
BRANCH   1  22
ATOM     17  C   UNL     1       5.833   4.965  17.792  0.00  0.00    +0.000 A 
ATOM     18  C   UNL     1       7.024   4.607  17.132  0.00  0.00    +0.000 A 
ATOM     19  C   UNL     1       7.203   4.838  15.765  0.00  0.00    +0.000 A 
ATOM     20  C   UNL     1       6.192   5.434  15.030  0.00  0.00    +0.000 A 
ATOM     21  C   UNL     1       5.025   5.825  15.675  0.00  0.00    +0.000 A 
ATOM     22  C   UNL     1       4.833   5.634  17.065  0.00  0.00    +0.000 A 
BRANCH  17  23
ATOM     23  O   UNL     1       5.843   4.643  19.127  0.00  0.00    +0.000 OA
BRANCH  23  24
ATOM     24  C   UNL     1       5.520   3.288  19.448  0.00  0.00    +0.000 C 
BRANCH  24  30
ATOM     25  C   UNL     1       1.120   2.777  21.658  0.00  0.00    +0.000 C 
ATOM     26  C   UNL     1       1.947   2.605  20.420  0.00  0.00    +0.000 A 
ATOM     27  C   UNL     1       1.446   1.996  19.267  0.00  0.00    +0.000 A 
ATOM     28  C   UNL     1       2.260   1.821  18.143  0.00  0.00    +0.000 A 
ATOM     29  C   UNL     1       3.584   2.254  18.153  0.00  0.00    +0.000 A 
ATOM     30  C   UNL     1       4.088   2.884  19.291  0.00  0.00    +0.000 A 
ATOM     31  C   UNL     1       3.273   3.029  20.427  0.00  0.00    +0.000 A 
ENDBRANCH  24  30
ENDBRANCH  23  24
ENDBRANCH  17  23
ENDBRANCH   1  22
TORSDOF 5
ENDMDL
MODEL 4
REMARK VINA RESULT:      -8.1      2.326      6.606
REMARK  Name = 
REMARK  6 active torsions:
REMARK  status: ('A' for Active; 'I' for Inactive)
REMARK    1  A    between atoms: C_1  and  C_2
REMARK    2  A    between atoms: C_6  and  C_7
REMARK    3  A    between atoms: C_7  and  O_8
REMARK    4  A    between atoms: O_8  and  C_9
REMARK    5  A    between atoms: C_14  and  C_15
REMARK    6  A    between atoms: N_17  and  C_18
REMARK                            x       y       z     vdW  Elec       q    Type
REMARK                         _______ _______ _______ _____ _____    ______ ____
ROOT
ATOM      1  C   UNL     1       4.441   6.864  17.539  0.00  0.00    +0.000 C 
ATOM      2  O   UNL     1       5.055   7.921  17.673  0.00  0.00    +0.000 OA
ATOM      3  N   UNL     1       3.180   6.609  18.045  0.00  0.00    +0.000 N 
ATOM      4  H   UNL     1       2.872   5.643  18.055  0.00  0.00    +0.000 HD
ENDROOT
BRANCH   3   5
ATOM      5  C   UNL     1       2.319   7.564  18.641  0.00  0.00    +0.000 A 
ATOM      6  C   UNL     1       1.754   8.613  17.888  0.00  0.00    +0.000 A 
ATOM      7  C   UNL     1       1.215   9.738  18.498  0.00  0.00    +0.000 A 
ATOM      8  C   UNL     1       1.073   9.679  19.855  0.00  0.00    +0.000 A 
ATOM      9  N   UNL     1       0.559  10.645  20.710  0.00  0.00    +0.000 N 
ATOM     10  C   UNL     1       0.382  10.045  21.964  0.00  0.00    +0.000 A 
ATOM     11  O   UNL     1      -0.111  10.578  22.945  0.00  0.00    +0.000 OA
ATOM     12  N   UNL     1       0.896   8.743  21.875  0.00  0.00    +0.000 N 
ATOM     13  C   UNL     1       1.359   8.538  20.598  0.00  0.00    +0.000 A 
ATOM     14  C   UNL     1       2.058   7.483  20.023  0.00  0.00    +0.000 A 
ATOM     15  H   UNL     1       0.975  11.566  20.698  0.00  0.00    +0.000 HD
ATOM     16  H   UNL     1       0.861   8.094  22.637  0.00  0.00    +0.000 HD
ENDBRANCH   3   5
BRANCH   1  22
ATOM     17  C   UNL     1       5.665   4.586  17.212  0.00  0.00    +0.000 A 
ATOM     18  C   UNL     1       6.329   3.746  16.299  0.00  0.00    +0.000 A 
ATOM     19  C   UNL     1       6.394   4.049  14.935  0.00  0.00    +0.000 A 
ATOM     20  C   UNL     1       5.794   5.202  14.458  0.00  0.00    +0.000 A 
ATOM     21  C   UNL     1       5.165   6.060  15.354  0.00  0.00    +0.000 A 
ATOM     22  C   UNL     1       5.117   5.793  16.744  0.00  0.00    +0.000 A 
BRANCH  17  23
ATOM     23  O   UNL     1       5.699   4.111  18.500  0.00  0.00    +0.000 OA
BRANCH  23  24
ATOM     24  C   UNL     1       4.947   2.920  18.749  0.00  0.00    +0.000 C 
BRANCH  24  30
ATOM     25  C   UNL     1       1.263   2.623  22.043  0.00  0.00    +0.000 C 
ATOM     26  C   UNL     1       1.686   2.895  20.631  0.00  0.00    +0.000 A 
ATOM     27  C   UNL     1       0.764   3.156  19.614  0.00  0.00    +0.000 A 
ATOM     28  C   UNL     1       1.194   3.369  18.300  0.00  0.00    +0.000 A 
ATOM     29  C   UNL     1       2.551   3.329  17.984  0.00  0.00    +0.000 A 
ATOM     30  C   UNL     1       3.481   3.092  18.996  0.00  0.00    +0.000 A 
ATOM     31  C   UNL     1       3.039   2.848  20.307  0.00  0.00    +0.000 A 
ENDBRANCH  24  30
ENDBRANCH  23  24
ENDBRANCH  17  23
ENDBRANCH   1  22
TORSDOF 5
ENDMDL
MODEL 5
REMARK VINA RESULT:      -8.1      2.324      6.708
REMARK  Name = 
REMARK  6 active torsions:
REMARK  status: ('A' for Active; 'I' for Inactive)
REMARK    1  A    between atoms: C_1  and  C_2
REMARK    2  A    between atoms: C_6  and  C_7
REMARK    3  A    between atoms: C_7  and  O_8
REMARK    4  A    between atoms: O_8  and  C_9
REMARK    5  A    between atoms: C_14  and  C_15
REMARK    6  A    between atoms: N_17  and  C_18
REMARK                            x       y       z     vdW  Elec       q    Type
REMARK                         _______ _______ _______ _____ _____    ______ ____
ROOT
ATOM      1  C   UNL     1       3.508   6.182  17.542  0.00  0.00    +0.000 C 
ATOM      2  O   UNL     1       2.535   5.429  17.555  0.00  0.00    +0.000 OA
ATOM      3  N   UNL     1       3.486   7.513  17.915  0.00  0.00    +0.000 N 
ATOM      4  H   UNL     1       4.288   8.079  17.660  0.00  0.00    +0.000 HD
ENDROOT
BRANCH   3   5
ATOM      5  C   UNL     1       2.401   8.181  18.535  0.00  0.00    +0.000 A 
ATOM      6  C   UNL     1       1.668   9.176  17.857  0.00  0.00    +0.000 A 
ATOM      7  C   UNL     1       0.858  10.075  18.539  0.00  0.00    +0.000 A 
ATOM      8  C   UNL     1       0.647   9.813  19.863  0.00  0.00    +0.000 A 
ATOM      9  N   UNL     1      -0.120  10.531  20.770  0.00  0.00    +0.000 N 
ATOM     10  C   UNL     1      -0.240   9.751  21.928  0.00  0.00    +0.000 A 
ATOM     11  O   UNL     1      -0.899  10.038  22.915  0.00  0.00    +0.000 OA
ATOM     12  N   UNL     1       0.551   8.608  21.741  0.00  0.00    +0.000 N 
ATOM     13  C   UNL     1       1.129   8.671  20.495  0.00  0.00    +0.000 A 
ATOM     14  C   UNL     1       2.076   7.869  19.871  0.00  0.00    +0.000 A 
ATOM     15  H   UNL     1       0.085  11.513  20.899  0.00  0.00    +0.000 HD
ATOM     16  H   UNL     1       0.611   7.874  22.419  0.00  0.00    +0.000 HD
ENDBRANCH   3   5
BRANCH   1  22
ATOM     17  C   UNL     1       5.748   4.896  17.894  0.00  0.00    +0.000 A 
ATOM     18  C   UNL     1       6.954   4.482  17.298  0.00  0.00    +0.000 A 
ATOM     19  C   UNL     1       7.206   4.678  15.936  0.00  0.00    +0.000 A 
ATOM     20  C   UNL     1       6.253   5.296  15.143  0.00  0.00    +0.000 A 
ATOM     21  C   UNL     1       5.073   5.743  15.725  0.00  0.00    +0.000 A 
ATOM     22  C   UNL     1       4.810   5.587  17.108  0.00  0.00    +0.000 A 
BRANCH  17  23
ATOM     23  O   UNL     1       5.683   4.602  19.233  0.00  0.00    +0.000 OA
BRANCH  23  24
ATOM     24  C   UNL     1       5.031   3.377  19.575  0.00  0.00    +0.000 C 
BRANCH  24  30
ATOM     25  C   UNL     1       0.439   1.813  18.586  0.00  0.00    +0.000 C 
ATOM     26  C   UNL     1       1.330   2.707  19.394  0.00  0.00    +0.000 A 
ATOM     27  C   UNL     1       0.824   3.633  20.308  0.00  0.00    +0.000 A 
ATOM     28  C   UNL     1       1.685   4.476  21.019  0.00  0.00    +0.000 A 
ATOM     29  C   UNL     1       3.064   4.403  20.829  0.00  0.00    +0.000 A 
ATOM     30  C   UNL     1       3.581   3.466  19.935  0.00  0.00    +0.000 A 
ATOM     31  C   UNL     1       2.707   2.644  19.203  0.00  0.00    +0.000 A 
ENDBRANCH  24  30
ENDBRANCH  23  24
ENDBRANCH  17  23
ENDBRANCH   1  22
TORSDOF 5
ENDMDL
MODEL 6
REMARK VINA RESULT:      -8.0      3.097      5.960
REMARK  Name = 
REMARK  6 active torsions:
REMARK  status: ('A' for Active; 'I' for Inactive)
REMARK    1  A    between atoms: C_1  and  C_2
REMARK    2  A    between atoms: C_6  and  C_7
REMARK    3  A    between atoms: C_7  and  O_8
REMARK    4  A    between atoms: O_8  and  C_9
REMARK    5  A    between atoms: C_14  and  C_15
REMARK    6  A    between atoms: N_17  and  C_18
REMARK                            x       y       z     vdW  Elec       q    Type
REMARK                         _______ _______ _______ _____ _____    ______ ____
ROOT
ATOM      1  C   UNL     1       1.639   7.870  20.179  0.00  0.00    +0.000 C 
ATOM      2  O   UNL     1       1.728   6.831  20.831  0.00  0.00    +0.000 OA
ATOM      3  N   UNL     1       2.240   8.093  18.954  0.00  0.00    +0.000 N 
ATOM      4  H   UNL     1       2.271   9.051  18.621  0.00  0.00    +0.000 HD
ENDROOT
BRANCH   3   5
ATOM      5  C   UNL     1       2.903   7.118  18.168  0.00  0.00    +0.000 A 
ATOM      6  C   UNL     1       2.449   5.784  18.118  0.00  0.00    +0.000 A 
ATOM      7  C   UNL     1       3.263   4.756  17.660  0.00  0.00    +0.000 A 
ATOM      8  C   UNL     1       4.437   5.131  17.071  0.00  0.00    +0.000 A 
ATOM      9  N   UNL     1       5.422   4.322  16.522  0.00  0.00    +0.000 N 
ATOM     10  C   UNL     1       6.305   5.152  15.821  0.00  0.00    +0.000 A 
ATOM     11  O   UNL     1       7.259   4.779  15.157  0.00  0.00    +0.000 OA
ATOM     12  N   UNL     1       5.896   6.475  16.046  0.00  0.00    +0.000 N 
ATOM     13  C   UNL     1       4.781   6.461  16.849  0.00  0.00    +0.000 A 
ATOM     14  C   UNL     1       4.063   7.483  17.456  0.00  0.00    +0.000 A 
ATOM     15  H   UNL     1       5.833   3.605  17.105  0.00  0.00    +0.000 HD
ATOM     16  H   UNL     1       6.352   7.262  15.626  0.00  0.00    +0.000 HD
ENDBRANCH   3   5
BRANCH   1  22
ATOM     17  C   UNL     1       0.171  10.023  20.089  0.00  0.00    +0.000 A 
ATOM     18  C   UNL     1      -0.525  10.984  20.845  0.00  0.00    +0.000 A 
ATOM     19  C   UNL     1      -0.671  10.865  22.231  0.00  0.00    +0.000 A 
ATOM     20  C   UNL     1      -0.121   9.778  22.889  0.00  0.00    +0.000 A 
ATOM     21  C   UNL     1       0.600   8.839  22.161  0.00  0.00    +0.000 A 
ATOM     22  C   UNL     1       0.792   8.956  20.762  0.00  0.00    +0.000 A 
BRANCH  17  23
ATOM     23  O   UNL     1       0.192  10.308  18.747  0.00  0.00    +0.000 OA
BRANCH  23  24
ATOM     24  C   UNL     1      -0.637   9.489  17.918  0.00  0.00    +0.000 C 
BRANCH  24  30
ATOM     25  C   UNL     1      -3.771  10.121  14.138  0.00  0.00    +0.000 C 
ATOM     26  C   UNL     1      -3.428  10.416  15.567  0.00  0.00    +0.000 A 
ATOM     27  C   UNL     1      -4.189  11.286  16.351  0.00  0.00    +0.000 A 
ATOM     28  C   UNL     1      -3.817  11.566  17.670  0.00  0.00    +0.000 A 
ATOM     29  C   UNL     1      -2.683  10.977  18.227  0.00  0.00    +0.000 A 
ATOM     30  C   UNL     1      -1.929  10.090  17.459  0.00  0.00    +0.000 A 
ATOM     31  C   UNL     1      -2.292   9.838  16.125  0.00  0.00    +0.000 A 
ENDBRANCH  24  30
ENDBRANCH  23  24
ENDBRANCH  17  23
ENDBRANCH   1  22
TORSDOF 5
ENDMDL
MODEL 7
REMARK VINA RESULT:      -7.9      2.664      6.848
REMARK  Name = 
REMARK  6 active torsions:
REMARK  status: ('A' for Active; 'I' for Inactive)
REMARK    1  A    between atoms: C_1  and  C_2
REMARK    2  A    between atoms: C_6  and  C_7
REMARK    3  A    between atoms: C_7  and  O_8
REMARK    4  A    between atoms: O_8  and  C_9
REMARK    5  A    between atoms: C_14  and  C_15
REMARK    6  A    between atoms: N_17  and  C_18
REMARK                            x       y       z     vdW  Elec       q    Type
REMARK                         _______ _______ _______ _____ _____    ______ ____
ROOT
ATOM      1  C   UNL     1       2.235   5.539  18.803  0.00  0.00    +0.000 C 
ATOM      2  O   UNL     1       1.505   5.736  17.833  0.00  0.00    +0.000 OA
ATOM      3  N   UNL     1       2.517   6.468  19.786  0.00  0.00    +0.000 N 
ATOM      4  H   UNL     1       3.292   6.264  20.408  0.00  0.00    +0.000 HD
ENDROOT
BRANCH   3   5
ATOM      5  C   UNL     1       1.884   7.726  19.942  0.00  0.00    +0.000 A 
ATOM      6  C   UNL     1       1.222   8.071  21.138  0.00  0.00    +0.000 A 
ATOM      7  C   UNL     1       0.310   9.118  21.189  0.00  0.00    +0.000 A 
ATOM      8  C   UNL     1       0.248   9.919  20.084  0.00  0.00    +0.000 A 
ATOM      9  N   UNL     1      -0.556  11.030  19.871  0.00  0.00    +0.000 N 
ATOM     10  C   UNL     1      -0.094  11.666  18.711  0.00  0.00    +0.000 A 
ATOM     11  O   UNL     1      -0.523  12.713  18.254  0.00  0.00    +0.000 OA
ATOM     12  N   UNL     1       0.925  10.864  18.177  0.00  0.00    +0.000 N 
ATOM     13  C   UNL     1       1.101   9.773  18.994  0.00  0.00    +0.000 A 
ATOM     14  C   UNL     1       1.883   8.632  18.863  0.00  0.00    +0.000 A 
ATOM     15  H   UNL     1      -1.556  10.923  19.967  0.00  0.00    +0.000 HD
ATOM     16  H   UNL     1       1.440  11.117  17.357  0.00  0.00    +0.000 HD
ENDBRANCH   3   5
BRANCH   1  22
ATOM     17  C   UNL     1       4.101   3.830  19.430  0.00  0.00    +0.000 A 
ATOM     18  C   UNL     1       4.506   2.483  19.380  0.00  0.00    +0.000 A 
ATOM     19  C   UNL     1       3.657   1.479  18.903  0.00  0.00    +0.000 A 
ATOM     20  C   UNL     1       2.384   1.805  18.466  0.00  0.00    +0.000 A 
ATOM     21  C   UNL     1       1.984   3.136  18.476  0.00  0.00    +0.000 A 
ATOM     22  C   UNL     1       2.837   4.175  18.921  0.00  0.00    +0.000 A 
BRANCH  17  23
ATOM     23  O   UNL     1       5.067   4.661  19.942  0.00  0.00    +0.000 OA
BRANCH  23  24
ATOM     24  C   UNL     1       6.137   4.999  19.057  0.00  0.00    +0.000 C 
BRANCH  24  30
ATOM     25  C   UNL     1       6.256   3.810  14.252  0.00  0.00    +0.000 C 
ATOM     26  C   UNL     1       5.869   4.803  15.306  0.00  0.00    +0.000 A 
ATOM     27  C   UNL     1       5.320   6.048  14.990  0.00  0.00    +0.000 A 
ATOM     28  C   UNL     1       5.005   6.964  15.999  0.00  0.00    +0.000 A 
ATOM     29  C   UNL     1       5.229   6.648  17.338  0.00  0.00    +0.000 A 
ATOM     30  C   UNL     1       5.756   5.399  17.665  0.00  0.00    +0.000 A 
ATOM     31  C   UNL     1       6.099   4.496  16.644  0.00  0.00    +0.000 A 
ENDBRANCH  24  30
ENDBRANCH  23  24
ENDBRANCH  17  23
ENDBRANCH   1  22
TORSDOF 5
ENDMDL
MODEL 8
REMARK VINA RESULT:      -7.9      2.787      5.939
REMARK  Name = 
REMARK  6 active torsions:
REMARK  status: ('A' for Active; 'I' for Inactive)
REMARK    1  A    between atoms: C_1  and  C_2
REMARK    2  A    between atoms: C_6  and  C_7
REMARK    3  A    between atoms: C_7  and  O_8
REMARK    4  A    between atoms: O_8  and  C_9
REMARK    5  A    between atoms: C_14  and  C_15
REMARK    6  A    between atoms: N_17  and  C_18
REMARK                            x       y       z     vdW  Elec       q    Type
REMARK                         _______ _______ _______ _____ _____    ______ ____
ROOT
ATOM      1  C   UNL     1       1.840   8.316  18.747  0.00  0.00    +0.000 C 
ATOM      2  O   UNL     1       1.838   8.856  17.642  0.00  0.00    +0.000 OA
ATOM      3  N   UNL     1       2.368   7.068  19.020  0.00  0.00    +0.000 N 
ATOM      4  H   UNL     1       2.121   6.645  19.908  0.00  0.00    +0.000 HD
ENDROOT
BRANCH   3   5
ATOM      5  C   UNL     1       3.143   6.286  18.129  0.00  0.00    +0.000 A 
ATOM      6  C   UNL     1       2.805   4.947  17.845  0.00  0.00    +0.000 A 
ATOM      7  C   UNL     1       3.721   4.070  17.277  0.00  0.00    +0.000 A 
ATOM      8  C   UNL     1       4.883   4.623  16.821  0.00  0.00    +0.000 A 
ATOM      9  N   UNL     1       5.955   3.989  16.207  0.00  0.00    +0.000 N 
ATOM     10  C   UNL     1       6.795   4.986  15.695  0.00  0.00    +0.000 A 
ATOM     11  O   UNL     1       7.804   4.797  15.035  0.00  0.00    +0.000 OA
ATOM     12  N   UNL     1       6.268   6.220  16.101  0.00  0.00    +0.000 N 
ATOM     13  C   UNL     1       5.124   5.993  16.829  0.00  0.00    +0.000 A 
ATOM     14  C   UNL     1       4.298   6.847  17.549  0.00  0.00    +0.000 A 
ATOM     15  H   UNL     1       6.399   3.221  16.692  0.00  0.00    +0.000 HD
ATOM     16  H   UNL     1       6.674   7.097  15.836  0.00  0.00    +0.000 HD
ENDBRANCH   3   5
BRANCH   1  22
ATOM     17  C   UNL     1       0.773  10.421  19.855  0.00  0.00    +0.000 A 
ATOM     18  C   UNL     1       0.312  10.993  21.055  0.00  0.00    +0.000 A 
ATOM     19  C   UNL     1       0.244  10.255  22.242  0.00  0.00    +0.000 A 
ATOM     20  C   UNL     1       0.638   8.928  22.249  0.00  0.00    +0.000 A 
ATOM     21  C   UNL     1       1.129   8.359  21.079  0.00  0.00    +0.000 A 
ATOM     22  C   UNL     1       1.240   9.096  19.874  0.00  0.00    +0.000 A 
BRANCH  17  23
ATOM     23  O   UNL     1       0.750  11.299  18.800  0.00  0.00    +0.000 OA
BRANCH  23  24
ATOM     24  C   UNL     1      -0.398  12.147  18.713  0.00  0.00    +0.000 C 
BRANCH  24  30
ATOM     25  C   UNL     1      -5.342  12.089  18.964  0.00  0.00    +0.000 C 
ATOM     26  C   UNL     1      -4.091  11.485  18.400  0.00  0.00    +0.000 A 
ATOM     27  C   UNL     1      -4.113  10.348  17.589  0.00  0.00    +0.000 A 
ATOM     28  C   UNL     1      -2.923   9.791  17.111  0.00  0.00    +0.000 A 
ATOM     29  C   UNL     1      -1.693  10.365  17.431  0.00  0.00    +0.000 A 
ATOM     30  C   UNL     1      -1.663  11.514  18.221  0.00  0.00    +0.000 A 
ATOM     31  C   UNL     1      -2.861  12.049  18.723  0.00  0.00    +0.000 A 
ENDBRANCH  24  30
ENDBRANCH  23  24
ENDBRANCH  17  23
ENDBRANCH   1  22
TORSDOF 5
ENDMDL
MODEL 9
REMARK VINA RESULT:      -7.9      3.219      6.258
REMARK  Name = 
REMARK  6 active torsions:
REMARK  status: ('A' for Active; 'I' for Inactive)
REMARK    1  A    between atoms: C_1  and  C_2
REMARK    2  A    between atoms: C_6  and  C_7
REMARK    3  A    between atoms: C_7  and  O_8
REMARK    4  A    between atoms: O_8  and  C_9
REMARK    5  A    between atoms: C_14  and  C_15
REMARK    6  A    between atoms: N_17  and  C_18
REMARK                            x       y       z     vdW  Elec       q    Type
REMARK                         _______ _______ _______ _____ _____    ______ ____
ROOT
ATOM      1  C   UNL     1       1.678   8.180  19.687  0.00  0.00    +0.000 C 
ATOM      2  O   UNL     1       1.931   8.598  18.558  0.00  0.00    +0.000 OA
ATOM      3  N   UNL     1       2.089   6.961  20.192  0.00  0.00    +0.000 N 
ATOM      4  H   UNL     1       1.642   6.639  21.044  0.00  0.00    +0.000 HD
ENDROOT
BRANCH   3   5
ATOM      5  C   UNL     1       3.006   6.076  19.574  0.00  0.00    +0.000 A 
ATOM      6  C   UNL     1       2.937   4.683  19.785  0.00  0.00    +0.000 A 
ATOM      7  C   UNL     1       4.009   3.849  19.494  0.00  0.00    +0.000 A 
ATOM      8  C   UNL     1       5.044   4.414  18.804  0.00  0.00    +0.000 A 
ATOM      9  N   UNL     1       6.222   3.817  18.377  0.00  0.00    +0.000 N 
ATOM     10  C   UNL     1       6.854   4.712  17.504  0.00  0.00    +0.000 A 
ATOM     11  O   UNL     1       7.884   4.497  16.886  0.00  0.00    +0.000 OA
ATOM     12  N   UNL     1       6.094   5.891  17.498  0.00  0.00    +0.000 N 
ATOM     13  C   UNL     1       5.013   5.722  18.330  0.00  0.00    +0.000 A 
ATOM     14  C   UNL     1       4.032   6.605  18.766  0.00  0.00    +0.000 A 
ATOM     15  H   UNL     1       6.804   3.361  19.065  0.00  0.00    +0.000 HD
ATOM     16  H   UNL     1       6.323   6.680  16.926  0.00  0.00    +0.000 HD
ENDBRANCH   3   5
BRANCH   1  22
ATOM     17  C   UNL     1       0.221  10.275  20.221  0.00  0.00    +0.000 A 
ATOM     18  C   UNL     1      -0.413  11.019  21.233  0.00  0.00    +0.000 A 
ATOM     19  C   UNL     1      -0.461  10.569  22.556  0.00  0.00    +0.000 A 
ATOM     20  C   UNL     1       0.127   9.361  22.893  0.00  0.00    +0.000 A 
ATOM     21  C   UNL     1       0.789   8.632  21.912  0.00  0.00    +0.000 A 
ATOM     22  C   UNL     1       0.881   9.084  20.572  0.00  0.00    +0.000 A 
BRANCH  17  23
ATOM     23  O   UNL     1       0.149  10.874  18.989  0.00  0.00    +0.000 OA
BRANCH  23  24
ATOM     24  C   UNL     1      -0.808  11.929  18.859  0.00  0.00    +0.000 C 
BRANCH  24  30
ATOM     25  C   UNL     1      -3.163  10.232  14.849  0.00  0.00    +0.000 C 
ATOM     26  C   UNL     1      -3.257  10.770  16.245  0.00  0.00    +0.000 A 
ATOM     27  C   UNL     1      -4.483  11.031  16.862  0.00  0.00    +0.000 A 
ATOM     28  C   UNL     1      -4.530  11.568  18.153  0.00  0.00    +0.000 A 
ATOM     29  C   UNL     1      -3.355  11.848  18.848  0.00  0.00    +0.000 A 
ATOM     30  C   UNL     1      -2.126  11.569  18.249  0.00  0.00    +0.000 A 
ATOM     31  C   UNL     1      -2.086  11.059  16.940  0.00  0.00    +0.000 A 
ENDBRANCH  24  30
ENDBRANCH  23  24
ENDBRANCH  17  23
ENDBRANCH   1  22
TORSDOF 5
ENDMDL
