MODEL 1
REMARK VINA RESULT:      -8.7      0.000      0.000
REMARK  Name = 
REMARK  4 active torsions:
REMARK  status: ('A' for Active; 'I' for Inactive)
REMARK    1  A    between atoms: C_2  and  C_3
REMARK    2  A    between atoms: C_7  and  N_8
REMARK    3  A    between atoms: N_18  and  C_19
REMARK    4  A    between atoms: C_19  and  C_20
REMARK                            x       y       z     vdW  Elec       q    Type
REMARK                         _______ _______ _______ _____ _____    ______ ____
ROOT
ATOM      1  O   UNL     1       2.277   9.632  17.185  0.00  0.00    +0.000 OA
ATOM      2  C   UNL     1       2.140   8.914  18.151  0.00  0.00    +0.000 C 
ATOM      3  N   UNL     1       1.444   9.286  19.311  0.00  0.00    +0.000 N 
ATOM      4  C   UNL     1       0.757  10.568  19.307  0.00  0.00    +0.000 C 
ATOM      5  C   UNL     1       1.105  11.355  20.580  0.00  0.00    +0.000 C 
ATOM      6  N   UNL     1       0.770  10.624  21.830  0.00  0.00    +0.000 NA
ATOM      7  C   UNL     1       1.571   9.383  21.818  0.00  0.00    +0.000 C 
ATOM      8  C   UNL     1       1.352   8.524  20.570  0.00  0.00    +0.000 C 
ENDROOT
BRANCH   2   9
ATOM      9  C   UNL     1       2.744   7.563  18.116  0.00  0.00    +0.000 A 
ATOM     10  C   UNL     1       3.965   7.368  17.463  0.00  0.00    +0.000 A 
ATOM     11  C   UNL     1       4.548   6.112  17.497  0.00  0.00    +0.000 A 
ATOM     12  C   UNL     1       3.942   5.084  18.224  0.00  0.00    +0.000 A 
ATOM     13  C   UNL     1       2.730   5.284  18.880  0.00  0.00    +0.000 A 
ATOM     14  C   UNL     1       2.110   6.483  18.724  0.00  0.00    +0.000 A 
BRANCH  13  15
ATOM     15  N   UNL     1       2.181   4.294  19.719  0.00  0.00    +0.000 N 
ATOM     16  C   UNL     1       2.302   4.304  21.156  0.00  0.00    +0.000 C 
ATOM     17  C   UNL     1       1.908   2.895  21.550  0.00  0.00    +0.000 C 
ATOM     18  C   UNL     1       0.941   2.466  20.461  0.00  0.00    +0.000 C 
ATOM     19  C   UNL     1       1.402   3.236  19.267  0.00  0.00    +0.000 C 
ATOM     20  O   UNL     1       1.058   2.963  18.120  0.00  0.00    +0.000 OA
ENDBRANCH  13  15
ENDBRANCH   2   9
BRANCH   6  21
ATOM     21  C   UNL     1      -0.663  10.296  21.980  0.00  0.00    +0.000 C 
BRANCH  21  22
ATOM     22  C   UNL     1      -1.627  11.462  22.096  0.00  0.00    +0.000 A 
ATOM     23  C   UNL     1      -2.022  12.208  20.955  0.00  0.00    +0.000 A 
ATOM     24  C   UNL     1      -2.946  13.258  21.054  0.00  0.00    +0.000 A 
ATOM     25  C   UNL     1      -3.523  13.491  22.276  0.00  0.00    +0.000 A 
ATOM     26  C   UNL     1      -3.202  12.731  23.386  0.00  0.00    +0.000 A 
ATOM     27  C   UNL     1      -2.230  11.744  23.326  0.00  0.00    +0.000 A 
ATOM     28  C   UNL     1      -4.070  13.105  24.517  0.00  0.00    +0.000 C 
ATOM     29  C   UNL     1      -4.920  14.196  23.860  0.00  0.00    +0.000 C 
ATOM     30  O   UNL     1      -4.478  14.441  22.507  0.00  0.00    +0.000 OA
ENDBRANCH  21  22
ENDBRANCH   6  21
TORSDOF 4
ENDMDL
MODEL 2
REMARK VINA RESULT:      -8.7      3.654      5.501
REMARK  Name = 
REMARK  4 active torsions:
REMARK  status: ('A' for Active; 'I' for Inactive)
REMARK    1  A    between atoms: C_2  and  C_3
REMARK    2  A    between atoms: C_7  and  N_8
REMARK    3  A    between atoms: N_18  and  C_19
REMARK    4  A    between atoms: C_19  and  C_20
REMARK                            x       y       z     vdW  Elec       q    Type
REMARK                         _______ _______ _______ _____ _____    ______ ____
ROOT
ATOM      1  O   UNL     1       1.748   5.935  21.121  0.00  0.00    +0.000 OA
ATOM      2  C   UNL     1       2.014   6.276  19.990  0.00  0.00    +0.000 C 
ATOM      3  N   UNL     1       1.944   7.601  19.533  0.00  0.00    +0.000 N 
ATOM      4  C   UNL     1       1.635   8.636  20.506  0.00  0.00    +0.000 C 
ATOM      5  C   UNL     1       0.518   9.546  19.971  0.00  0.00    +0.000 C 
ATOM      6  N   UNL     1       0.853  10.180  18.669  0.00  0.00    +0.000 NA
ATOM      7  C   UNL     1       1.057   9.080  17.706  0.00  0.00    +0.000 C 
ATOM      8  C   UNL     1       2.120   8.069  18.147  0.00  0.00    +0.000 C 
ENDROOT
BRANCH   2   9
ATOM      9  C   UNL     1       2.437   5.238  19.023  0.00  0.00    +0.000 A 
ATOM     10  C   UNL     1       1.529   4.252  18.625  0.00  0.00    +0.000 A 
ATOM     11  C   UNL     1       1.921   3.328  17.671  0.00  0.00    +0.000 A 
ATOM     12  C   UNL     1       3.184   3.430  17.082  0.00  0.00    +0.000 A 
ATOM     13  C   UNL     1       4.083   4.419  17.474  0.00  0.00    +0.000 A 
ATOM     14  C   UNL     1       3.729   5.231  18.505  0.00  0.00    +0.000 A 
BRANCH  13  15
ATOM     15  N   UNL     1       5.304   4.607  16.797  0.00  0.00    +0.000 N 
ATOM     16  C   UNL     1       5.400   4.940  15.397  0.00  0.00    +0.000 C 
ATOM     17  C   UNL     1       6.853   4.657  15.069  0.00  0.00    +0.000 C 
ATOM     18  C   UNL     1       7.578   4.898  16.380  0.00  0.00    +0.000 C 
ATOM     19  C   UNL     1       6.549   4.564  17.411  0.00  0.00    +0.000 C 
ATOM     20  O   UNL     1       6.824   4.362  18.591  0.00  0.00    +0.000 OA
ENDBRANCH  13  15
ENDBRANCH   2   9
BRANCH   6  21
ATOM     21  C   UNL     1       2.048  11.047  18.703  0.00  0.00    +0.000 C 
BRANCH  21  22
ATOM     22  C   UNL     1       1.814  12.545  18.611  0.00  0.00    +0.000 A 
ATOM     23  C   UNL     1       0.672  13.150  19.197  0.00  0.00    +0.000 A 
ATOM     24  C   UNL     1       0.477  14.538  19.149  0.00  0.00    +0.000 A 
ATOM     25  C   UNL     1       1.468  15.305  18.591  0.00  0.00    +0.000 A 
ATOM     26  C   UNL     1       2.619  14.740  18.075  0.00  0.00    +0.000 A 
ATOM     27  C   UNL     1       2.792  13.365  18.039  0.00  0.00    +0.000 A 
ATOM     28  C   UNL     1       3.562  15.800  17.676  0.00  0.00    +0.000 C 
ATOM     29  C   UNL     1       2.748  17.043  18.047  0.00  0.00    +0.000 C 
ATOM     30  O   UNL     1       1.438  16.670  18.528  0.00  0.00    +0.000 OA
ENDBRANCH  21  22
ENDBRANCH   6  21
TORSDOF 4
ENDMDL
MODEL 3
REMARK VINA RESULT:      -8.6      2.146      3.280
REMARK  Name = 
REMARK  4 active torsions:
REMARK  status: ('A' for Active; 'I' for Inactive)
REMARK    1  A    between atoms: C_2  and  C_3
REMARK    2  A    between atoms: C_7  and  N_8
REMARK    3  A    between atoms: N_18  and  C_19
REMARK    4  A    between atoms: C_19  and  C_20
REMARK                            x       y       z     vdW  Elec       q    Type
REMARK                         _______ _______ _______ _____ _____    ______ ____
ROOT
ATOM      1  O   UNL     1       1.975   9.045  17.446  0.00  0.00    +0.000 OA
ATOM      2  C   UNL     1       1.846   8.625  18.575  0.00  0.00    +0.000 C 
ATOM      3  N   UNL     1       1.185   9.320  19.600  0.00  0.00    +0.000 N 
ATOM      4  C   UNL     1       0.526  10.569  19.254  0.00  0.00    +0.000 C 
ATOM      5  C   UNL     1       0.920  11.667  20.254  0.00  0.00    +0.000 C 
ATOM      6  N   UNL     1       0.600  11.317  21.663  0.00  0.00    +0.000 NA
ATOM      7  C   UNL     1       1.374  10.100  21.980  0.00  0.00    +0.000 C 
ATOM      8  C   UNL     1       1.107   8.937  21.021  0.00  0.00    +0.000 C 
ENDROOT
BRANCH   2   9
ATOM      9  C   UNL     1       2.420   7.301  18.904  0.00  0.00    +0.000 A 
ATOM     10  C   UNL     1       1.738   6.450  19.779  0.00  0.00    +0.000 A 
ATOM     11  C   UNL     1       2.256   5.189  20.025  0.00  0.00    +0.000 A 
ATOM     12  C   UNL     1       3.409   4.769  19.356  0.00  0.00    +0.000 A 
ATOM     13  C   UNL     1       4.082   5.617  18.479  0.00  0.00    +0.000 A 
ATOM     14  C   UNL     1       3.632   6.893  18.354  0.00  0.00    +0.000 A 
BRANCH  13  15
ATOM     15  N   UNL     1       5.167   5.157  17.706  0.00  0.00    +0.000 N 
ATOM     16  C   UNL     1       5.103   4.949  16.280  0.00  0.00    +0.000 C 
ATOM     17  C   UNL     1       6.336   4.116  15.993  0.00  0.00    +0.000 C 
ATOM     18  C   UNL     1       7.320   4.533  17.071  0.00  0.00    +0.000 C 
ATOM     19  C   UNL     1       6.438   4.920  18.213  0.00  0.00    +0.000 C 
ATOM     20  O   UNL     1       6.849   5.049  19.363  0.00  0.00    +0.000 OA
ENDBRANCH  13  15
ENDBRANCH   2   9
BRANCH   6  21
ATOM     21  C   UNL     1      -0.835  11.082  21.922  0.00  0.00    +0.000 C 
BRANCH  21  22
ATOM     22  C   UNL     1      -1.578  12.149  22.706  0.00  0.00    +0.000 A 
ATOM     23  C   UNL     1      -2.868  11.904  23.244  0.00  0.00    +0.000 A 
ATOM     24  C   UNL     1      -3.537  12.873  24.004  0.00  0.00    +0.000 A 
ATOM     25  C   UNL     1      -2.871  14.039  24.286  0.00  0.00    +0.000 A 
ATOM     26  C   UNL     1      -1.587  14.269  23.828  0.00  0.00    +0.000 A 
ATOM     27  C   UNL     1      -0.941  13.357  23.006  0.00  0.00    +0.000 A 
ATOM     28  C   UNL     1      -1.070  15.527  24.395  0.00  0.00    +0.000 C 
ATOM     29  C   UNL     1      -2.274  15.961  25.237  0.00  0.00    +0.000 C 
ATOM     30  O   UNL     1      -3.377  15.045  25.060  0.00  0.00    +0.000 OA
ENDBRANCH  21  22
ENDBRANCH   6  21
TORSDOF 4
ENDMDL
MODEL 4
REMARK VINA RESULT:      -8.5      1.807      2.797
REMARK  Name = 
REMARK  4 active torsions:
REMARK  status: ('A' for Active; 'I' for Inactive)
REMARK    1  A    between atoms: C_2  and  C_3
REMARK    2  A    between atoms: C_7  and  N_8
REMARK    3  A    between atoms: N_18  and  C_19
REMARK    4  A    between atoms: C_19  and  C_20
REMARK                            x       y       z     vdW  Elec       q    Type
REMARK                         _______ _______ _______ _____ _____    ______ ____
ROOT
ATOM      1  O   UNL     1       2.253   9.184  17.165  0.00  0.00    +0.000 OA
ATOM      2  C   UNL     1       2.020   8.522  18.152  0.00  0.00    +0.000 C 
ATOM      3  N   UNL     1       1.353   9.012  19.285  0.00  0.00    +0.000 N 
ATOM      4  C   UNL     1       0.820  10.363  19.225  0.00  0.00    +0.000 C 
ATOM      5  C   UNL     1       1.237  11.150  20.478  0.00  0.00    +0.000 C 
ATOM      6  N   UNL     1       0.800  10.507  21.745  0.00  0.00    +0.000 NA
ATOM      7  C   UNL     1       1.453   9.183  21.790  0.00  0.00    +0.000 C 
ATOM      8  C   UNL     1       1.154   8.311  20.567  0.00  0.00    +0.000 C 
ENDROOT
BRANCH   2   9
ATOM      9  C   UNL     1       2.463   7.110  18.174  0.00  0.00    +0.000 A 
ATOM     10  C   UNL     1       1.530   6.089  17.970  0.00  0.00    +0.000 A 
ATOM     11  C   UNL     1       1.972   4.777  17.929  0.00  0.00    +0.000 A 
ATOM     12  C   UNL     1       3.339   4.501  18.031  0.00  0.00    +0.000 A 
ATOM     13  C   UNL     1       4.266   5.521  18.226  0.00  0.00    +0.000 A 
ATOM     14  C   UNL     1       3.799   6.786  18.396  0.00  0.00    +0.000 A 
BRANCH  13  15
ATOM     15  N   UNL     1       5.652   5.264  18.200  0.00  0.00    +0.000 N 
ATOM     16  C   UNL     1       6.522   5.449  19.335  0.00  0.00    +0.000 C 
ATOM     17  C   UNL     1       7.908   5.419  18.722  0.00  0.00    +0.000 C 
ATOM     18  C   UNL     1       7.750   4.529  17.502  0.00  0.00    +0.000 C 
ATOM     19  C   UNL     1       6.325   4.736  17.105  0.00  0.00    +0.000 C 
ATOM     20  O   UNL     1       5.881   4.411  16.007  0.00  0.00    +0.000 OA
ENDBRANCH  13  15
ENDBRANCH   2   9
BRANCH   6  21
ATOM     21  C   UNL     1      -0.662  10.352  21.878  0.00  0.00    +0.000 C 
BRANCH  21  22
ATOM     22  C   UNL     1      -1.473  11.618  22.088  0.00  0.00    +0.000 A 
ATOM     23  C   UNL     1      -1.614  12.583  21.055  0.00  0.00    +0.000 A 
ATOM     24  C   UNL     1      -2.396  13.732  21.233  0.00  0.00    +0.000 A 
ATOM     25  C   UNL     1      -3.094  13.857  22.408  0.00  0.00    +0.000 A 
ATOM     26  C   UNL     1      -3.023  12.896  23.399  0.00  0.00    +0.000 A 
ATOM     27  C   UNL     1      -2.190  11.794  23.275  0.00  0.00    +0.000 A 
ATOM     28  C   UNL     1      -3.975  13.216  24.477  0.00  0.00    +0.000 C 
ATOM     29  C   UNL     1      -4.582  14.512  23.928  0.00  0.00    +0.000 C 
ATOM     30  O   UNL     1      -3.937  14.894  22.694  0.00  0.00    +0.000 OA
ENDBRANCH  21  22
ENDBRANCH   6  21
TORSDOF 4
ENDMDL
MODEL 5
REMARK VINA RESULT:      -8.5      3.446      5.060
REMARK  Name = 
REMARK  4 active torsions:
REMARK  status: ('A' for Active; 'I' for Inactive)
REMARK    1  A    between atoms: C_2  and  C_3
REMARK    2  A    between atoms: C_7  and  N_8
REMARK    3  A    between atoms: N_18  and  C_19
REMARK    4  A    between atoms: C_19  and  C_20
REMARK                            x       y       z     vdW  Elec       q    Type
REMARK                         _______ _______ _______ _____ _____    ______ ____
ROOT
ATOM      1  O   UNL     1       1.673   5.995  21.076  0.00  0.00    +0.000 OA
ATOM      2  C   UNL     1       1.984   6.337  19.956  0.00  0.00    +0.000 C 
ATOM      3  N   UNL     1       1.958   7.666  19.507  0.00  0.00    +0.000 N 
ATOM      4  C   UNL     1       1.640   8.702  20.477  0.00  0.00    +0.000 C 
ATOM      5  C   UNL     1       0.561   9.639  19.911  0.00  0.00    +0.000 C 
ATOM      6  N   UNL     1       0.953  10.275  18.626  0.00  0.00    +0.000 NA
ATOM      7  C   UNL     1       1.166   9.176  17.662  0.00  0.00    +0.000 C 
ATOM      8  C   UNL     1       2.191   8.140  18.131  0.00  0.00    +0.000 C 
ENDROOT
BRANCH   2   9
ATOM      9  C   UNL     1       2.417   5.297  18.996  0.00  0.00    +0.000 A 
ATOM     10  C   UNL     1       1.508   4.317  18.583  0.00  0.00    +0.000 A 
ATOM     11  C   UNL     1       1.910   3.391  17.635  0.00  0.00    +0.000 A 
ATOM     12  C   UNL     1       3.184   3.484  17.069  0.00  0.00    +0.000 A 
ATOM     13  C   UNL     1       4.083   4.466  17.477  0.00  0.00    +0.000 A 
ATOM     14  C   UNL     1       3.717   5.281  18.501  0.00  0.00    +0.000 A 
BRANCH  13  15
ATOM     15  N   UNL     1       5.317   4.645  16.820  0.00  0.00    +0.000 N 
ATOM     16  C   UNL     1       5.439   4.999  15.427  0.00  0.00    +0.000 C 
ATOM     17  C   UNL     1       6.892   4.699  15.116  0.00  0.00    +0.000 C 
ATOM     18  C   UNL     1       7.602   4.907  16.442  0.00  0.00    +0.000 C 
ATOM     19  C   UNL     1       6.552   4.572  17.452  0.00  0.00    +0.000 C 
ATOM     20  O   UNL     1       6.805   4.348  18.633  0.00  0.00    +0.000 OA
ENDBRANCH  13  15
ENDBRANCH   2   9
BRANCH   6  21
ATOM     21  C   UNL     1       2.165  11.115  18.706  0.00  0.00    +0.000 C 
BRANCH  21  22
ATOM     22  C   UNL     1       1.958  12.619  18.748  0.00  0.00    +0.000 A 
ATOM     23  C   UNL     1       2.901  13.509  18.169  0.00  0.00    +0.000 A 
ATOM     24  C   UNL     1       2.691  14.895  18.171  0.00  0.00    +0.000 A 
ATOM     25  C   UNL     1       1.504  15.363  18.674  0.00  0.00    +0.000 A 
ATOM     26  C   UNL     1       0.544  14.506  19.181  0.00  0.00    +0.000 A 
ATOM     27  C   UNL     1       0.768  13.141  19.264  0.00  0.00    +0.000 A 
ATOM     28  C   UNL     1      -0.676  15.264  19.517  0.00  0.00    +0.000 C 
ATOM     29  C   UNL     1      -0.237  16.677  19.121  0.00  0.00    +0.000 C 
ATOM     30  O   UNL     1       1.141  16.680  18.688  0.00  0.00    +0.000 OA
ENDBRANCH  21  22
ENDBRANCH   6  21
TORSDOF 4
ENDMDL
MODEL 6
REMARK VINA RESULT:      -8.5      1.800      2.994
REMARK  Name = 
REMARK  4 active torsions:
REMARK  status: ('A' for Active; 'I' for Inactive)
REMARK    1  A    between atoms: C_2  and  C_3
REMARK    2  A    between atoms: C_7  and  N_8
REMARK    3  A    between atoms: N_18  and  C_19
REMARK    4  A    between atoms: C_19  and  C_20
REMARK                            x       y       z     vdW  Elec       q    Type
REMARK                         _______ _______ _______ _____ _____    ______ ____
ROOT
ATOM      1  O   UNL     1       2.216   9.112  17.199  0.00  0.00    +0.000 OA
ATOM      2  C   UNL     1       1.985   8.458  18.193  0.00  0.00    +0.000 C 
ATOM      3  N   UNL     1       1.324   8.959  19.324  0.00  0.00    +0.000 N 
ATOM      4  C   UNL     1       0.792  10.310  19.254  0.00  0.00    +0.000 C 
ATOM      5  C   UNL     1       1.214  11.108  20.499  0.00  0.00    +0.000 C 
ATOM      6  N   UNL     1       0.782  10.476  21.773  0.00  0.00    +0.000 NA
ATOM      7  C   UNL     1       1.432   9.151  21.827  0.00  0.00    +0.000 C 
ATOM      8  C   UNL     1       1.129   8.269  20.612  0.00  0.00    +0.000 C 
ENDROOT
BRANCH   2   9
ATOM      9  C   UNL     1       2.427   7.046  18.225  0.00  0.00    +0.000 A 
ATOM     10  C   UNL     1       1.476   6.027  18.340  0.00  0.00    +0.000 A 
ATOM     11  C   UNL     1       1.901   4.709  18.303  0.00  0.00    +0.000 A 
ATOM     12  C   UNL     1       3.252   4.420  18.094  0.00  0.00    +0.000 A 
ATOM     13  C   UNL     1       4.195   5.438  17.972  0.00  0.00    +0.000 A 
ATOM     14  C   UNL     1       3.778   6.719  18.144  0.00  0.00    +0.000 A 
BRANCH  13  15
ATOM     15  N   UNL     1       5.534   5.156  17.634  0.00  0.00    +0.000 N 
ATOM     16  C   UNL     1       6.010   5.042  16.277  0.00  0.00    +0.000 C 
ATOM     17  C   UNL     1       7.361   4.373  16.436  0.00  0.00    +0.000 C 
ATOM     18  C   UNL     1       7.834   4.822  17.807  0.00  0.00    +0.000 C 
ATOM     19  C   UNL     1       6.561   5.028  18.561  0.00  0.00    +0.000 C 
ATOM     20  O   UNL     1       6.514   5.123  19.785  0.00  0.00    +0.000 OA
ENDBRANCH  13  15
ENDBRANCH   2   9
BRANCH   6  21
ATOM     21  C   UNL     1      -0.681  10.324  21.913  0.00  0.00    +0.000 C 
BRANCH  21  22
ATOM     22  C   UNL     1      -1.491  11.595  22.088  0.00  0.00    +0.000 A 
ATOM     23  C   UNL     1      -1.743  12.465  20.995  0.00  0.00    +0.000 A 
ATOM     24  C   UNL     1      -2.527  13.618  21.147  0.00  0.00    +0.000 A 
ATOM     25  C   UNL     1      -3.116  13.837  22.366  0.00  0.00    +0.000 A 
ATOM     26  C   UNL     1      -2.938  12.965  23.424  0.00  0.00    +0.000 A 
ATOM     27  C   UNL     1      -2.100  11.865  23.318  0.00  0.00    +0.000 A 
ATOM     28  C   UNL     1      -3.793  13.368  24.554  0.00  0.00    +0.000 C 
ATOM     29  C   UNL     1      -4.471  14.605  23.957  0.00  0.00    +0.000 C 
ATOM     30  O   UNL     1      -3.949  14.885  22.640  0.00  0.00    +0.000 OA
ENDBRANCH  21  22
ENDBRANCH   6  21
TORSDOF 4
ENDMDL
MODEL 7
REMARK VINA RESULT:      -8.2      2.052      3.136
REMARK  Name = 
REMARK  4 active torsions:
REMARK  status: ('A' for Active; 'I' for Inactive)
REMARK    1  A    between atoms: C_2  and  C_3
REMARK    2  A    between atoms: C_7  and  N_8
REMARK    3  A    between atoms: N_18  and  C_19
REMARK    4  A    between atoms: C_19  and  C_20
REMARK                            x       y       z     vdW  Elec       q    Type
REMARK                         _______ _______ _______ _____ _____    ______ ____
ROOT
ATOM      1  O   UNL     1       1.648   8.561  17.837  0.00  0.00    +0.000 OA
ATOM      2  C   UNL     1       1.643   8.247  19.007  0.00  0.00    +0.000 C 
ATOM      3  N   UNL     1       1.046   9.010  20.022  0.00  0.00    +0.000 N 
ATOM      4  C   UNL     1       0.299  10.193  19.627  0.00  0.00    +0.000 C 
ATOM      5  C   UNL     1       0.730  11.397  20.481  0.00  0.00    +0.000 C 
ATOM      6  N   UNL     1       0.556  11.171  21.940  0.00  0.00    +0.000 NA
ATOM      7  C   UNL     1       1.414  10.022  22.292  0.00  0.00    +0.000 C 
ATOM      8  C   UNL     1       1.117   8.762  21.473  0.00  0.00    +0.000 C 
ENDROOT
BRANCH   2   9
ATOM      9  C   UNL     1       2.308   6.983  19.400  0.00  0.00    +0.000 A 
ATOM     10  C   UNL     1       1.586   6.012  20.101  0.00  0.00    +0.000 A 
ATOM     11  C   UNL     1       2.204   4.809  20.402  0.00  0.00    +0.000 A 
ATOM     12  C   UNL     1       3.505   4.565  19.956  0.00  0.00    +0.000 A 
ATOM     13  C   UNL     1       4.218   5.532  19.251  0.00  0.00    +0.000 A 
ATOM     14  C   UNL     1       3.642   6.751  19.081  0.00  0.00    +0.000 A 
BRANCH  13  15
ATOM     15  N   UNL     1       5.477   5.246  18.688  0.00  0.00    +0.000 N 
ATOM     16  C   UNL     1       6.725   5.412  19.391  0.00  0.00    +0.000 C 
ATOM     17  C   UNL     1       7.760   5.354  18.285  0.00  0.00    +0.000 C 
ATOM     18  C   UNL     1       7.121   4.468  17.231  0.00  0.00    +0.000 C 
ATOM     19  C   UNL     1       5.658   4.704  17.421  0.00  0.00    +0.000 C 
ATOM     20  O   UNL     1       4.814   4.389  16.586  0.00  0.00    +0.000 OA
ENDBRANCH  13  15
ENDBRANCH   2   9
BRANCH   6  21
ATOM     21  C   UNL     1      -0.836  10.906  22.355  0.00  0.00    +0.000 C 
BRANCH  21  22
ATOM     22  C   UNL     1      -1.605  12.064  22.965  0.00  0.00    +0.000 A 
ATOM     23  C   UNL     1      -2.943  11.905  23.413  0.00  0.00    +0.000 A 
ATOM     24  C   UNL     1      -3.640  12.962  24.014  0.00  0.00    +0.000 A 
ATOM     25  C   UNL     1      -2.962  14.134  24.235  0.00  0.00    +0.000 A 
ATOM     26  C   UNL     1      -1.639  14.286  23.866  0.00  0.00    +0.000 A 
ATOM     27  C   UNL     1      -0.958  13.281  23.196  0.00  0.00    +0.000 A 
ATOM     28  C   UNL     1      -1.130  15.583  24.348  0.00  0.00    +0.000 C 
ATOM     29  C   UNL     1      -2.384  16.128  25.038  0.00  0.00    +0.000 C 
ATOM     30  O   UNL     1      -3.497  15.225  24.860  0.00  0.00    +0.000 OA
ENDBRANCH  21  22
ENDBRANCH   6  21
TORSDOF 4
ENDMDL
MODEL 8
REMARK VINA RESULT:      -8.2      2.477     10.026
REMARK  Name = 
REMARK  4 active torsions:
REMARK  status: ('A' for Active; 'I' for Inactive)
REMARK    1  A    between atoms: C_2  and  C_3
REMARK    2  A    between atoms: C_7  and  N_8
REMARK    3  A    between atoms: N_18  and  C_19
REMARK    4  A    between atoms: C_19  and  C_20
REMARK                            x       y       z     vdW  Elec       q    Type
REMARK                         _______ _______ _______ _____ _____    ______ ____
ROOT
ATOM      1  O   UNL     1       0.867   9.836  18.437  0.00  0.00    +0.000 OA
ATOM      2  C   UNL     1       1.055   9.171  19.431  0.00  0.00    +0.000 C 
ATOM      3  N   UNL     1       1.820   7.995  19.455  0.00  0.00    +0.000 N 
ATOM      4  C   UNL     1       2.512   7.614  18.235  0.00  0.00    +0.000 C 
ATOM      5  C   UNL     1       2.244   6.134  17.917  0.00  0.00    +0.000 C 
ATOM      6  N   UNL     1       2.647   5.217  19.017  0.00  0.00    +0.000 NA
ATOM      7  C   UNL     1       1.838   5.594  20.194  0.00  0.00    +0.000 C 
ATOM      8  C   UNL     1       1.980   7.066  20.589  0.00  0.00    +0.000 C 
ENDROOT
BRANCH   2   9
ATOM      9  C   UNL     1       0.442   9.616  20.703  0.00  0.00    +0.000 A 
ATOM     10  C   UNL     1       0.691   8.901  21.879  0.00  0.00    +0.000 A 
ATOM     11  C   UNL     1       0.164   9.369  23.070  0.00  0.00    +0.000 A 
ATOM     12  C   UNL     1      -0.553  10.569  23.089  0.00  0.00    +0.000 A 
ATOM     13  C   UNL     1      -0.792  11.283  21.918  0.00  0.00    +0.000 A 
ATOM     14  C   UNL     1      -0.380  10.739  20.743  0.00  0.00    +0.000 A 
BRANCH  13  15
ATOM     15  N   UNL     1      -1.400  12.554  21.948  0.00  0.00    +0.000 N 
ATOM     16  C   UNL     1      -2.819  12.767  21.800  0.00  0.00    +0.000 C 
ATOM     17  C   UNL     1      -2.922  14.253  21.520  0.00  0.00    +0.000 C 
ATOM     18  C   UNL     1      -1.719  14.845  22.233  0.00  0.00    +0.000 C 
ATOM     19  C   UNL     1      -0.716  13.738  22.195  0.00  0.00    +0.000 C 
ATOM     20  O   UNL     1       0.480  13.908  22.418  0.00  0.00    +0.000 OA
ENDBRANCH  13  15
ENDBRANCH   2   9
BRANCH   6  21
ATOM     21  C   UNL     1       4.083   5.266  19.356  0.00  0.00    +0.000 C 
BRANCH  21  22
ATOM     22  C   UNL     1       5.059   5.418  18.203  0.00  0.00    +0.000 A 
ATOM     23  C   UNL     1       6.299   6.087  18.371  0.00  0.00    +0.000 A 
ATOM     24  C   UNL     1       7.219   6.191  17.318  0.00  0.00    +0.000 A 
ATOM     25  C   UNL     1       6.922   5.552  16.141  0.00  0.00    +0.000 A 
ATOM     26  C   UNL     1       5.749   4.838  15.980  0.00  0.00    +0.000 A 
ATOM     27  C   UNL     1       4.790   4.793  16.981  0.00  0.00    +0.000 A 
ATOM     28  C   UNL     1       5.759   4.145  14.680  0.00  0.00    +0.000 C 
ATOM     29  C   UNL     1       7.122   4.592  14.142  0.00  0.00    +0.000 C 
ATOM     30  O   UNL     1       7.749   5.521  15.053  0.00  0.00    +0.000 OA
ENDBRANCH  21  22
ENDBRANCH   6  21
TORSDOF 4
ENDMDL
MODEL 9
REMARK VINA RESULT:      -8.2      3.402      5.358
REMARK  Name = 
REMARK  4 active torsions:
REMARK  status: ('A' for Active; 'I' for Inactive)
REMARK    1  A    between atoms: C_2  and  C_3
REMARK    2  A    between atoms: C_7  and  N_8
REMARK    3  A    between atoms: N_18  and  C_19
REMARK    4  A    between atoms: C_19  and  C_20
REMARK                            x       y       z     vdW  Elec       q    Type
REMARK                         _______ _______ _______ _____ _____    ______ ____
ROOT
ATOM      1  O   UNL     1       1.112   5.756  21.280  0.00  0.00    +0.000 OA
ATOM      2  C   UNL     1       1.616   6.411  20.395  0.00  0.00    +0.000 C 
ATOM      3  N   UNL     1       1.454   7.797  20.255  0.00  0.00    +0.000 N 
ATOM      4  C   UNL     1       0.723   8.501  21.297  0.00  0.00    +0.000 C 
ATOM      5  C   UNL     1      -0.341   9.415  20.667  0.00  0.00    +0.000 C 
ATOM      6  N   UNL     1       0.227  10.403  19.713  0.00  0.00    +0.000 NA
ATOM      7  C   UNL     1       0.868   9.625  18.634  0.00  0.00    +0.000 C 
ATOM      8  C   UNL     1       1.922   8.635  19.136  0.00  0.00    +0.000 C 
ENDROOT
BRANCH   2   9
ATOM      9  C   UNL     1       2.455   5.714  19.394  0.00  0.00    +0.000 A 
ATOM     10  C   UNL     1       1.867   4.794  18.519  0.00  0.00    +0.000 A 
ATOM     11  C   UNL     1       2.654   4.201  17.546  0.00  0.00    +0.000 A 
ATOM     12  C   UNL     1       3.996   4.569  17.417  0.00  0.00    +0.000 A 
ATOM     13  C   UNL     1       4.576   5.491  18.285  0.00  0.00    +0.000 A 
ATOM     14  C   UNL     1       3.822   5.961  19.313  0.00  0.00    +0.000 A 
BRANCH  13  15
ATOM     15  N   UNL     1       5.888   5.962  18.080  0.00  0.00    +0.000 N 
ATOM     16  C   UNL     1       6.985   5.690  18.976  0.00  0.00    +0.000 C 
ATOM     17  C   UNL     1       8.040   6.693  18.551  0.00  0.00    +0.000 C 
ATOM     18  C   UNL     1       7.763   6.913  17.074  0.00  0.00    +0.000 C 
ATOM     19  C   UNL     1       6.292   6.679  16.960  0.00  0.00    +0.000 C 
ATOM     20  O   UNL     1       5.631   7.029  15.986  0.00  0.00    +0.000 OA
ENDBRANCH  13  15
ENDBRANCH   2   9
BRANCH   6  21
ATOM     21  C   UNL     1       1.205  11.335  20.310  0.00  0.00    +0.000 C 
BRANCH  21  22
ATOM     22  C   UNL     1       1.317  12.712  19.681  0.00  0.00    +0.000 A 
ATOM     23  C   UNL     1       0.338  13.712  19.916  0.00  0.00    +0.000 A 
ATOM     24  C   UNL     1       0.462  14.997  19.370  0.00  0.00    +0.000 A 
ATOM     25  C   UNL     1       1.605  15.287  18.668  0.00  0.00    +0.000 A 
ATOM     26  C   UNL     1       2.601  14.347  18.485  0.00  0.00    +0.000 A 
ATOM     27  C   UNL     1       2.459  13.047  18.946  0.00  0.00    +0.000 A 
ATOM     28  C   UNL     1       3.762  14.970  17.825  0.00  0.00    +0.000 C 
ATOM     29  C   UNL     1       3.249  16.404  17.665  0.00  0.00    +0.000 C 
ATOM     30  O   UNL     1       1.885  16.511  18.129  0.00  0.00    +0.000 OA
ENDBRANCH  21  22
ENDBRANCH   6  21
TORSDOF 4
ENDMDL
