MODEL 1
REMARK VINA RESULT:      -8.6      0.000      0.000
REMARK  Name = 
REMARK  6 active torsions:
REMARK  status: ('A' for Active; 'I' for Inactive)
REMARK    1  A    between atoms: C_2  and  C_16
REMARK    2  A    between atoms: N_3  and  C_4
REMARK    3  A    between atoms: C_4  and  C_5
REMARK    4  A    between atoms: C_5  and  C_6
REMARK    5  A    between atoms: N_20  and  C_21
REMARK    6  A    between atoms: C_21  and  C_22
REMARK                            x       y       z     vdW  Elec       q    Type
REMARK                         _______ _______ _______ _____ _____    ______ ____
ROOT
ATOM      1  O   UNL     1       0.017   9.735  19.833  0.00  0.00    +0.000 OA
ATOM      2  C   UNL     1      -0.120   9.929  18.630  0.00  0.00    +0.000 C 
ATOM      3  N   UNL     1       0.902   9.772  17.707  0.00  0.00    +0.000 N 
ATOM      4  H   UNL     1       0.792  10.209  16.798  0.00  0.00    +0.000 HD
ENDROOT
BRANCH   2   5
ATOM      5  C   UNL     1      -1.416  10.379  18.092  0.00  0.00    +0.000 A 
ATOM      6  C   UNL     1      -1.993   9.791  16.969  0.00  0.00    +0.000 A 
ATOM      7  C   UNL     1      -3.216  10.269  16.516  0.00  0.00    +0.000 A 
ATOM      8  C   UNL     1      -3.865  11.302  17.197  0.00  0.00    +0.000 A 
ATOM      9  N   UNL     1      -5.121  11.653  16.735  0.00  0.00    +0.000 N 
ATOM     10  N   UNL     1      -3.330  11.862  18.299  0.00  0.00    +0.000 NA
ATOM     11  C   UNL     1      -2.121  11.394  18.724  0.00  0.00    +0.000 A 
ATOM     12  H   UNL     1      -5.125  11.914  15.758  0.00  0.00    +0.000 HD
BRANCH   9  13
ATOM     13  C   UNL     1      -6.020  12.438  17.552  0.00  0.00    +0.000 C 
BRANCH  13  14
ATOM     14  C   UNL     1      -7.004  11.456  18.123  0.00  0.00    +0.000 C 
ATOM     15  C   UNL     1      -7.333  11.477  19.601  0.00  0.00    +0.000 C 
ATOM     16  C   UNL     1      -6.590  10.312  19.012  0.00  0.00    +0.000 C 
ENDBRANCH  13  14
ENDBRANCH   9  13
ENDBRANCH   2   5
BRANCH   3  17
ATOM     17  C   UNL     1       2.245   9.430  18.150  0.00  0.00    +0.000 C 
BRANCH  17  18
ATOM     18  C   UNL     1       2.731   8.102  17.577  0.00  0.00    +0.000 C 
BRANCH  18  19
ATOM     19  C   UNL     1       2.355   6.950  18.471  0.00  0.00    +0.000 A 
ATOM     20  C   UNL     1       2.225   7.130  19.844  0.00  0.00    +0.000 A 
ATOM     21  C   UNL     1       1.894   6.030  20.630  0.00  0.00    +0.000 A 
ATOM     22  C   UNL     1       1.716   4.776  20.036  0.00  0.00    +0.000 A 
ATOM     23  C   UNL     1       1.393   3.636  20.794  0.00  0.00    +0.000 A 
ATOM     24  C   UNL     1       1.234   2.398  20.172  0.00  0.00    +0.000 A 
ATOM     25  C   UNL     1       1.383   2.300  18.794  0.00  0.00    +0.000 A 
ATOM     26  C   UNL     1       1.697   3.438  18.044  0.00  0.00    +0.000 A 
ATOM     27  C   UNL     1       1.869   4.682  18.639  0.00  0.00    +0.000 A 
ATOM     28  N   UNL     1       2.182   5.746  17.875  0.00  0.00    +0.000 NA
ENDBRANCH  18  19
ENDBRANCH  17  18
ENDBRANCH   3  17
TORSDOF 6
ENDMDL
MODEL 2
REMARK VINA RESULT:      -8.4      3.061      5.986
REMARK  Name = 
REMARK  6 active torsions:
REMARK  status: ('A' for Active; 'I' for Inactive)
REMARK    1  A    between atoms: C_2  and  C_16
REMARK    2  A    between atoms: N_3  and  C_4
REMARK    3  A    between atoms: C_4  and  C_5
REMARK    4  A    between atoms: C_5  and  C_6
REMARK    5  A    between atoms: N_20  and  C_21
REMARK    6  A    between atoms: C_21  and  C_22
REMARK                            x       y       z     vdW  Elec       q    Type
REMARK                         _______ _______ _______ _____ _____    ______ ____
ROOT
ATOM      1  O   UNL     1       2.492   4.715  21.470  0.00  0.00    +0.000 OA
ATOM      2  C   UNL     1       2.189   4.967  20.308  0.00  0.00    +0.000 C 
ATOM      3  N   UNL     1       1.992   3.996  19.340  0.00  0.00    +0.000 N 
ATOM      4  H   UNL     1       2.019   4.283  18.367  0.00  0.00    +0.000 HD
ENDROOT
BRANCH   2   5
ATOM      5  C   UNL     1       2.041   6.365  19.865  0.00  0.00    +0.000 A 
ATOM      6  C   UNL     1       2.445   6.784  18.601  0.00  0.00    +0.000 A 
ATOM      7  C   UNL     1       2.277   8.119  18.252  0.00  0.00    +0.000 A 
ATOM      8  C   UNL     1       1.686   9.013  19.148  0.00  0.00    +0.000 A 
ATOM      9  N   UNL     1       1.471  10.299  18.687  0.00  0.00    +0.000 N 
ATOM     10  N   UNL     1       1.268   8.614  20.365  0.00  0.00    +0.000 NA
ATOM     11  C   UNL     1       1.452   7.304  20.701  0.00  0.00    +0.000 A 
ATOM     12  H   UNL     1       2.316  10.748  18.358  0.00  0.00    +0.000 HD
BRANCH   9  13
ATOM     13  C   UNL     1       0.565  11.193  19.375  0.00  0.00    +0.000 C 
BRANCH  13  14
ATOM     14  C   UNL     1      -0.599  11.378  18.444  0.00  0.00    +0.000 C 
ATOM     15  C   UNL     1      -2.008  11.465  18.992  0.00  0.00    +0.000 C 
ATOM     16  C   UNL     1      -1.597  10.285  18.161  0.00  0.00    +0.000 C 
ENDBRANCH  13  14
ENDBRANCH   9  13
ENDBRANCH   2   5
BRANCH   3  17
ATOM     17  C   UNL     1       2.214   2.593  19.651  0.00  0.00    +0.000 C 
BRANCH  17  18
ATOM     18  C   UNL     1       3.563   2.086  19.148  0.00  0.00    +0.000 C 
BRANCH  18  19
ATOM     19  C   UNL     1       4.316   3.169  18.420  0.00  0.00    +0.000 A 
ATOM     20  C   UNL     1       4.069   3.424  17.076  0.00  0.00    +0.000 A 
ATOM     21  C   UNL     1       4.805   4.422  16.443  0.00  0.00    +0.000 A 
ATOM     22  C   UNL     1       5.777   5.132  17.156  0.00  0.00    +0.000 A 
ATOM     23  C   UNL     1       6.551   6.139  16.553  0.00  0.00    +0.000 A 
ATOM     24  C   UNL     1       7.520   6.819  17.289  0.00  0.00    +0.000 A 
ATOM     25  C   UNL     1       7.708   6.504  18.629  0.00  0.00    +0.000 A 
ATOM     26  C   UNL     1       6.932   5.506  19.226  0.00  0.00    +0.000 A 
ATOM     27  C   UNL     1       5.964   4.807  18.514  0.00  0.00    +0.000 A 
ATOM     28  N   UNL     1       5.249   3.847  19.130  0.00  0.00    +0.000 NA
ENDBRANCH  18  19
ENDBRANCH  17  18
ENDBRANCH   3  17
TORSDOF 6
ENDMDL
MODEL 3
REMARK VINA RESULT:      -8.2      4.070      6.381
REMARK  Name = 
REMARK  6 active torsions:
REMARK  status: ('A' for Active; 'I' for Inactive)
REMARK    1  A    between atoms: C_2  and  C_16
REMARK    2  A    between atoms: N_3  and  C_4
REMARK    3  A    between atoms: C_4  and  C_5
REMARK    4  A    between atoms: C_5  and  C_6
REMARK    5  A    between atoms: N_20  and  C_21
REMARK    6  A    between atoms: C_21  and  C_22
REMARK                            x       y       z     vdW  Elec       q    Type
REMARK                         _______ _______ _______ _____ _____    ______ ____
ROOT
ATOM      1  O   UNL     1       2.446   5.015  21.338  0.00  0.00    +0.000 OA
ATOM      2  C   UNL     1       2.153   5.186  20.159  0.00  0.00    +0.000 C 
ATOM      3  N   UNL     1       1.933   4.150  19.266  0.00  0.00    +0.000 N 
ATOM      4  H   UNL     1       1.971   4.361  18.275  0.00  0.00    +0.000 HD
ENDROOT
BRANCH   2   5
ATOM      5  C   UNL     1       2.042   6.550  19.611  0.00  0.00    +0.000 A 
ATOM      6  C   UNL     1       2.411   6.850  18.303  0.00  0.00    +0.000 A 
ATOM      7  C   UNL     1       2.283   8.159  17.854  0.00  0.00    +0.000 A 
ATOM      8  C   UNL     1       1.765   9.145  18.696  0.00  0.00    +0.000 A 
ATOM      9  N   UNL     1       1.583  10.399  18.141  0.00  0.00    +0.000 N 
ATOM     10  N   UNL     1       1.380   8.862  19.956  0.00  0.00    +0.000 NA
ATOM     11  C   UNL     1       1.526   7.576  20.389  0.00  0.00    +0.000 A 
ATOM     12  H   UNL     1       2.430  10.784  17.746  0.00  0.00    +0.000 HD
BRANCH   9  13
ATOM     13  C   UNL     1       0.742  11.383  18.788  0.00  0.00    +0.000 C 
BRANCH  13  14
ATOM     14  C   UNL     1       1.658  12.514  19.157  0.00  0.00    +0.000 C 
ATOM     15  C   UNL     1       1.203  13.949  18.992  0.00  0.00    +0.000 C 
ATOM     16  C   UNL     1       2.304  13.406  18.128  0.00  0.00    +0.000 C 
ENDBRANCH  13  14
ENDBRANCH   9  13
ENDBRANCH   2   5
BRANCH   3  17
ATOM     17  C   UNL     1       2.118   2.769  19.685  0.00  0.00    +0.000 C 
BRANCH  17  18
ATOM     18  C   UNL     1       3.436   2.177  19.192  0.00  0.00    +0.000 C 
BRANCH  18  19
ATOM     19  C   UNL     1       4.256   3.206  18.458  0.00  0.00    +0.000 A 
ATOM     20  C   UNL     1       4.072   3.420  17.096  0.00  0.00    +0.000 A 
ATOM     21  C   UNL     1       4.867   4.369  16.459  0.00  0.00    +0.000 A 
ATOM     22  C   UNL     1       5.835   5.070  17.186  0.00  0.00    +0.000 A 
ATOM     23  C   UNL     1       6.668   6.027  16.580  0.00  0.00    +0.000 A 
ATOM     24  C   UNL     1       7.631   6.700  17.332  0.00  0.00    +0.000 A 
ATOM     25  C   UNL     1       7.754   6.428  18.689  0.00  0.00    +0.000 A 
ATOM     26  C   UNL     1       6.919   5.480  19.288  0.00  0.00    +0.000 A 
ATOM     27  C   UNL     1       5.956   4.789  18.562  0.00  0.00    +0.000 A 
ATOM     28  N   UNL     1       5.183   3.877  19.181  0.00  0.00    +0.000 NA
ENDBRANCH  18  19
ENDBRANCH  17  18
ENDBRANCH   3  17
TORSDOF 6
ENDMDL
MODEL 4
REMARK VINA RESULT:      -8.1      5.423      9.596
REMARK  Name = 
REMARK  6 active torsions:
REMARK  status: ('A' for Active; 'I' for Inactive)
REMARK    1  A    between atoms: C_2  and  C_16
REMARK    2  A    between atoms: N_3  and  C_4
REMARK    3  A    between atoms: C_4  and  C_5
REMARK    4  A    between atoms: C_5  and  C_6
REMARK    5  A    between atoms: N_20  and  C_21
REMARK    6  A    between atoms: C_21  and  C_22
REMARK                            x       y       z     vdW  Elec       q    Type
REMARK                         _______ _______ _______ _____ _____    ______ ____
ROOT
ATOM      1  O   UNL     1       5.378   3.878  15.816  0.00  0.00    +0.000 OA
ATOM      2  C   UNL     1       5.466   4.129  17.014  0.00  0.00    +0.000 C 
ATOM      3  N   UNL     1       4.819   3.401  17.999  0.00  0.00    +0.000 N 
ATOM      4  H   UNL     1       4.718   3.827  18.914  0.00  0.00    +0.000 HD
ENDROOT
BRANCH   2   5
ATOM      5  C   UNL     1       6.272   5.274  17.475  0.00  0.00    +0.000 A 
ATOM      6  C   UNL     1       7.297   5.125  18.406  0.00  0.00    +0.000 A 
ATOM      7  C   UNL     1       8.014   6.249  18.798  0.00  0.00    +0.000 A 
ATOM      8  C   UNL     1       7.725   7.499  18.243  0.00  0.00    +0.000 A 
ATOM      9  N   UNL     1       8.547   8.546  18.617  0.00  0.00    +0.000 N 
ATOM     10  N   UNL     1       6.753   7.651  17.322  0.00  0.00    +0.000 NA
ATOM     11  C   UNL     1       6.047   6.542  16.958  0.00  0.00    +0.000 A 
ATOM     12  H   UNL     1       8.581   8.685  19.618  0.00  0.00    +0.000 HD
BRANCH   9  13
ATOM     13  C   UNL     1       8.576   9.776  17.856  0.00  0.00    +0.000 C 
BRANCH  13  14
ATOM     14  C   UNL     1       9.712  10.576  18.429  0.00  0.00    +0.000 C 
ATOM     15  C   UNL     1       9.435  11.843  19.211  0.00  0.00    +0.000 C 
ATOM     16  C   UNL     1      10.122  11.917  17.878  0.00  0.00    +0.000 C 
ENDBRANCH  13  14
ENDBRANCH   9  13
ENDBRANCH   2   5
BRANCH   3  17
ATOM     17  C   UNL     1       3.919   2.316  17.639  0.00  0.00    +0.000 C 
BRANCH  17  18
ATOM     18  C   UNL     1       2.457   2.753  17.607  0.00  0.00    +0.000 C 
BRANCH  18  19
ATOM     19  C   UNL     1       2.222   3.942  18.502  0.00  0.00    +0.000 A 
ATOM     20  C   UNL     1       1.874   3.768  19.836  0.00  0.00    +0.000 A 
ATOM     21  C   UNL     1       1.648   4.898  20.617  0.00  0.00    +0.000 A 
ATOM     22  C   UNL     1       1.760   6.172  20.050  0.00  0.00    +0.000 A 
ATOM     23  C   UNL     1       1.529   7.339  20.799  0.00  0.00    +0.000 A 
ATOM     24  C   UNL     1       1.637   8.594  20.199  0.00  0.00    +0.000 A 
ATOM     25  C   UNL     1       1.988   8.684  18.858  0.00  0.00    +0.000 A 
ATOM     26  C   UNL     1       2.223   7.520  18.119  0.00  0.00    +0.000 A 
ATOM     27  C   UNL     1       2.115   6.257  18.689  0.00  0.00    +0.000 A 
ATOM     28  N   UNL     1       2.341   5.165  17.934  0.00  0.00    +0.000 NA
ENDBRANCH  18  19
ENDBRANCH  17  18
ENDBRANCH   3  17
TORSDOF 6
ENDMDL
MODEL 5
REMARK VINA RESULT:      -7.9      7.343     10.873
REMARK  Name = 
REMARK  6 active torsions:
REMARK  status: ('A' for Active; 'I' for Inactive)
REMARK    1  A    between atoms: C_2  and  C_16
REMARK    2  A    between atoms: N_3  and  C_4
REMARK    3  A    between atoms: C_4  and  C_5
REMARK    4  A    between atoms: C_5  and  C_6
REMARK    5  A    between atoms: N_20  and  C_21
REMARK    6  A    between atoms: C_21  and  C_22
REMARK                            x       y       z     vdW  Elec       q    Type
REMARK                         _______ _______ _______ _____ _____    ______ ____
ROOT
ATOM      1  O   UNL     1       7.687   6.390  16.182  0.00  0.00    +0.000 OA
ATOM      2  C   UNL     1       7.050   6.404  17.231  0.00  0.00    +0.000 C 
ATOM      3  N   UNL     1       7.326   7.260  18.285  0.00  0.00    +0.000 N 
ATOM      4  H   UNL     1       6.948   7.027  19.197  0.00  0.00    +0.000 HD
ENDROOT
BRANCH   2   5
ATOM      5  C   UNL     1       5.936   5.460  17.436  0.00  0.00    +0.000 A 
ATOM      6  C   UNL     1       5.207   4.938  16.371  0.00  0.00    +0.000 A 
ATOM      7  C   UNL     1       4.169   4.055  16.640  0.00  0.00    +0.000 A 
ATOM      8  C   UNL     1       3.884   3.679  17.955  0.00  0.00    +0.000 A 
ATOM      9  N   UNL     1       2.898   2.725  18.126  0.00  0.00    +0.000 N 
ATOM     10  N   UNL     1       4.599   4.157  18.992  0.00  0.00    +0.000 NA
ATOM     11  C   UNL     1       5.607   5.035  18.716  0.00  0.00    +0.000 A 
ATOM     12  H   UNL     1       2.014   2.991  17.712  0.00  0.00    +0.000 HD
BRANCH   9  13
ATOM     13  C   UNL     1       2.765   2.009  19.376  0.00  0.00    +0.000 C 
BRANCH  13  14
ATOM     14  C   UNL     1       1.471   2.482  19.974  0.00  0.00    +0.000 C 
ATOM     15  C   UNL     1       1.343   3.898  20.495  0.00  0.00    +0.000 C 
ATOM     16  C   UNL     1       1.301   2.739  21.449  0.00  0.00    +0.000 C 
ENDBRANCH  13  14
ENDBRANCH   9  13
ENDBRANCH   2   5
BRANCH   3  17
ATOM     17  C   UNL     1       8.469   8.158  18.220  0.00  0.00    +0.000 C 
BRANCH  17  18
ATOM     18  C   UNL     1       8.079   9.574  17.805  0.00  0.00    +0.000 C 
BRANCH  18  19
ATOM     19  C   UNL     1       8.974  10.599  18.450  0.00  0.00    +0.000 A 
ATOM     20  C   UNL     1       9.497  10.386  19.720  0.00  0.00    +0.000 A 
ATOM     21  C   UNL     1      10.304  11.371  20.281  0.00  0.00    +0.000 A 
ATOM     22  C   UNL     1      10.560  12.551  19.573  0.00  0.00    +0.000 A 
ATOM     23  C   UNL     1      11.359  13.577  20.107  0.00  0.00    +0.000 A 
ATOM     24  C   UNL     1      11.584  14.745  19.380  0.00  0.00    +0.000 A 
ATOM     25  C   UNL     1      11.024  14.884  18.116  0.00  0.00    +0.000 A 
ATOM     26  C   UNL     1      10.235  13.857  17.587  0.00  0.00    +0.000 A 
ATOM     27  C   UNL     1       9.988  12.686  18.293  0.00  0.00    +0.000 A 
ATOM     28  N   UNL     1       9.213  11.730  17.745  0.00  0.00    +0.000 NA
ENDBRANCH  18  19
ENDBRANCH  17  18
ENDBRANCH   3  17
TORSDOF 6
ENDMDL
MODEL 6
REMARK VINA RESULT:      -7.9      5.525      9.499
REMARK  Name = 
REMARK  6 active torsions:
REMARK  status: ('A' for Active; 'I' for Inactive)
REMARK    1  A    between atoms: C_2  and  C_16
REMARK    2  A    between atoms: N_3  and  C_4
REMARK    3  A    between atoms: C_4  and  C_5
REMARK    4  A    between atoms: C_5  and  C_6
REMARK    5  A    between atoms: N_20  and  C_21
REMARK    6  A    between atoms: C_21  and  C_22
REMARK                            x       y       z     vdW  Elec       q    Type
REMARK                         _______ _______ _______ _____ _____    ______ ____
ROOT
ATOM      1  O   UNL     1       5.322   3.372  19.651  0.00  0.00    +0.000 OA
ATOM      2  C   UNL     1       5.287   3.878  18.534  0.00  0.00    +0.000 C 
ATOM      3  N   UNL     1       4.586   3.337  17.469  0.00  0.00    +0.000 N 
ATOM      4  H   UNL     1       4.826   3.649  16.534  0.00  0.00    +0.000 HD
ENDROOT
BRANCH   2   5
ATOM      5  C   UNL     1       6.039   5.115  18.255  0.00  0.00    +0.000 A 
ATOM      6  C   UNL     1       5.693   5.968  17.210  0.00  0.00    +0.000 A 
ATOM      7  C   UNL     1       6.449   7.115  17.004  0.00  0.00    +0.000 A 
ATOM      8  C   UNL     1       7.518   7.417  17.851  0.00  0.00    +0.000 A 
ATOM      9  N   UNL     1       8.157   8.624  17.634  0.00  0.00    +0.000 N 
ATOM     10  N   UNL     1       7.847   6.614  18.881  0.00  0.00    +0.000 NA
ATOM     11  C   UNL     1       7.106   5.482  19.063  0.00  0.00    +0.000 A 
ATOM     12  H   UNL     1       8.509   8.722  16.690  0.00  0.00    +0.000 HD
BRANCH   9  13
ATOM     13  C   UNL     1       9.020   9.200  18.641  0.00  0.00    +0.000 C 
BRANCH  13  14
ATOM     14  C   UNL     1       9.089  10.666  18.321  0.00  0.00    +0.000 C 
ATOM     15  C   UNL     1      10.425  11.378  18.286  0.00  0.00    +0.000 C 
ATOM     16  C   UNL     1       9.425  11.710  19.355  0.00  0.00    +0.000 C 
ENDBRANCH  13  14
ENDBRANCH   9  13
ENDBRANCH   2   5
BRANCH   3  17
ATOM     17  C   UNL     1       3.896   2.065  17.615  0.00  0.00    +0.000 C 
BRANCH  17  18
ATOM     18  C   UNL     1       2.411   2.235  17.929  0.00  0.00    +0.000 C 
BRANCH  18  19
ATOM     19  C   UNL     1       2.166   3.469  18.756  0.00  0.00    +0.000 A 
ATOM     20  C   UNL     1       1.764   3.366  20.083  0.00  0.00    +0.000 A 
ATOM     21  C   UNL     1       1.531   4.536  20.800  0.00  0.00    +0.000 A 
ATOM     22  C   UNL     1       1.688   5.779  20.177  0.00  0.00    +0.000 A 
ATOM     23  C   UNL     1       1.452   6.985  20.861  0.00  0.00    +0.000 A 
ATOM     24  C   UNL     1       1.607   8.207  20.207  0.00  0.00    +0.000 A 
ATOM     25  C   UNL     1       2.009   8.226  18.877  0.00  0.00    +0.000 A 
ATOM     26  C   UNL     1       2.250   7.024  18.204  0.00  0.00    +0.000 A 
ATOM     27  C   UNL     1       2.096   5.793  18.829  0.00  0.00    +0.000 A 
ATOM     28  N   UNL     1       2.329   4.662  18.136  0.00  0.00    +0.000 NA
ENDBRANCH  18  19
ENDBRANCH  17  18
ENDBRANCH   3  17
TORSDOF 6
ENDMDL
MODEL 7
REMARK VINA RESULT:      -7.8      7.216      9.666
REMARK  Name = 
REMARK  6 active torsions:
REMARK  status: ('A' for Active; 'I' for Inactive)
REMARK    1  A    between atoms: C_2  and  C_16
REMARK    2  A    between atoms: N_3  and  C_4
REMARK    3  A    between atoms: C_4  and  C_5
REMARK    4  A    between atoms: C_5  and  C_6
REMARK    5  A    between atoms: N_20  and  C_21
REMARK    6  A    between atoms: C_21  and  C_22
REMARK                            x       y       z     vdW  Elec       q    Type
REMARK                         _______ _______ _______ _____ _____    ______ ____
ROOT
ATOM      1  O   UNL     1       7.538   6.567  16.422  0.00  0.00    +0.000 OA
ATOM      2  C   UNL     1       7.299   5.374  16.263  0.00  0.00    +0.000 C 
ATOM      3  N   UNL     1       7.420   4.428  17.268  0.00  0.00    +0.000 N 
ATOM      4  H   UNL     1       7.475   3.452  16.997  0.00  0.00    +0.000 HD
ENDROOT
BRANCH   2   5
ATOM      5  C   UNL     1       6.881   4.869  14.943  0.00  0.00    +0.000 A 
ATOM      6  C   UNL     1       7.678   5.019  13.811  0.00  0.00    +0.000 A 
ATOM      7  C   UNL     1       7.219   4.520  12.598  0.00  0.00    +0.000 A 
ATOM      8  C   UNL     1       5.992   3.856  12.527  0.00  0.00    +0.000 A 
ATOM      9  N   UNL     1       5.654   3.310  11.302  0.00  0.00    +0.000 N 
ATOM     10  N   UNL     1       5.223   3.683  13.620  0.00  0.00    +0.000 NA
ATOM     11  C   UNL     1       5.679   4.190  14.802  0.00  0.00    +0.000 A 
ATOM     12  H   UNL     1       5.650   3.989  10.553  0.00  0.00    +0.000 HD
BRANCH   9  13
ATOM     13  C   UNL     1       4.609   2.316  11.195  0.00  0.00    +0.000 C 
BRANCH  13  14
ATOM     14  C   UNL     1       3.353   3.086  10.899  0.00  0.00    +0.000 C 
ATOM     15  C   UNL     1       2.767   3.080   9.502  0.00  0.00    +0.000 C 
ATOM     16  C   UNL     1       3.346   4.344  10.069  0.00  0.00    +0.000 C 
ENDBRANCH  13  14
ENDBRANCH   9  13
ENDBRANCH   2   5
BRANCH   3  17
ATOM     17  C   UNL     1       7.923   4.809  18.578  0.00  0.00    +0.000 C 
BRANCH  17  18
ATOM     18  C   UNL     1       6.895   5.581  19.400  0.00  0.00    +0.000 C 
BRANCH  18  19
ATOM     19  C   UNL     1       5.490   5.179  19.034  0.00  0.00    +0.000 A 
ATOM     20  C   UNL     1       4.590   6.116  18.537  0.00  0.00    +0.000 A 
ATOM     21  C   UNL     1       3.298   5.699  18.232  0.00  0.00    +0.000 A 
ATOM     22  C   UNL     1       2.926   4.366  18.441  0.00  0.00    +0.000 A 
ATOM     23  C   UNL     1       1.628   3.906  18.158  0.00  0.00    +0.000 A 
ATOM     24  C   UNL     1       1.288   2.573  18.389  0.00  0.00    +0.000 A 
ATOM     25  C   UNL     1       2.244   1.699  18.890  0.00  0.00    +0.000 A 
ATOM     26  C   UNL     1       3.535   2.161  19.164  0.00  0.00    +0.000 A 
ATOM     27  C   UNL     1       3.900   3.484  18.950  0.00  0.00    +0.000 A 
ATOM     28  N   UNL     1       5.153   3.884  19.239  0.00  0.00    +0.000 NA
ENDBRANCH  18  19
ENDBRANCH  17  18
ENDBRANCH   3  17
TORSDOF 6
ENDMDL
MODEL 8
REMARK VINA RESULT:      -7.7      3.097      9.362
REMARK  Name = 
REMARK  6 active torsions:
REMARK  status: ('A' for Active; 'I' for Inactive)
REMARK    1  A    between atoms: C_2  and  C_16
REMARK    2  A    between atoms: N_3  and  C_4
REMARK    3  A    between atoms: C_4  and  C_5
REMARK    4  A    between atoms: C_5  and  C_6
REMARK    5  A    between atoms: N_20  and  C_21
REMARK    6  A    between atoms: C_21  and  C_22
REMARK                            x       y       z     vdW  Elec       q    Type
REMARK                         _______ _______ _______ _____ _____    ______ ____
ROOT
ATOM      1  O   UNL     1       1.567   6.236  20.803  0.00  0.00    +0.000 OA
ATOM      2  C   UNL     1       2.034   6.838  19.842  0.00  0.00    +0.000 C 
ATOM      3  N   UNL     1       1.831   8.189  19.611  0.00  0.00    +0.000 N 
ATOM      4  H   UNL     1       2.009   8.543  18.677  0.00  0.00    +0.000 HD
ENDROOT
BRANCH   2   5
ATOM      5  C   UNL     1       2.842   6.122  18.837  0.00  0.00    +0.000 A 
ATOM      6  C   UNL     1       2.848   4.733  18.751  0.00  0.00    +0.000 A 
ATOM      7  C   UNL     1       3.635   4.125  17.781  0.00  0.00    +0.000 A 
ATOM      8  C   UNL     1       4.384   4.901  16.893  0.00  0.00    +0.000 A 
ATOM      9  N   UNL     1       5.066   4.221  15.900  0.00  0.00    +0.000 N 
ATOM     10  N   UNL     1       4.368   6.247  16.950  0.00  0.00    +0.000 NA
ATOM     11  C   UNL     1       3.601   6.831  17.917  0.00  0.00    +0.000 A 
ATOM     12  H   UNL     1       5.698   3.520  16.263  0.00  0.00    +0.000 HD
BRANCH   9  13
ATOM     13  C   UNL     1       5.570   4.915  14.736  0.00  0.00    +0.000 C 
BRANCH  13  14
ATOM     14  C   UNL     1       6.268   3.867  13.915  0.00  0.00    +0.000 C 
ATOM     15  C   UNL     1       7.038   4.260  12.671  0.00  0.00    +0.000 C 
ATOM     16  C   UNL     1       5.783   3.443  12.553  0.00  0.00    +0.000 C 
ENDBRANCH  13  14
ENDBRANCH   9  13
ENDBRANCH   2   5
BRANCH   3  17
ATOM     17  C   UNL     1       0.965   8.961  20.488  0.00  0.00    +0.000 C 
BRANCH  17  18
ATOM     18  C   UNL     1       0.933  10.444  20.125  0.00  0.00    +0.000 C 
BRANCH  18  19
ATOM     19  C   UNL     1      -0.367  10.816  19.462  0.00  0.00    +0.000 A 
ATOM     20  C   UNL     1      -1.226  11.736  20.053  0.00  0.00    +0.000 A 
ATOM     21  C   UNL     1      -2.425  12.032  19.410  0.00  0.00    +0.000 A 
ATOM     22  C   UNL     1      -2.748  11.397  18.206  0.00  0.00    +0.000 A 
ATOM     23  C   UNL     1      -3.953  11.659  17.530  0.00  0.00    +0.000 A 
ATOM     24  C   UNL     1      -4.249  10.999  16.338  0.00  0.00    +0.000 A 
ATOM     25  C   UNL     1      -3.338  10.091  15.813  0.00  0.00    +0.000 A 
ATOM     26  C   UNL     1      -2.138   9.840  16.486  0.00  0.00    +0.000 A 
ATOM     27  C   UNL     1      -1.821  10.477  17.679  0.00  0.00    +0.000 A 
ATOM     28  N   UNL     1      -0.657  10.194  18.295  0.00  0.00    +0.000 NA
ENDBRANCH  18  19
ENDBRANCH  17  18
ENDBRANCH   3  17
TORSDOF 6
ENDMDL
MODEL 9
REMARK VINA RESULT:      -7.6      7.051      9.993
REMARK  Name = 
REMARK  6 active torsions:
REMARK  status: ('A' for Active; 'I' for Inactive)
REMARK    1  A    between atoms: C_2  and  C_16
REMARK    2  A    between atoms: N_3  and  C_4
REMARK    3  A    between atoms: C_4  and  C_5
REMARK    4  A    between atoms: C_5  and  C_6
REMARK    5  A    between atoms: N_20  and  C_21
REMARK    6  A    between atoms: C_21  and  C_22
REMARK                            x       y       z     vdW  Elec       q    Type
REMARK                         _______ _______ _______ _____ _____    ______ ____
ROOT
ATOM      1  O   UNL     1       7.171   8.527  17.037  0.00  0.00    +0.000 OA
ATOM      2  C   UNL     1       7.990   8.570  17.949  0.00  0.00    +0.000 C 
ATOM      3  N   UNL     1       8.419   7.454  18.648  0.00  0.00    +0.000 N 
ATOM      4  H   UNL     1       8.870   7.599  19.545  0.00  0.00    +0.000 HD
ENDROOT
BRANCH   2   5
ATOM      5  C   UNL     1       8.558   9.862  18.377  0.00  0.00    +0.000 A 
ATOM      6  C   UNL     1       9.359   9.975  19.510  0.00  0.00    +0.000 A 
ATOM      7  C   UNL     1       9.858  11.225  19.855  0.00  0.00    +0.000 A 
ATOM      8  C   UNL     1       9.581  12.339  19.059  0.00  0.00    +0.000 A 
ATOM      9  N   UNL     1      10.193  13.525  19.422  0.00  0.00    +0.000 N 
ATOM     10  N   UNL     1       8.829  12.238  17.946  0.00  0.00    +0.000 NA
ATOM     11  C   UNL     1       8.333  11.007  17.627  0.00  0.00    +0.000 A 
ATOM     12  H   UNL     1       9.990  13.802  20.373  0.00  0.00    +0.000 HD
BRANCH   9  13
ATOM     13  C   UNL     1      10.272  14.634  18.496  0.00  0.00    +0.000 C 
BRANCH  13  14
ATOM     14  C   UNL     1       9.254  15.630  18.975  0.00  0.00    +0.000 C 
ATOM     15  C   UNL     1       8.263  16.236  18.003  0.00  0.00    +0.000 C 
ATOM     16  C   UNL     1       9.323  17.095  18.630  0.00  0.00    +0.000 C 
ENDBRANCH  13  14
ENDBRANCH   9  13
ENDBRANCH   2   5
BRANCH   3  17
ATOM     17  C   UNL     1       7.842   6.148  18.370  0.00  0.00    +0.000 C 
BRANCH  17  18
ATOM     18  C   UNL     1       6.979   5.630  19.518  0.00  0.00    +0.000 C 
BRANCH  18  19
ATOM     19  C   UNL     1       5.714   4.992  19.007  0.00  0.00    +0.000 A 
ATOM     20  C   UNL     1       5.662   4.443  17.731  0.00  0.00    +0.000 A 
ATOM     21  C   UNL     1       4.465   3.882  17.297  0.00  0.00    +0.000 A 
ATOM     22  C   UNL     1       3.344   3.894  18.135  0.00  0.00    +0.000 A 
ATOM     23  C   UNL     1       2.112   3.350  17.732  0.00  0.00    +0.000 A 
ATOM     24  C   UNL     1       1.011   3.389  18.587  0.00  0.00    +0.000 A 
ATOM     25  C   UNL     1       1.143   3.959  19.848  0.00  0.00    +0.000 A 
ATOM     26  C   UNL     1       2.373   4.493  20.246  0.00  0.00    +0.000 A 
ATOM     27  C   UNL     1       3.484   4.474  19.411  0.00  0.00    +0.000 A 
ATOM     28  N   UNL     1       4.644   5.010  19.836  0.00  0.00    +0.000 NA
ENDBRANCH  18  19
ENDBRANCH  17  18
ENDBRANCH   3  17
TORSDOF 6
ENDMDL
