MODEL 1
REMARK VINA RESULT:      -8.2      0.000      0.000
REMARK  Name = 
REMARK  5 active torsions:
REMARK  status: ('A' for Active; 'I' for Inactive)
REMARK    1  A    between atoms: N_1  and  S_2
REMARK    2  A    between atoms: S_2  and  C_5
REMARK    3  A    between atoms: C_9  and  N_10
REMARK    4  A    between atoms: C_11  and  C_13
REMARK    5  A    between atoms: N_17  and  C_18
REMARK                            x       y       z     vdW  Elec       q    Type
REMARK                         _______ _______ _______ _____ _____    ______ ____
ROOT
ATOM      1  N   UNL     1       7.920   8.655  17.561  0.00  0.00    +0.000 N 
ATOM      2  C   UNL     1       7.742   7.316  17.882  0.00  0.00    +0.000 C 
ATOM      3  O   UNL     1       8.152   6.747  18.890  0.00  0.00    +0.000 OA
ATOM      4  H   UNL     1       7.508   8.993  16.695  0.00  0.00    +0.000 HD
ENDROOT
BRANCH   1   9
ATOM      5  C   UNL     1       9.263  11.943  18.560  0.00  0.00    +0.000 A 
ATOM      6  C   UNL     1       9.670  11.728  19.877  0.00  0.00    +0.000 A 
ATOM      7  C   UNL     1       9.538  10.454  20.424  0.00  0.00    +0.000 A 
ATOM      8  C   UNL     1       8.979   9.417  19.669  0.00  0.00    +0.000 A 
ATOM      9  C   UNL     1       8.545   9.637  18.357  0.00  0.00    +0.000 A 
ATOM     10  C   UNL     1       8.708  10.908  17.799  0.00  0.00    +0.000 A 
BRANCH   5  11
ATOM     11  S   UNL     1       9.376  13.563  17.854  0.00  0.00    +0.000 S 
ATOM     12  O   UNL     1      10.312  13.521  16.762  0.00  0.00    +0.000 OA
ATOM     13  O   UNL     1       9.432  14.542  18.912  0.00  0.00    +0.000 OA
BRANCH  11  14
ATOM     14  N   UNL     1       7.873  13.734  17.136  0.00  0.00    +0.000 NA
ATOM     15  H   UNL     1       7.971  13.721  16.121  0.00  0.00    +0.000 HD
ATOM     16  H   UNL     1       7.417  14.572  17.495  0.00  0.00    +0.000 HD
ENDBRANCH  11  14
ENDBRANCH   5  11
ENDBRANCH   1   9
BRANCH   2  17
ATOM     17  C   UNL     1       6.961   6.518  16.847  0.00  0.00    +0.000 C 
ATOM     18  C   UNL     1       5.712   7.241  16.388  0.00  0.00    +0.000 C 
ATOM     19  C   UNL     1       4.619   6.610  17.205  0.00  0.00    +0.000 C 
ATOM     20  O   UNL     1       3.497   7.084  17.302  0.00  0.00    +0.000 OA
ATOM     21  N   UNL     1       5.104   5.447  17.819  0.00  0.00    +0.000 N 
ATOM     22  C   UNL     1       6.466   5.186  17.377  0.00  0.00    +0.000 C 
BRANCH  21  23
ATOM     23  C   UNL     1       4.263   4.315  18.086  0.00  0.00    +0.000 A 
ATOM     24  C   UNL     1       4.280   3.238  17.180  0.00  0.00    +0.000 A 
ATOM     25  C   UNL     1       3.727   2.008  17.515  0.00  0.00    +0.000 A 
ATOM     26  C   UNL     1       3.263   1.806  18.805  0.00  0.00    +0.000 A 
ATOM     27  C   UNL     1       3.183   2.876  19.705  0.00  0.00    +0.000 A 
ATOM     28  C   UNL     1       2.669   2.654  20.981  0.00  0.00    +0.000 A 
ATOM     29  C   UNL     1       1.986   3.668  21.627  0.00  0.00    +0.000 A 
ATOM     30  C   UNL     1       2.145   4.969  21.179  0.00  0.00    +0.000 A 
ATOM     31  C   UNL     1       3.026   5.233  20.116  0.00  0.00    +0.000 A 
ATOM     32  C   UNL     1       3.531   4.180  19.305  0.00  0.00    +0.000 A 
ENDBRANCH  21  23
ENDBRANCH   2  17
TORSDOF 5
ENDMDL
MODEL 2
REMARK VINA RESULT:      -8.0      6.199      8.598
REMARK  Name = 
REMARK  5 active torsions:
REMARK  status: ('A' for Active; 'I' for Inactive)
REMARK    1  A    between atoms: N_1  and  S_2
REMARK    2  A    between atoms: S_2  and  C_5
REMARK    3  A    between atoms: C_9  and  N_10
REMARK    4  A    between atoms: C_11  and  C_13
REMARK    5  A    between atoms: N_17  and  C_18
REMARK                            x       y       z     vdW  Elec       q    Type
REMARK                         _______ _______ _______ _____ _____    ______ ____
ROOT
ATOM      1  N   UNL     1       2.692   7.475  17.837  0.00  0.00    +0.000 N 
ATOM      2  C   UNL     1       1.966   8.392  18.585  0.00  0.00    +0.000 C 
ATOM      3  O   UNL     1       1.794   8.368  19.801  0.00  0.00    +0.000 OA
ATOM      4  H   UNL     1       2.762   7.631  16.835  0.00  0.00    +0.000 HD
ENDROOT
BRANCH   1   9
ATOM      5  C   UNL     1       5.613   5.403  18.729  0.00  0.00    +0.000 A 
ATOM      6  C   UNL     1       5.036   4.314  19.383  0.00  0.00    +0.000 A 
ATOM      7  C   UNL     1       3.648   4.247  19.486  0.00  0.00    +0.000 A 
ATOM      8  C   UNL     1       2.852   5.273  18.965  0.00  0.00    +0.000 A 
ATOM      9  C   UNL     1       3.429   6.379  18.332  0.00  0.00    +0.000 A 
ATOM     10  C   UNL     1       4.821   6.429  18.201  0.00  0.00    +0.000 A 
BRANCH   5  11
ATOM     11  S   UNL     1       7.375   5.538  18.624  0.00  0.00    +0.000 S 
ATOM     12  O   UNL     1       7.706   6.872  18.198  0.00  0.00    +0.000 OA
ATOM     13  O   UNL     1       7.909   4.350  18.004  0.00  0.00    +0.000 OA
BRANCH  11  14
ATOM     14  N   UNL     1       7.825   5.470  20.236  0.00  0.00    +0.000 NA
ATOM     15  H   UNL     1       7.036   5.159  20.801  0.00  0.00    +0.000 HD
ATOM     16  H   UNL     1       8.206   6.371  20.521  0.00  0.00    +0.000 HD
ENDBRANCH  11  14
ENDBRANCH   5  11
ENDBRANCH   1   9
BRANCH   2  17
ATOM     17  C   UNL     1       1.335   9.512  17.770  0.00  0.00    +0.000 C 
ATOM     18  C   UNL     1       2.082  10.821  17.918  0.00  0.00    +0.000 C 
ATOM     19  C   UNL     1       1.279  11.571  18.944  0.00  0.00    +0.000 C 
ATOM     20  O   UNL     1       1.689  12.571  19.514  0.00  0.00    +0.000 OA
ATOM     21  N   UNL     1       0.044  10.935  19.130  0.00  0.00    +0.000 N 
ATOM     22  C   UNL     1      -0.087   9.826  18.196  0.00  0.00    +0.000 C 
BRANCH  21  23
ATOM     23  C   UNL     1      -1.146  11.659  19.474  0.00  0.00    +0.000 A 
ATOM     24  C   UNL     1      -2.150  11.799  18.498  0.00  0.00    +0.000 A 
ATOM     25  C   UNL     1      -3.429  12.225  18.838  0.00  0.00    +0.000 A 
ATOM     26  C   UNL     1      -3.750  12.394  20.175  0.00  0.00    +0.000 A 
ATOM     27  C   UNL     1      -2.756  12.316  21.158  0.00  0.00    +0.000 A 
ATOM     28  C   UNL     1      -3.098  12.536  22.491  0.00  0.00    +0.000 A 
ATOM     29  C   UNL     1      -2.171  13.099  23.349  0.00  0.00    +0.000 A 
ATOM     30  C   UNL     1      -0.834  13.084  22.988  0.00  0.00    +0.000 A 
ATOM     31  C   UNL     1      -0.447  12.462  21.789  0.00  0.00    +0.000 A 
ATOM     32  C   UNL     1      -1.408  12.107  20.804  0.00  0.00    +0.000 A 
ENDBRANCH  21  23
ENDBRANCH   2  17
TORSDOF 5
ENDMDL
MODEL 3
REMARK VINA RESULT:      -8.0      0.933      1.132
REMARK  Name = 
REMARK  5 active torsions:
REMARK  status: ('A' for Active; 'I' for Inactive)
REMARK    1  A    between atoms: N_1  and  S_2
REMARK    2  A    between atoms: S_2  and  C_5
REMARK    3  A    between atoms: C_9  and  N_10
REMARK    4  A    between atoms: C_11  and  C_13
REMARK    5  A    between atoms: N_17  and  C_18
REMARK                            x       y       z     vdW  Elec       q    Type
REMARK                         _______ _______ _______ _____ _____    ______ ____
ROOT
ATOM      1  N   UNL     1       8.156   8.837  17.698  0.00  0.00    +0.000 N 
ATOM      2  C   UNL     1       7.908   7.509  18.014  0.00  0.00    +0.000 C 
ATOM      3  O   UNL     1       8.251   6.927  19.040  0.00  0.00    +0.000 OA
ATOM      4  H   UNL     1       7.796   9.188  16.814  0.00  0.00    +0.000 HD
ENDROOT
BRANCH   1   9
ATOM      5  C   UNL     1       9.951  11.918  18.648  0.00  0.00    +0.000 A 
ATOM      6  C   UNL     1       9.975  11.849  20.041  0.00  0.00    +0.000 A 
ATOM      7  C   UNL     1       9.426  10.734  20.671  0.00  0.00    +0.000 A 
ATOM      8  C   UNL     1       8.836   9.716  19.914  0.00  0.00    +0.000 A 
ATOM      9  C   UNL     1       8.786   9.796  18.518  0.00  0.00    +0.000 A 
ATOM     10  C   UNL     1       9.366  10.900  17.885  0.00  0.00    +0.000 A 
BRANCH   5  11
ATOM     11  S   UNL     1      10.599  13.345  17.822  0.00  0.00    +0.000 S 
ATOM     12  O   UNL     1       9.684  14.438  18.016  0.00  0.00    +0.000 OA
ATOM     13  O   UNL     1      11.113  12.957  16.532  0.00  0.00    +0.000 OA
BRANCH  11  14
ATOM     14  N   UNL     1      11.931  13.716  18.767  0.00  0.00    +0.000 NA
ATOM     15  H   UNL     1      11.624  14.069  19.673  0.00  0.00    +0.000 HD
ATOM     16  H   UNL     1      12.539  14.357  18.259  0.00  0.00    +0.000 HD
ENDBRANCH  11  14
ENDBRANCH   5  11
ENDBRANCH   1   9
BRANCH   2  17
ATOM     17  C   UNL     1       7.141   6.739  16.948  0.00  0.00    +0.000 C 
ATOM     18  C   UNL     1       5.890   7.468  16.503  0.00  0.00    +0.000 C 
ATOM     19  C   UNL     1       4.795   6.803  17.291  0.00  0.00    +0.000 C 
ATOM     20  O   UNL     1       3.670   7.267  17.394  0.00  0.00    +0.000 OA
ATOM     21  N   UNL     1       5.284   5.624  17.870  0.00  0.00    +0.000 N 
ATOM     22  C   UNL     1       6.651   5.387  17.431  0.00  0.00    +0.000 C 
BRANCH  21  23
ATOM     23  C   UNL     1       4.449   4.479  18.095  0.00  0.00    +0.000 A 
ATOM     24  C   UNL     1       4.519   3.409  17.183  0.00  0.00    +0.000 A 
ATOM     25  C   UNL     1       3.971   2.169  17.486  0.00  0.00    +0.000 A 
ATOM     26  C   UNL     1       3.457   1.951  18.754  0.00  0.00    +0.000 A 
ATOM     27  C   UNL     1       3.324   3.012  19.657  0.00  0.00    +0.000 A 
ATOM     28  C   UNL     1       2.761   2.773  20.909  0.00  0.00    +0.000 A 
ATOM     29  C   UNL     1       2.038   3.773  21.534  0.00  0.00    +0.000 A 
ATOM     30  C   UNL     1       2.197   5.080  21.102  0.00  0.00    +0.000 A 
ATOM     31  C   UNL     1       3.117   5.364  20.078  0.00  0.00    +0.000 A 
ATOM     32  C   UNL     1       3.670   4.325  19.281  0.00  0.00    +0.000 A 
ENDBRANCH  21  23
ENDBRANCH   2  17
TORSDOF 5
ENDMDL
MODEL 4
REMARK VINA RESULT:      -7.9      6.169      8.728
REMARK  Name = 
REMARK  5 active torsions:
REMARK  status: ('A' for Active; 'I' for Inactive)
REMARK    1  A    between atoms: N_1  and  S_2
REMARK    2  A    between atoms: S_2  and  C_5
REMARK    3  A    between atoms: C_9  and  N_10
REMARK    4  A    between atoms: C_11  and  C_13
REMARK    5  A    between atoms: N_17  and  C_18
REMARK                            x       y       z     vdW  Elec       q    Type
REMARK                         _______ _______ _______ _____ _____    ______ ____
ROOT
ATOM      1  N   UNL     1       2.438   7.596  17.816  0.00  0.00    +0.000 N 
ATOM      2  C   UNL     1       1.815   8.511  18.654  0.00  0.00    +0.000 C 
ATOM      3  O   UNL     1       1.727   8.438  19.877  0.00  0.00    +0.000 OA
ATOM      4  H   UNL     1       2.447   7.797  16.819  0.00  0.00    +0.000 HD
ENDROOT
BRANCH   1   9
ATOM      5  C   UNL     1       5.304   5.438  18.679  0.00  0.00    +0.000 A 
ATOM      6  C   UNL     1       4.691   4.252  19.086  0.00  0.00    +0.000 A 
ATOM      7  C   UNL     1       3.302   4.155  19.026  0.00  0.00    +0.000 A 
ATOM      8  C   UNL     1       2.538   5.244  18.591  0.00  0.00    +0.000 A 
ATOM      9  C   UNL     1       3.149   6.443  18.208  0.00  0.00    +0.000 A 
ATOM     10  C   UNL     1       4.544   6.528  18.238  0.00  0.00    +0.000 A 
BRANCH   5  11
ATOM     11  S   UNL     1       7.063   5.606  18.789  0.00  0.00    +0.000 S 
ATOM     12  O   UNL     1       7.457   5.389  20.156  0.00  0.00    +0.000 OA
ATOM     13  O   UNL     1       7.484   6.745  18.011  0.00  0.00    +0.000 OA
BRANCH  11  14
ATOM     14  N   UNL     1       7.593   4.250  17.961  0.00  0.00    +0.000 NA
ATOM     15  H   UNL     1       8.605   4.290  17.845  0.00  0.00    +0.000 HD
ATOM     16  H   UNL     1       7.081   4.166  17.084  0.00  0.00    +0.000 HD
ENDBRANCH  11  14
ENDBRANCH   5  11
ENDBRANCH   1   9
BRANCH   2  17
ATOM     17  C   UNL     1       1.190   9.699  17.936  0.00  0.00    +0.000 C 
ATOM     18  C   UNL     1       2.194  10.799  17.664  0.00  0.00    +0.000 C 
ATOM     19  C   UNL     1       1.957  11.778  18.780  0.00  0.00    +0.000 C 
ATOM     20  O   UNL     1       2.731  12.684  19.050  0.00  0.00    +0.000 OA
ATOM     21  N   UNL     1       0.755  11.466  19.429  0.00  0.00    +0.000 N 
ATOM     22  C   UNL     1       0.092  10.368  18.743  0.00  0.00    +0.000 C 
BRANCH  21  23
ATOM     23  C   UNL     1      -0.073  12.472  20.030  0.00  0.00    +0.000 A 
ATOM     24  C   UNL     1      -0.156  13.732  19.407  0.00  0.00    +0.000 A 
ATOM     25  C   UNL     1      -1.145  14.643  19.758  0.00  0.00    +0.000 A 
ATOM     26  C   UNL     1      -2.136  14.255  20.645  0.00  0.00    +0.000 A 
ATOM     27  C   UNL     1      -2.044  13.032  21.320  0.00  0.00    +0.000 A 
ATOM     28  C   UNL     1      -3.030  12.687  22.242  0.00  0.00    +0.000 A 
ATOM     29  C   UNL     1      -2.700  11.908  23.336  0.00  0.00    +0.000 A 
ATOM     30  C   UNL     1      -1.520  11.182  23.304  0.00  0.00    +0.000 A 
ATOM     31  C   UNL     1      -0.715  11.217  22.153  0.00  0.00    +0.000 A 
ATOM     32  C   UNL     1      -0.925  12.194  21.142  0.00  0.00    +0.000 A 
ENDBRANCH  21  23
ENDBRANCH   2  17
TORSDOF 5
ENDMDL
MODEL 5
REMARK VINA RESULT:      -7.9      1.895      2.267
REMARK  Name = 
REMARK  5 active torsions:
REMARK  status: ('A' for Active; 'I' for Inactive)
REMARK    1  A    between atoms: N_1  and  S_2
REMARK    2  A    between atoms: S_2  and  C_5
REMARK    3  A    between atoms: C_9  and  N_10
REMARK    4  A    between atoms: C_11  and  C_13
REMARK    5  A    between atoms: N_17  and  C_18
REMARK                            x       y       z     vdW  Elec       q    Type
REMARK                         _______ _______ _______ _____ _____    ______ ____
ROOT
ATOM      1  N   UNL     1       8.309   8.435  18.194  0.00  0.00    +0.000 N 
ATOM      2  C   UNL     1       7.304   7.742  17.535  0.00  0.00    +0.000 C 
ATOM      3  O   UNL     1       6.367   8.233  16.912  0.00  0.00    +0.000 OA
ATOM      4  H   UNL     1       9.034   7.891  18.657  0.00  0.00    +0.000 HD
ENDROOT
BRANCH   1   9
ATOM      5  C   UNL     1       9.582  11.726  19.272  0.00  0.00    +0.000 A 
ATOM      6  C   UNL     1       9.039  12.597  18.326  0.00  0.00    +0.000 A 
ATOM      7  C   UNL     1       8.197  12.083  17.342  0.00  0.00    +0.000 A 
ATOM      8  C   UNL     1       7.927  10.711  17.291  0.00  0.00    +0.000 A 
ATOM      9  C   UNL     1       8.491   9.833  18.222  0.00  0.00    +0.000 A 
ATOM     10  C   UNL     1       9.311  10.354  19.229  0.00  0.00    +0.000 A 
BRANCH   5  11
ATOM     11  S   UNL     1      10.693  12.344  20.505  0.00  0.00    +0.000 S 
ATOM     12  O   UNL     1      10.616  13.780  20.510  0.00  0.00    +0.000 OA
ATOM     13  O   UNL     1      11.936  11.614  20.437  0.00  0.00    +0.000 OA
BRANCH  11  14
ATOM     14  N   UNL     1       9.942  11.860  21.922  0.00  0.00    +0.000 NA
ATOM     15  H   UNL     1       8.983  12.205  21.938  0.00  0.00    +0.000 HD
ATOM     16  H   UNL     1      10.500  12.157  22.721  0.00  0.00    +0.000 HD
ENDBRANCH  11  14
ENDBRANCH   5  11
ENDBRANCH   1   9
BRANCH   2  17
ATOM     17  C   UNL     1       7.416   6.226  17.630  0.00  0.00    +0.000 C 
ATOM     18  C   UNL     1       7.325   5.558  16.274  0.00  0.00    +0.000 C 
ATOM     19  C   UNL     1       5.892   5.111  16.195  0.00  0.00    +0.000 C 
ATOM     20  O   UNL     1       5.362   4.745  15.157  0.00  0.00    +0.000 OA
ATOM     21  N   UNL     1       5.302   5.203  17.463  0.00  0.00    +0.000 N 
ATOM     22  C   UNL     1       6.300   5.600  18.445  0.00  0.00    +0.000 C 
BRANCH  21  23
ATOM     23  C   UNL     1       4.266   4.307  17.892  0.00  0.00    +0.000 A 
ATOM     24  C   UNL     1       4.259   2.996  17.380  0.00  0.00    +0.000 A 
ATOM     25  C   UNL     1       3.479   2.003  17.959  0.00  0.00    +0.000 A 
ATOM     26  C   UNL     1       2.794   2.280  19.131  0.00  0.00    +0.000 A 
ATOM     27  C   UNL     1       2.739   3.589  19.627  0.00  0.00    +0.000 A 
ATOM     28  C   UNL     1       2.004   3.847  20.782  0.00  0.00    +0.000 A 
ATOM     29  C   UNL     1       1.392   5.078  20.940  0.00  0.00    +0.000 A 
ATOM     30  C   UNL     1       1.818   6.139  20.156  0.00  0.00    +0.000 A 
ATOM     31  C   UNL     1       2.883   5.954  19.259  0.00  0.00    +0.000 A 
ATOM     32  C   UNL     1       3.341   4.650  18.924  0.00  0.00    +0.000 A 
ENDBRANCH  21  23
ENDBRANCH   2  17
TORSDOF 5
ENDMDL
MODEL 6
REMARK VINA RESULT:      -7.8      6.042      8.676
REMARK  Name = 
REMARK  5 active torsions:
REMARK  status: ('A' for Active; 'I' for Inactive)
REMARK    1  A    between atoms: N_1  and  S_2
REMARK    2  A    between atoms: S_2  and  C_5
REMARK    3  A    between atoms: C_9  and  N_10
REMARK    4  A    between atoms: C_11  and  C_13
REMARK    5  A    between atoms: N_17  and  C_18
REMARK                            x       y       z     vdW  Elec       q    Type
REMARK                         _______ _______ _______ _____ _____    ______ ____
ROOT
ATOM      1  N   UNL     1       3.039   7.292  18.536  0.00  0.00    +0.000 N 
ATOM      2  C   UNL     1       2.302   7.355  19.710  0.00  0.00    +0.000 C 
ATOM      3  O   UNL     1       1.850   6.402  20.340  0.00  0.00    +0.000 OA
ATOM      4  H   UNL     1       3.362   8.167  18.132  0.00  0.00    +0.000 HD
ENDROOT
BRANCH   1   9
ATOM      5  C   UNL     1       5.251   5.008  16.663  0.00  0.00    +0.000 A 
ATOM      6  C   UNL     1       4.514   3.824  16.620  0.00  0.00    +0.000 A 
ATOM      7  C   UNL     1       3.240   3.802  17.183  0.00  0.00    +0.000 A 
ATOM      8  C   UNL     1       2.724   4.944  17.806  0.00  0.00    +0.000 A 
ATOM      9  C   UNL     1       3.471   6.124  17.873  0.00  0.00    +0.000 A 
ATOM     10  C   UNL     1       4.737   6.155  17.280  0.00  0.00    +0.000 A 
BRANCH   5  11
ATOM     11  S   UNL     1       6.891   5.053  15.997  0.00  0.00    +0.000 S 
ATOM     12  O   UNL     1       7.390   6.398  16.104  0.00  0.00    +0.000 OA
ATOM     13  O   UNL     1       6.932   4.283  14.777  0.00  0.00    +0.000 OA
BRANCH  11  14
ATOM     14  N   UNL     1       7.751   4.175  17.135  0.00  0.00    +0.000 NA
ATOM     15  H   UNL     1       8.442   3.589  16.669  0.00  0.00    +0.000 HD
ATOM     16  H   UNL     1       7.102   3.657  17.726  0.00  0.00    +0.000 HD
ENDBRANCH  11  14
ENDBRANCH   5  11
ENDBRANCH   1   9
BRANCH   2  17
ATOM     17  C   UNL     1       2.049   8.766  20.221  0.00  0.00    +0.000 C 
ATOM     18  C   UNL     1       1.276   8.774  21.524  0.00  0.00    +0.000 C 
ATOM     19  C   UNL     1      -0.140   9.038  21.093  0.00  0.00    +0.000 C 
ATOM     20  O   UNL     1      -1.103   8.881  21.828  0.00  0.00    +0.000 OA
ATOM     21  N   UNL     1      -0.152   9.460  19.757  0.00  0.00    +0.000 N 
ATOM     22  C   UNL     1       1.212   9.600  19.269  0.00  0.00    +0.000 C 
BRANCH  21  23
ATOM     23  C   UNL     1      -1.136  10.375  19.252  0.00  0.00    +0.000 A 
ATOM     24  C   UNL     1      -1.947   9.962  18.178  0.00  0.00    +0.000 A 
ATOM     25  C   UNL     1      -3.094  10.665  17.832  0.00  0.00    +0.000 A 
ATOM     26  C   UNL     1      -3.509  11.715  18.634  0.00  0.00    +0.000 A 
ATOM     27  C   UNL     1      -2.692  12.180  19.672  0.00  0.00    +0.000 A 
ATOM     28  C   UNL     1      -3.114  13.268  20.434  0.00  0.00    +0.000 A 
ATOM     29  C   UNL     1      -2.175  14.133  20.966  0.00  0.00    +0.000 A 
ATOM     30  C   UNL     1      -0.858  13.712  21.058  0.00  0.00    +0.000 A 
ATOM     31  C   UNL     1      -0.517  12.410  20.655  0.00  0.00    +0.000 A 
ATOM     32  C   UNL     1      -1.419  11.619  19.892  0.00  0.00    +0.000 A 
ENDBRANCH  21  23
ENDBRANCH   2  17
TORSDOF 5
ENDMDL
MODEL 7
REMARK VINA RESULT:      -7.8      6.717      9.582
REMARK  Name = 
REMARK  5 active torsions:
REMARK  status: ('A' for Active; 'I' for Inactive)
REMARK    1  A    between atoms: N_1  and  S_2
REMARK    2  A    between atoms: S_2  and  C_5
REMARK    3  A    between atoms: C_9  and  N_10
REMARK    4  A    between atoms: C_11  and  C_13
REMARK    5  A    between atoms: N_17  and  C_18
REMARK                            x       y       z     vdW  Elec       q    Type
REMARK                         _______ _______ _______ _____ _____    ______ ____
ROOT
ATOM      1  N   UNL     1       2.591   7.332  17.970  0.00  0.00    +0.000 N 
ATOM      2  C   UNL     1       1.934   8.312  18.701  0.00  0.00    +0.000 C 
ATOM      3  O   UNL     1       1.766   8.324  19.918  0.00  0.00    +0.000 OA
ATOM      4  H   UNL     1       2.667   7.463  16.964  0.00  0.00    +0.000 HD
ENDROOT
BRANCH   1   9
ATOM      5  C   UNL     1       3.058   4.066  19.622  0.00  0.00    +0.000 A 
ATOM      6  C   UNL     1       4.422   3.824  19.455  0.00  0.00    +0.000 A 
ATOM      7  C   UNL     1       5.206   4.787  18.824  0.00  0.00    +0.000 A 
ATOM      8  C   UNL     1       4.624   5.964  18.341  0.00  0.00    +0.000 A 
ATOM      9  C   UNL     1       3.252   6.197  18.484  0.00  0.00    +0.000 A 
ATOM     10  C   UNL     1       2.472   5.244  19.146  0.00  0.00    +0.000 A 
BRANCH   5  11
ATOM     11  S   UNL     1       2.029   2.840  20.379  0.00  0.00    +0.000 S 
ATOM     12  O   UNL     1       2.419   2.704  21.757  0.00  0.00    +0.000 OA
ATOM     13  O   UNL     1       1.880   1.720  19.480  0.00  0.00    +0.000 OA
BRANCH  11  14
ATOM     14  N   UNL     1       0.543   3.610  20.418  0.00  0.00    +0.000 NA
ATOM     15  H   UNL     1      -0.164   2.979  20.795  0.00  0.00    +0.000 HD
ATOM     16  H   UNL     1       0.322   3.970  19.491  0.00  0.00    +0.000 HD
ENDBRANCH  11  14
ENDBRANCH   5  11
ENDBRANCH   1   9
BRANCH   2  17
ATOM     17  C   UNL     1       1.378   9.456  17.865  0.00  0.00    +0.000 C 
ATOM     18  C   UNL     1       2.150  10.743  18.070  0.00  0.00    +0.000 C 
ATOM     19  C   UNL     1       1.311  11.505  19.059  0.00  0.00    +0.000 C 
ATOM     20  O   UNL     1       1.715  12.487  19.661  0.00  0.00    +0.000 OA
ATOM     21  N   UNL     1       0.052  10.900  19.169  0.00  0.00    +0.000 N 
ATOM     22  C   UNL     1      -0.056   9.805  18.217  0.00  0.00    +0.000 C 
BRANCH  21  23
ATOM     23  C   UNL     1      -1.136  11.652  19.455  0.00  0.00    +0.000 A 
ATOM     24  C   UNL     1      -2.070  11.848  18.421  0.00  0.00    +0.000 A 
ATOM     25  C   UNL     1      -3.355  12.305  18.690  0.00  0.00    +0.000 A 
ATOM     26  C   UNL     1      -3.757  12.450  20.008  0.00  0.00    +0.000 A 
ATOM     27  C   UNL     1      -2.831  12.317  21.050  0.00  0.00    +0.000 A 
ATOM     28  C   UNL     1      -3.253  12.514  22.363  0.00  0.00    +0.000 A 
ATOM     29  C   UNL     1      -2.368  13.025  23.295  0.00  0.00    +0.000 A 
ATOM     30  C   UNL     1      -1.010  12.978  23.019  0.00  0.00    +0.000 A 
ATOM     31  C   UNL     1      -0.565  12.374  21.831  0.00  0.00    +0.000 A 
ATOM     32  C   UNL     1      -1.471  12.075  20.777  0.00  0.00    +0.000 A 
ENDBRANCH  21  23
ENDBRANCH   2  17
TORSDOF 5
ENDMDL
MODEL 8
REMARK VINA RESULT:      -7.7      6.935      9.929
REMARK  Name = 
REMARK  5 active torsions:
REMARK  status: ('A' for Active; 'I' for Inactive)
REMARK    1  A    between atoms: N_1  and  S_2
REMARK    2  A    between atoms: S_2  and  C_5
REMARK    3  A    between atoms: C_9  and  N_10
REMARK    4  A    between atoms: C_11  and  C_13
REMARK    5  A    between atoms: N_17  and  C_18
REMARK                            x       y       z     vdW  Elec       q    Type
REMARK                         _______ _______ _______ _____ _____    ______ ____
ROOT
ATOM      1  N   UNL     1       2.429   7.638  19.076  0.00  0.00    +0.000 N 
ATOM      2  C   UNL     1       2.158   8.755  18.297  0.00  0.00    +0.000 C 
ATOM      3  O   UNL     1       2.262   8.834  17.076  0.00  0.00    +0.000 OA
ATOM      4  H   UNL     1       2.282   7.715  20.080  0.00  0.00    +0.000 HD
ENDROOT
BRANCH   1   9
ATOM      5  C   UNL     1       2.385   3.974  18.646  0.00  0.00    +0.000 A 
ATOM      6  C   UNL     1       3.381   3.759  17.692  0.00  0.00    +0.000 A 
ATOM      7  C   UNL     1       4.109   4.849  17.221  0.00  0.00    +0.000 A 
ATOM      8  C   UNL     1       3.824   6.139  17.680  0.00  0.00    +0.000 A 
ATOM      9  C   UNL     1       2.809   6.361  18.616  0.00  0.00    +0.000 A 
ATOM     10  C   UNL     1       2.099   5.262  19.112  0.00  0.00    +0.000 A 
BRANCH   5  11
ATOM     11  S   UNL     1       1.411   2.614  19.229  0.00  0.00    +0.000 S 
ATOM     12  O   UNL     1       0.215   2.537  18.433  0.00  0.00    +0.000 OA
ATOM     13  O   UNL     1       1.409   2.612  20.671  0.00  0.00    +0.000 OA
BRANCH  11  14
ATOM     14  N   UNL     1       2.336   1.299  18.759  0.00  0.00    +0.000 NA
ATOM     15  H   UNL     1       3.249   1.341  19.209  0.00  0.00    +0.000 HD
ATOM     16  H   UNL     1       2.379   1.261  17.741  0.00  0.00    +0.000 HD
ENDBRANCH  11  14
ENDBRANCH   5  11
ENDBRANCH   1   9
BRANCH   2  17
ATOM     17  C   UNL     1       1.699   9.976  19.082  0.00  0.00    +0.000 C 
ATOM     18  C   UNL     1       1.153   9.608  20.446  0.00  0.00    +0.000 C 
ATOM     19  C   UNL     1      -0.336   9.599  20.239  0.00  0.00    +0.000 C 
ATOM     20  O   UNL     1      -1.120   9.115  21.041  0.00  0.00    +0.000 OA
ATOM     21  N   UNL     1      -0.643  10.203  19.012  0.00  0.00    +0.000 N 
ATOM     22  C   UNL     1       0.570  10.727  18.401  0.00  0.00    +0.000 C 
BRANCH  21  23
ATOM     23  C   UNL     1      -1.862  10.932  18.801  0.00  0.00    +0.000 A 
ATOM     24  C   UNL     1      -2.803  10.412  17.893  0.00  0.00    +0.000 A 
ATOM     25  C   UNL     1      -4.106  10.895  17.854  0.00  0.00    +0.000 A 
ATOM     26  C   UNL     1      -4.513  11.814  18.807  0.00  0.00    +0.000 A 
ATOM     27  C   UNL     1      -3.583  12.387  19.683  0.00  0.00    +0.000 A 
ATOM     28  C   UNL     1      -4.012  13.343  20.601  0.00  0.00    +0.000 A 
ATOM     29  C   UNL     1      -3.149  14.351  20.990  0.00  0.00    +0.000 A 
ATOM     30  C   UNL     1      -1.791  14.187  20.768  0.00  0.00    +0.000 A 
ATOM     31  C   UNL     1      -1.321  12.991  20.200  0.00  0.00    +0.000 A 
ATOM     32  C   UNL     1      -2.214  12.073  19.584  0.00  0.00    +0.000 A 
ENDBRANCH  21  23
ENDBRANCH   2  17
TORSDOF 5
ENDMDL
MODEL 9
REMARK VINA RESULT:      -7.7      6.278      9.065
REMARK  Name = 
REMARK  5 active torsions:
REMARK  status: ('A' for Active; 'I' for Inactive)
REMARK    1  A    between atoms: N_1  and  S_2
REMARK    2  A    between atoms: S_2  and  C_5
REMARK    3  A    between atoms: C_9  and  N_10
REMARK    4  A    between atoms: C_11  and  C_13
REMARK    5  A    between atoms: N_17  and  C_18
REMARK                            x       y       z     vdW  Elec       q    Type
REMARK                         _______ _______ _______ _____ _____    ______ ____
ROOT
ATOM      1  N   UNL     1       2.663   7.169  19.029  0.00  0.00    +0.000 N 
ATOM      2  C   UNL     1       2.184   8.372  18.528  0.00  0.00    +0.000 C 
ATOM      3  O   UNL     1       1.928   8.622  17.354  0.00  0.00    +0.000 OA
ATOM      4  H   UNL     1       2.815   7.101  20.032  0.00  0.00    +0.000 HD
ENDROOT
BRANCH   1   9
ATOM      5  C   UNL     1       4.434   4.648  16.998  0.00  0.00    +0.000 A 
ATOM      6  C   UNL     1       3.509   3.607  16.916  0.00  0.00    +0.000 A 
ATOM      7  C   UNL     1       2.258   3.768  17.507  0.00  0.00    +0.000 A 
ATOM      8  C   UNL     1       1.950   4.946  18.195  0.00  0.00    +0.000 A 
ATOM      9  C   UNL     1       2.885   5.981  18.302  0.00  0.00    +0.000 A 
ATOM     10  C   UNL     1       4.129   5.831  17.681  0.00  0.00    +0.000 A 
BRANCH   5  11
ATOM     11  S   UNL     1       6.049   4.453  16.298  0.00  0.00    +0.000 S 
ATOM     12  O   UNL     1       5.992   3.415  15.303  0.00  0.00    +0.000 OA
ATOM     13  O   UNL     1       7.034   4.492  17.351  0.00  0.00    +0.000 OA
BRANCH  11  14
ATOM     14  N   UNL     1       6.227   5.877  15.434  0.00  0.00    +0.000 NA
ATOM     15  H   UNL     1       6.338   6.659  16.078  0.00  0.00    +0.000 HD
ATOM     16  H   UNL     1       5.445   5.983  14.788  0.00  0.00    +0.000 HD
ENDBRANCH  11  14
ENDBRANCH   5  11
ENDBRANCH   1   9
BRANCH   2  17
ATOM     17  C   UNL     1       1.981   9.455  19.578  0.00  0.00    +0.000 C 
ATOM     18  C   UNL     1       1.380   8.910  20.857  0.00  0.00    +0.000 C 
ATOM     19  C   UNL     1      -0.083   9.234  20.726  0.00  0.00    +0.000 C 
ATOM     20  O   UNL     1      -0.942   8.744  21.443  0.00  0.00    +0.000 OA
ATOM     21  N   UNL     1      -0.270  10.140  19.673  0.00  0.00    +0.000 N 
ATOM     22  C   UNL     1       1.020  10.541  19.130  0.00  0.00    +0.000 C 
BRANCH  21  23
ATOM     23  C   UNL     1      -1.321  11.117  19.682  0.00  0.00    +0.000 A 
ATOM     24  C   UNL     1      -2.235  11.128  18.612  0.00  0.00    +0.000 A 
ATOM     25  C   UNL     1      -3.427  11.838  18.692  0.00  0.00    +0.000 A 
ATOM     26  C   UNL     1      -3.774  12.440  19.891  0.00  0.00    +0.000 A 
ATOM     27  C   UNL     1      -2.859  12.491  20.949  0.00  0.00    +0.000 A 
ATOM     28  C   UNL     1      -3.217  13.144  22.127  0.00  0.00    +0.000 A 
ATOM     29  C   UNL     1      -2.244  13.773  22.882  0.00  0.00    +0.000 A 
ATOM     30  C   UNL     1      -0.916  13.435  22.672  0.00  0.00    +0.000 A 
ATOM     31  C   UNL     1      -0.595  12.436  21.738  0.00  0.00    +0.000 A 
ATOM     32  C   UNL     1      -1.558  11.971  20.802  0.00  0.00    +0.000 A 
ENDBRANCH  21  23
ENDBRANCH   2  17
TORSDOF 5
ENDMDL
