MODEL 1
REMARK VINA RESULT:      -9.5      0.000      0.000
REMARK  Name = 
REMARK  5 active torsions:
REMARK  status: ('A' for Active; 'I' for Inactive)
REMARK    1  A    between atoms: C_1  and  C_2
REMARK    2  A    between atoms: C_6  and  C_7
REMARK    3  A    between atoms: N_13  and  C_14
REMARK    4  A    between atoms: C_18  and  C_19
REMARK    5  A    between atoms: C_19  and  C_20
REMARK                            x       y       z     vdW  Elec       q    Type
REMARK                         _______ _______ _______ _____ _____    ______ ____
ROOT
ATOM      1  C   UNL     1      -0.786  12.488  18.440  0.00  0.00    +0.000 C 
ATOM      2  C   UNL     1      -0.178  11.273  19.080  0.00  0.00    +0.000 A 
ATOM      3  C   UNL     1       0.673  10.450  18.349  0.00  0.00    +0.000 A 
ATOM      4  C   UNL     1       1.199   9.338  18.977  0.00  0.00    +0.000 A 
ATOM      5  C   UNL     1       0.928   8.991  20.296  0.00  0.00    +0.000 A 
ATOM      6  C   UNL     1       0.102   9.812  21.059  0.00  0.00    +0.000 A 
ATOM      7  C   UNL     1      -0.450  10.955  20.429  0.00  0.00    +0.000 A 
ATOM      8  C   UNL     1       1.630   7.700  20.614  0.00  0.00    +0.000 C 
ATOM      9  N   UNL     1       2.303   7.361  19.360  0.00  0.00    +0.000 N 
ATOM     10  C   UNL     1       2.083   8.342  18.392  0.00  0.00    +0.000 C 
ATOM     11  O   UNL     1       2.490   8.455  17.251  0.00  0.00    +0.000 OA
ENDROOT
BRANCH   9  12
ATOM     12  C   UNL     1       2.968   6.126  19.130  0.00  0.00    +0.000 A 
ATOM     13  C   UNL     1       2.288   4.910  19.292  0.00  0.00    +0.000 A 
ATOM     14  C   UNL     1       2.930   3.682  19.141  0.00  0.00    +0.000 A 
ATOM     15  C   UNL     1       4.280   3.641  18.824  0.00  0.00    +0.000 A 
ATOM     16  C   UNL     1       4.997   4.831  18.648  0.00  0.00    +0.000 A 
ATOM     17  C   UNL     1       4.328   6.068  18.785  0.00  0.00    +0.000 A 
BRANCH  16  18
ATOM     18  C   UNL     1       6.468   4.760  18.303  0.00  0.00    +0.000 C 
BRANCH  18  19
ATOM     19  C   UNL     1       6.739   4.900  16.853  0.00  0.00    +0.000 A 
ATOM     20  N   UNL     1       7.418   5.851  16.237  0.00  0.00    +0.000 NA
ATOM     21  N   UNL     1       7.363   5.597  14.876  0.00  0.00    +0.000 NA
ATOM     22  C   UNL     1       6.654   4.502  14.702  0.00  0.00    +0.000 A 
ATOM     23  N   UNL     1       6.278   4.037  15.912  0.00  0.00    +0.000 N 
ATOM     24  F   UNL     1       5.531   2.949  16.132  0.00  0.00    +0.000 F 
ENDBRANCH  18  19
ENDBRANCH  16  18
ENDBRANCH   9  12
BRANCH   6  25
ATOM     25  C   UNL     1      -0.218   9.548  22.506  0.00  0.00    +0.000 C 
ATOM     26  F   UNL     1      -0.996  10.506  23.077  0.00  0.00    +0.000 F 
ATOM     27  F   UNL     1      -0.884   8.373  22.680  0.00  0.00    +0.000 F 
ATOM     28  F   UNL     1       0.900   9.461  23.279  0.00  0.00    +0.000 F 
ENDBRANCH   6  25
TORSDOF 4
ENDMDL
MODEL 2
REMARK VINA RESULT:      -9.5      2.745      3.733
REMARK  Name = 
REMARK  5 active torsions:
REMARK  status: ('A' for Active; 'I' for Inactive)
REMARK    1  A    between atoms: C_1  and  C_2
REMARK    2  A    between atoms: C_6  and  C_7
REMARK    3  A    between atoms: N_13  and  C_14
REMARK    4  A    between atoms: C_18  and  C_19
REMARK    5  A    between atoms: C_19  and  C_20
REMARK                            x       y       z     vdW  Elec       q    Type
REMARK                         _______ _______ _______ _____ _____    ______ ____
ROOT
ATOM      1  C   UNL     1      -1.122  13.226  19.365  0.00  0.00    +0.000 C 
ATOM      2  C   UNL     1      -0.455  11.918  19.678  0.00  0.00    +0.000 A 
ATOM      3  C   UNL     1       0.399  11.328  18.750  0.00  0.00    +0.000 A 
ATOM      4  C   UNL     1       0.980  10.120  19.079  0.00  0.00    +0.000 A 
ATOM      5  C   UNL     1       0.763   9.455  20.281  0.00  0.00    +0.000 A 
ATOM      6  C   UNL     1      -0.064  10.036  21.238  0.00  0.00    +0.000 A 
ATOM      7  C   UNL     1      -0.672  11.275  20.916  0.00  0.00    +0.000 A 
ATOM      8  C   UNL     1       1.517   8.154  20.261  0.00  0.00    +0.000 C 
ATOM      9  N   UNL     1       2.159   8.153  18.947  0.00  0.00    +0.000 N 
ATOM     10  C   UNL     1       1.877   9.329  18.250  0.00  0.00    +0.000 C 
ATOM     11  O   UNL     1       2.242   9.729  17.160  0.00  0.00    +0.000 OA
ENDROOT
BRANCH   9  12
ATOM     12  C   UNL     1       2.856   7.036  18.410  0.00  0.00    +0.000 A 
ATOM     13  C   UNL     1       3.928   7.224  17.525  0.00  0.00    +0.000 A 
ATOM     14  C   UNL     1       4.588   6.150  16.930  0.00  0.00    +0.000 A 
ATOM     15  C   UNL     1       4.186   4.852  17.206  0.00  0.00    +0.000 A 
ATOM     16  C   UNL     1       3.125   4.618  18.089  0.00  0.00    +0.000 A 
ATOM     17  C   UNL     1       2.478   5.716  18.701  0.00  0.00    +0.000 A 
BRANCH  16  18
ATOM     18  C   UNL     1       2.706   3.193  18.375  0.00  0.00    +0.000 C 
BRANCH  18  19
ATOM     19  C   UNL     1       2.534   2.909  19.819  0.00  0.00    +0.000 A 
ATOM     20  N   UNL     1       3.448   2.526  20.691  0.00  0.00    +0.000 NA
ATOM     21  N   UNL     1       2.817   2.331  21.909  0.00  0.00    +0.000 NA
ATOM     22  C   UNL     1       1.540   2.600  21.745  0.00  0.00    +0.000 A 
ATOM     23  N   UNL     1       1.343   2.985  20.466  0.00  0.00    +0.000 N 
ATOM     24  F   UNL     1       0.167   3.324  19.925  0.00  0.00    +0.000 F 
ENDBRANCH  18  19
ENDBRANCH  16  18
ENDBRANCH   9  12
BRANCH   6  25
ATOM     25  C   UNL     1      -0.328   9.419  22.586  0.00  0.00    +0.000 C 
ATOM     26  F   UNL     1      -1.096  10.193  23.400  0.00  0.00    +0.000 F 
ATOM     27  F   UNL     1      -0.975   8.225  22.488  0.00  0.00    +0.000 F 
ATOM     28  F   UNL     1       0.817   9.169  23.277  0.00  0.00    +0.000 F 
ENDBRANCH   6  25
TORSDOF 4
ENDMDL
MODEL 3
REMARK VINA RESULT:      -9.4      1.401      1.846
REMARK  Name = 
REMARK  5 active torsions:
REMARK  status: ('A' for Active; 'I' for Inactive)
REMARK    1  A    between atoms: C_1  and  C_2
REMARK    2  A    between atoms: C_6  and  C_7
REMARK    3  A    between atoms: N_13  and  C_14
REMARK    4  A    between atoms: C_18  and  C_19
REMARK    5  A    between atoms: C_19  and  C_20
REMARK                            x       y       z     vdW  Elec       q    Type
REMARK                         _______ _______ _______ _____ _____    ______ ____
ROOT
ATOM      1  C   UNL     1      -0.818  12.651  18.697  0.00  0.00    +0.000 C 
ATOM      2  C   UNL     1      -0.233  11.413  19.313  0.00  0.00    +0.000 A 
ATOM      3  C   UNL     1       0.596  10.583  18.563  0.00  0.00    +0.000 A 
ATOM      4  C   UNL     1       1.101   9.450  19.170  0.00  0.00    +0.000 A 
ATOM      5  C   UNL     1       0.830   9.087  20.484  0.00  0.00    +0.000 A 
ATOM      6  C   UNL     1       0.026   9.913  21.265  0.00  0.00    +0.000 A 
ATOM      7  C   UNL     1      -0.504  11.078  20.657  0.00  0.00    +0.000 A 
ATOM      8  C   UNL     1       1.506   7.776  20.777  0.00  0.00    +0.000 C 
ATOM      9  N   UNL     1       2.163   7.444  19.513  0.00  0.00    +0.000 N 
ATOM     10  C   UNL     1       1.960   8.445  18.563  0.00  0.00    +0.000 C 
ATOM     11  O   UNL     1       2.362   8.568  17.421  0.00  0.00    +0.000 OA
ENDROOT
BRANCH   9  12
ATOM     12  C   UNL     1       2.801   6.198  19.259  0.00  0.00    +0.000 A 
ATOM     13  C   UNL     1       2.276   5.009  19.787  0.00  0.00    +0.000 A 
ATOM     14  C   UNL     1       2.914   3.782  19.613  0.00  0.00    +0.000 A 
ATOM     15  C   UNL     1       4.104   3.715  18.903  0.00  0.00    +0.000 A 
ATOM     16  C   UNL     1       4.660   4.876  18.353  0.00  0.00    +0.000 A 
ATOM     17  C   UNL     1       3.991   6.110  18.521  0.00  0.00    +0.000 A 
BRANCH  16  18
ATOM     18  C   UNL     1       5.958   4.777  17.582  0.00  0.00    +0.000 C 
BRANCH  18  19
ATOM     19  C   UNL     1       6.756   6.024  17.612  0.00  0.00    +0.000 A 
ATOM     20  N   UNL     1       6.852   6.956  16.681  0.00  0.00    +0.000 NA
ATOM     21  N   UNL     1       7.753   7.909  17.126  0.00  0.00    +0.000 NA
ATOM     22  C   UNL     1       8.180   7.533  18.313  0.00  0.00    +0.000 A 
ATOM     23  N   UNL     1       7.558   6.383  18.647  0.00  0.00    +0.000 N 
ATOM     24  F   UNL     1       7.749   5.693  19.777  0.00  0.00    +0.000 F 
ENDBRANCH  18  19
ENDBRANCH  16  18
ENDBRANCH   9  12
BRANCH   6  25
ATOM     25  C   UNL     1      -0.291   9.632  22.710  0.00  0.00    +0.000 C 
ATOM     26  F   UNL     1      -1.012   8.495  22.900  0.00  0.00    +0.000 F 
ATOM     27  F   UNL     1       0.833   9.492  23.465  0.00  0.00    +0.000 F 
ATOM     28  F   UNL     1      -1.008  10.633  23.290  0.00  0.00    +0.000 F 
ENDBRANCH   6  25
TORSDOF 4
ENDMDL
MODEL 4
REMARK VINA RESULT:      -9.3      2.652      3.757
REMARK  Name = 
REMARK  5 active torsions:
REMARK  status: ('A' for Active; 'I' for Inactive)
REMARK    1  A    between atoms: C_1  and  C_2
REMARK    2  A    between atoms: C_6  and  C_7
REMARK    3  A    between atoms: N_13  and  C_14
REMARK    4  A    between atoms: C_18  and  C_19
REMARK    5  A    between atoms: C_19  and  C_20
REMARK                            x       y       z     vdW  Elec       q    Type
REMARK                         _______ _______ _______ _____ _____    ______ ____
ROOT
ATOM      1  C   UNL     1      -0.879  13.551  19.578  0.00  0.00    +0.000 C 
ATOM      2  C   UNL     1      -0.292  12.195  19.845  0.00  0.00    +0.000 A 
ATOM      3  C   UNL     1       0.528  11.589  18.897  0.00  0.00    +0.000 A 
ATOM      4  C   UNL     1       1.035  10.337  19.184  0.00  0.00    +0.000 A 
ATOM      5  C   UNL     1       0.775   9.644  20.361  0.00  0.00    +0.000 A 
ATOM      6  C   UNL     1      -0.019  10.239  21.338  0.00  0.00    +0.000 A 
ATOM      7  C   UNL     1      -0.551  11.523  21.059  0.00  0.00    +0.000 A 
ATOM      8  C   UNL     1       1.450   8.302  20.296  0.00  0.00    +0.000 C 
ATOM      9  N   UNL     1       2.095   8.310  18.983  0.00  0.00    +0.000 N 
ATOM     10  C   UNL     1       1.886   9.524  18.328  0.00  0.00    +0.000 C 
ATOM     11  O   UNL     1       2.278   9.940  17.253  0.00  0.00    +0.000 OA
ENDROOT
BRANCH   9  12
ATOM     12  C   UNL     1       2.726   7.173  18.407  0.00  0.00    +0.000 A 
ATOM     13  C   UNL     1       3.847   7.324  17.578  0.00  0.00    +0.000 A 
ATOM     14  C   UNL     1       4.447   6.236  16.946  0.00  0.00    +0.000 A 
ATOM     15  C   UNL     1       3.933   4.961  17.127  0.00  0.00    +0.000 A 
ATOM     16  C   UNL     1       2.819   4.763  17.951  0.00  0.00    +0.000 A 
ATOM     17  C   UNL     1       2.233   5.873  18.602  0.00  0.00    +0.000 A 
BRANCH  16  18
ATOM     18  C   UNL     1       2.278   3.362  18.133  0.00  0.00    +0.000 C 
BRANCH  18  19
ATOM     19  C   UNL     1       2.096   2.982  19.553  0.00  0.00    +0.000 A 
ATOM     20  N   UNL     1       0.966   2.831  20.221  0.00  0.00    +0.000 NA
ATOM     21  N   UNL     1       1.287   2.524  21.533  0.00  0.00    +0.000 NA
ATOM     22  C   UNL     1       2.599   2.496  21.628  0.00  0.00    +0.000 A 
ATOM     23  N   UNL     1       3.123   2.751  20.410  0.00  0.00    +0.000 N 
ATOM     24  F   UNL     1       4.427   2.820  20.121  0.00  0.00    +0.000 F 
ENDBRANCH  18  19
ENDBRANCH  16  18
ENDBRANCH   9  12
BRANCH   6  25
ATOM     25  C   UNL     1      -0.324   9.592  22.662  0.00  0.00    +0.000 C 
ATOM     26  F   UNL     1       0.778   9.376  23.431  0.00  0.00    +0.000 F 
ATOM     27  F   UNL     1      -1.166  10.346  23.422  0.00  0.00    +0.000 F 
ATOM     28  F   UNL     1      -0.928   8.381  22.524  0.00  0.00    +0.000 F 
ENDBRANCH   6  25
TORSDOF 4
ENDMDL
MODEL 5
REMARK VINA RESULT:      -9.1      0.896      1.318
REMARK  Name = 
REMARK  5 active torsions:
REMARK  status: ('A' for Active; 'I' for Inactive)
REMARK    1  A    between atoms: C_1  and  C_2
REMARK    2  A    between atoms: C_6  and  C_7
REMARK    3  A    between atoms: N_13  and  C_14
REMARK    4  A    between atoms: C_18  and  C_19
REMARK    5  A    between atoms: C_19  and  C_20
REMARK                            x       y       z     vdW  Elec       q    Type
REMARK                         _______ _______ _______ _____ _____    ______ ____
ROOT
ATOM      1  C   UNL     1      -0.344  12.796  18.601  0.00  0.00    +0.000 C 
ATOM      2  C   UNL     1       0.121  11.499  19.199  0.00  0.00    +0.000 A 
ATOM      3  C   UNL     1       0.907  10.627  18.451  0.00  0.00    +0.000 A 
ATOM      4  C   UNL     1       1.300   9.442  19.040  0.00  0.00    +0.000 A 
ATOM      5  C   UNL     1       0.958   9.066  20.334  0.00  0.00    +0.000 A 
ATOM      6  C   UNL     1       0.195   9.932  21.114  0.00  0.00    +0.000 A 
ATOM      7  C   UNL     1      -0.220  11.152  20.524  0.00  0.00    +0.000 A 
ATOM      8  C   UNL     1       1.518   7.698  20.609  0.00  0.00    +0.000 C 
ATOM      9  N   UNL     1       2.189   7.349  19.357  0.00  0.00    +0.000 N 
ATOM     10  C   UNL     1       2.098   8.388  18.431  0.00  0.00    +0.000 C 
ATOM     11  O   UNL     1       2.546   8.509  17.306  0.00  0.00    +0.000 OA
ENDROOT
BRANCH   9  12
ATOM     12  C   UNL     1       2.735   6.063  19.087  0.00  0.00    +0.000 A 
ATOM     13  C   UNL     1       1.954   4.910  19.250  0.00  0.00    +0.000 A 
ATOM     14  C   UNL     1       2.479   3.632  19.059  0.00  0.00    +0.000 A 
ATOM     15  C   UNL     1       3.809   3.478  18.700  0.00  0.00    +0.000 A 
ATOM     16  C   UNL     1       4.624   4.602  18.520  0.00  0.00    +0.000 A 
ATOM     17  C   UNL     1       4.073   5.892  18.698  0.00  0.00    +0.000 A 
BRANCH  16  18
ATOM     18  C   UNL     1       6.072   4.407  18.128  0.00  0.00    +0.000 C 
BRANCH  18  19
ATOM     19  C   UNL     1       6.291   4.423  16.663  0.00  0.00    +0.000 A 
ATOM     20  N   UNL     1       5.890   3.540  15.767  0.00  0.00    +0.000 NA
ATOM     21  N   UNL     1       6.371   3.941  14.531  0.00  0.00    +0.000 NA
ATOM     22  C   UNL     1       7.050   5.055  14.709  0.00  0.00    +0.000 A 
ATOM     23  N   UNL     1       6.994   5.388  16.015  0.00  0.00    +0.000 N 
ATOM     24  F   UNL     1       7.580   6.452  16.575  0.00  0.00    +0.000 F 
ENDBRANCH  18  19
ENDBRANCH  16  18
ENDBRANCH   9  12
BRANCH   6  25
ATOM     25  C   UNL     1      -0.191   9.639  22.538  0.00  0.00    +0.000 C 
ATOM     26  F   UNL     1       0.873   9.430  23.361  0.00  0.00    +0.000 F 
ATOM     27  F   UNL     1      -0.902  10.656  23.099  0.00  0.00    +0.000 F 
ATOM     28  F   UNL     1      -0.973   8.530  22.648  0.00  0.00    +0.000 F 
ENDBRANCH   6  25
TORSDOF 4
ENDMDL
MODEL 6
REMARK VINA RESULT:      -9.0      1.084      1.224
REMARK  Name = 
REMARK  5 active torsions:
REMARK  status: ('A' for Active; 'I' for Inactive)
REMARK    1  A    between atoms: C_1  and  C_2
REMARK    2  A    between atoms: C_6  and  C_7
REMARK    3  A    between atoms: N_13  and  C_14
REMARK    4  A    between atoms: C_18  and  C_19
REMARK    5  A    between atoms: C_19  and  C_20
REMARK                            x       y       z     vdW  Elec       q    Type
REMARK                         _______ _______ _______ _____ _____    ______ ____
ROOT
ATOM      1  C   UNL     1       0.167  12.804  18.609  0.00  0.00    +0.000 C 
ATOM      2  C   UNL     1       0.480  11.487  19.261  0.00  0.00    +0.000 A 
ATOM      3  C   UNL     1       1.203  10.519  18.569  0.00  0.00    +0.000 A 
ATOM      4  C   UNL     1       1.456   9.321  19.206  0.00  0.00    +0.000 A 
ATOM      5  C   UNL     1       1.031   9.021  20.496  0.00  0.00    +0.000 A 
ATOM      6  C   UNL     1       0.329   9.982  21.220  0.00  0.00    +0.000 A 
ATOM      7  C   UNL     1       0.057  11.217  20.580  0.00  0.00    +0.000 A 
ATOM      8  C   UNL     1       1.443   7.614  20.831  0.00  0.00    +0.000 C 
ATOM      9  N   UNL     1       2.122   7.162  19.617  0.00  0.00    +0.000 N 
ATOM     10  C   UNL     1       2.167   8.176  18.659  0.00  0.00    +0.000 C 
ATOM     11  O   UNL     1       2.666   8.217  17.550  0.00  0.00    +0.000 OA
ENDROOT
BRANCH   9  12
ATOM     12  C   UNL     1       2.548   5.822  19.404  0.00  0.00    +0.000 A 
ATOM     13  C   UNL     1       2.579   4.907  20.468  0.00  0.00    +0.000 A 
ATOM     14  C   UNL     1       3.055   3.607  20.306  0.00  0.00    +0.000 A 
ATOM     15  C   UNL     1       3.518   3.188  19.068  0.00  0.00    +0.000 A 
ATOM     16  C   UNL     1       3.500   4.066  17.978  0.00  0.00    +0.000 A 
ATOM     17  C   UNL     1       2.996   5.375  18.151  0.00  0.00    +0.000 A 
BRANCH  16  18
ATOM     18  C   UNL     1       4.010   3.585  16.637  0.00  0.00    +0.000 C 
BRANCH  18  19
ATOM     19  C   UNL     1       5.376   4.064  16.322  0.00  0.00    +0.000 A 
ATOM     20  N   UNL     1       6.367   4.318  17.158  0.00  0.00    +0.000 NA
ATOM     21  N   UNL     1       7.436   4.795  16.417  0.00  0.00    +0.000 NA
ATOM     22  C   UNL     1       7.068   4.817  15.153  0.00  0.00    +0.000 A 
ATOM     23  N   UNL     1       5.806   4.346  15.065  0.00  0.00    +0.000 N 
ATOM     24  F   UNL     1       5.091   4.235  13.940  0.00  0.00    +0.000 F 
ENDBRANCH  18  19
ENDBRANCH  16  18
ENDBRANCH   9  12
BRANCH   6  25
ATOM     25  C   UNL     1      -0.136   9.773  22.636  0.00  0.00    +0.000 C 
ATOM     26  F   UNL     1      -0.756  10.858  23.174  0.00  0.00    +0.000 F 
ATOM     27  F   UNL     1      -1.024   8.746  22.740  0.00  0.00    +0.000 F 
ATOM     28  F   UNL     1       0.887   9.468  23.481  0.00  0.00    +0.000 F 
ENDBRANCH   6  25
TORSDOF 4
ENDMDL
MODEL 7
REMARK VINA RESULT:      -8.9      2.599      3.426
REMARK  Name = 
REMARK  5 active torsions:
REMARK  status: ('A' for Active; 'I' for Inactive)
REMARK    1  A    between atoms: C_1  and  C_2
REMARK    2  A    between atoms: C_6  and  C_7
REMARK    3  A    between atoms: N_13  and  C_14
REMARK    4  A    between atoms: C_18  and  C_19
REMARK    5  A    between atoms: C_19  and  C_20
REMARK                            x       y       z     vdW  Elec       q    Type
REMARK                         _______ _______ _______ _____ _____    ______ ____
ROOT
ATOM      1  C   UNL     1      -0.125   9.728  23.436  0.00  0.00    +0.000 C 
ATOM      2  C   UNL     1       0.414   9.314  22.096  0.00  0.00    +0.000 A 
ATOM      3  C   UNL     1       0.874   8.015  21.898  0.00  0.00    +0.000 A 
ATOM      4  C   UNL     1       1.371   7.686  20.653  0.00  0.00    +0.000 A 
ATOM      5  C   UNL     1       1.439   8.573  19.584  0.00  0.00    +0.000 A 
ATOM      6  C   UNL     1       0.960   9.870  19.746  0.00  0.00    +0.000 A 
ATOM      7  C   UNL     1       0.451  10.227  21.020  0.00  0.00    +0.000 A 
ATOM      8  C   UNL     1       2.081   7.879  18.414  0.00  0.00    +0.000 C 
ATOM      9  N   UNL     1       2.367   6.540  18.930  0.00  0.00    +0.000 N 
ATOM     10  C   UNL     1       1.919   6.402  20.244  0.00  0.00    +0.000 C 
ATOM     11  O   UNL     1       1.931   5.452  21.006  0.00  0.00    +0.000 OA
ENDROOT
BRANCH   9  12
ATOM     12  C   UNL     1       3.126   5.568  18.222  0.00  0.00    +0.000 A 
ATOM     13  C   UNL     1       2.508   4.420  17.705  0.00  0.00    +0.000 A 
ATOM     14  C   UNL     1       3.236   3.417  17.065  0.00  0.00    +0.000 A 
ATOM     15  C   UNL     1       4.610   3.539  16.930  0.00  0.00    +0.000 A 
ATOM     16  C   UNL     1       5.268   4.671  17.427  0.00  0.00    +0.000 A 
ATOM     17  C   UNL     1       4.514   5.689  18.055  0.00  0.00    +0.000 A 
BRANCH  16  18
ATOM     18  C   UNL     1       6.768   4.780  17.266  0.00  0.00    +0.000 C 
BRANCH  18  19
ATOM     19  C   UNL     1       7.288   6.144  17.521  0.00  0.00    +0.000 A 
ATOM     20  N   UNL     1       7.270   7.190  16.715  0.00  0.00    +0.000 NA
ATOM     21  N   UNL     1       7.916   8.233  17.359  0.00  0.00    +0.000 NA
ATOM     22  C   UNL     1       8.308   7.794  18.536  0.00  0.00    +0.000 A 
ATOM     23  N   UNL     1       7.909   6.512  18.671  0.00  0.00    +0.000 N 
ATOM     24  F   UNL     1       8.141   5.730  19.732  0.00  0.00    +0.000 F 
ENDBRANCH  18  19
ENDBRANCH  16  18
ENDBRANCH   9  12
BRANCH   6  25
ATOM     25  C   UNL     1       0.949  10.892  18.641  0.00  0.00    +0.000 C 
ATOM     26  F   UNL     1       0.454  12.101  19.019  0.00  0.00    +0.000 F 
ATOM     27  F   UNL     1       2.196  11.135  18.152  0.00  0.00    +0.000 F 
ATOM     28  F   UNL     1       0.200  10.497  17.575  0.00  0.00    +0.000 F 
ENDBRANCH   6  25
TORSDOF 4
ENDMDL
MODEL 8
REMARK VINA RESULT:      -8.7      3.342      8.446
REMARK  Name = 
REMARK  5 active torsions:
REMARK  status: ('A' for Active; 'I' for Inactive)
REMARK    1  A    between atoms: C_1  and  C_2
REMARK    2  A    between atoms: C_6  and  C_7
REMARK    3  A    between atoms: N_13  and  C_14
REMARK    4  A    between atoms: C_18  and  C_19
REMARK    5  A    between atoms: C_19  and  C_20
REMARK                            x       y       z     vdW  Elec       q    Type
REMARK                         _______ _______ _______ _____ _____    ______ ____
ROOT
ATOM      1  C   UNL     1       3.731   1.500  17.930  0.00  0.00    +0.000 C 
ATOM      2  C   UNL     1       3.677   3.000  17.982  0.00  0.00    +0.000 A 
ATOM      3  C   UNL     1       2.896   3.639  18.941  0.00  0.00    +0.000 A 
ATOM      4  C   UNL     1       2.870   5.019  18.942  0.00  0.00    +0.000 A 
ATOM      5  C   UNL     1       3.576   5.810  18.043  0.00  0.00    +0.000 A 
ATOM      6  C   UNL     1       4.387   5.198  17.091  0.00  0.00    +0.000 A 
ATOM      7  C   UNL     1       4.422   3.781  17.073  0.00  0.00    +0.000 A 
ATOM      8  C   UNL     1       3.264   7.256  18.315  0.00  0.00    +0.000 C 
ATOM      9  N   UNL     1       2.322   7.194  19.433  0.00  0.00    +0.000 N 
ATOM     10  C   UNL     1       2.107   5.876  19.837  0.00  0.00    +0.000 C 
ATOM     11  O   UNL     1       1.436   5.407  20.737  0.00  0.00    +0.000 OA
ENDROOT
BRANCH   9  12
ATOM     12  C   UNL     1       1.620   8.325  19.935  0.00  0.00    +0.000 A 
ATOM     13  C   UNL     1       1.325   8.430  21.302  0.00  0.00    +0.000 A 
ATOM     14  C   UNL     1       0.580   9.491  21.815  0.00  0.00    +0.000 A 
ATOM     15  C   UNL     1       0.107  10.478  20.965  0.00  0.00    +0.000 A 
ATOM     16  C   UNL     1       0.383  10.417  19.594  0.00  0.00    +0.000 A 
ATOM     17  C   UNL     1       1.156   9.345  19.091  0.00  0.00    +0.000 A 
BRANCH  16  18
ATOM     18  C   UNL     1      -0.145  11.507  18.687  0.00  0.00    +0.000 C 
BRANCH  18  19
ATOM     19  C   UNL     1      -1.611  11.447  18.488  0.00  0.00    +0.000 A 
ATOM     20  N   UNL     1      -2.549  12.139  19.110  0.00  0.00    +0.000 NA
ATOM     21  N   UNL     1      -3.778  11.712  18.634  0.00  0.00    +0.000 NA
ATOM     22  C   UNL     1      -3.555  10.774  17.738  0.00  0.00    +0.000 A 
ATOM     23  N   UNL     1      -2.221  10.610  17.611  0.00  0.00    +0.000 N 
ATOM     24  F   UNL     1      -1.616   9.732  16.802  0.00  0.00    +0.000 F 
ENDBRANCH  18  19
ENDBRANCH  16  18
ENDBRANCH   9  12
BRANCH   6  25
ATOM     25  C   UNL     1       5.224   5.964  16.102  0.00  0.00    +0.000 C 
ATOM     26  F   UNL     1       6.378   6.455  16.628  0.00  0.00    +0.000 F 
ATOM     27  F   UNL     1       5.595   5.198  15.039  0.00  0.00    +0.000 F 
ATOM     28  F   UNL     1       4.564   7.033  15.579  0.00  0.00    +0.000 F 
ENDBRANCH   6  25
TORSDOF 4
ENDMDL
MODEL 9
REMARK VINA RESULT:      -8.7      1.451      1.821
REMARK  Name = 
REMARK  5 active torsions:
REMARK  status: ('A' for Active; 'I' for Inactive)
REMARK    1  A    between atoms: C_1  and  C_2
REMARK    2  A    between atoms: C_6  and  C_7
REMARK    3  A    between atoms: N_13  and  C_14
REMARK    4  A    between atoms: C_18  and  C_19
REMARK    5  A    between atoms: C_19  and  C_20
REMARK                            x       y       z     vdW  Elec       q    Type
REMARK                         _______ _______ _______ _____ _____    ______ ____
ROOT
ATOM      1  C   UNL     1      -0.982  12.905  19.143  0.00  0.00    +0.000 C 
ATOM      2  C   UNL     1      -0.356  11.608  19.570  0.00  0.00    +0.000 A 
ATOM      3  C   UNL     1       0.400  10.866  18.666  0.00  0.00    +0.000 A 
ATOM      4  C   UNL     1       0.946   9.675  19.102  0.00  0.00    +0.000 A 
ATOM      5  C   UNL     1       0.786   9.171  20.388  0.00  0.00    +0.000 A 
ATOM      6  C   UNL     1       0.058   9.907  21.320  0.00  0.00    +0.000 A 
ATOM      7  C   UNL     1      -0.513  11.130  20.888  0.00  0.00    +0.000 A 
ATOM      8  C   UNL     1       1.475   7.838  20.478  0.00  0.00    +0.000 C 
ATOM      9  N   UNL     1       2.019   7.645  19.134  0.00  0.00    +0.000 N 
ATOM     10  C   UNL     1       1.743   8.743  18.319  0.00  0.00    +0.000 C 
ATOM     11  O   UNL     1       2.047   8.990  17.166  0.00  0.00    +0.000 OA
ENDROOT
BRANCH   9  12
ATOM     12  C   UNL     1       2.623   6.435  18.694  0.00  0.00    +0.000 A 
ATOM     13  C   UNL     1       1.847   5.423  18.112  0.00  0.00    +0.000 A 
ATOM     14  C   UNL     1       2.397   4.200  17.732  0.00  0.00    +0.000 A 
ATOM     15  C   UNL     1       3.748   3.957  17.930  0.00  0.00    +0.000 A 
ATOM     16  C   UNL     1       4.562   4.942  18.503  0.00  0.00    +0.000 A 
ATOM     17  C   UNL     1       3.994   6.185  18.865  0.00  0.00    +0.000 A 
BRANCH  16  18
ATOM     18  C   UNL     1       6.033   4.654  18.709  0.00  0.00    +0.000 C 
BRANCH  18  19
ATOM     19  C   UNL     1       6.905   5.817  18.425  0.00  0.00    +0.000 A 
ATOM     20  N   UNL     1       7.872   6.316  19.174  0.00  0.00    +0.000 NA
ATOM     21  N   UNL     1       8.374   7.435  18.529  0.00  0.00    +0.000 NA
ATOM     22  C   UNL     1       7.701   7.586  17.408  0.00  0.00    +0.000 A 
ATOM     23  N   UNL     1       6.803   6.582  17.308  0.00  0.00    +0.000 N 
ATOM     24  F   UNL     1       5.930   6.413  16.309  0.00  0.00    +0.000 F 
ENDBRANCH  18  19
ENDBRANCH  16  18
ENDBRANCH   9  12
BRANCH   6  25
ATOM     25  C   UNL     1      -0.136   9.471  22.747  0.00  0.00    +0.000 C 
ATOM     26  F   UNL     1      -0.799   8.289  22.872  0.00  0.00    +0.000 F 
ATOM     27  F   UNL     1       1.047   9.307  23.401  0.00  0.00    +0.000 F 
ATOM     28  F   UNL     1      -0.844  10.377  23.476  0.00  0.00    +0.000 F 
ENDBRANCH   6  25
TORSDOF 4
ENDMDL
