MODEL 1
REMARK VINA RESULT:      -9.2      0.000      0.000
REMARK  Name = 
REMARK  8 active torsions:
REMARK  status: ('A' for Active; 'I' for Inactive)
REMARK    1  A    between atoms: C_1  and  N_2
REMARK    2  A    between atoms: C_6  and  C_7
REMARK    3  A    between atoms: C_7  and  C_8
REMARK    4  A    between atoms: C_8  and  C_9
REMARK    5  A    between atoms: C_13  and  N_14
REMARK    6  A    between atoms: N_14  and  C_15
REMARK    7  A    between atoms: C_15  and  C_16
REMARK    8  A    between atoms: C_21  and  C_22
REMARK                            x       y       z     vdW  Elec       q    Type
REMARK                         _______ _______ _______ _____ _____    ______ ____
ROOT
ATOM      1  C   UNL     1       4.615   4.717  17.502  0.00  0.00    +0.000 A 
ATOM      2  C   UNL     1       3.657   3.785  17.072  0.00  0.00    +0.000 A 
ATOM      3  C   UNL     1       2.417   3.676  17.707  0.00  0.00    +0.000 A 
ATOM      4  C   UNL     1       2.090   4.509  18.780  0.00  0.00    +0.000 A 
ATOM      5  C   UNL     1       2.996   5.474  19.221  0.00  0.00    +0.000 A 
ATOM      6  C   UNL     1       4.246   5.525  18.595  0.00  0.00    +0.000 A 
ENDROOT
BRANCH   1   7
ATOM      7  C   UNL     1       6.063   4.886  16.834  0.00  0.00    +0.000 C 
ATOM      8  C   UNL     1       6.665   6.309  16.686  0.00  0.00    +0.000 C 
ATOM      9  O   UNL     1       7.789   5.994  17.538  0.00  0.00    +0.000 OA
ATOM     10  C   UNL     1       7.263   4.683  17.811  0.00  0.00    +0.000 C 
BRANCH   7  11
ATOM     11  C   UNL     1       6.190   3.965  15.607  0.00  0.00    +0.000 C 
BRANCH  11  17
ATOM     12  C   UNL     1       5.715   3.345  12.513  0.00  0.00    +0.000 C 
ATOM     13  N   UNL     1       6.659   4.258  13.099  0.00  0.00    +0.000 N 
ATOM     14  C   UNL     1       7.582   4.973  12.396  0.00  0.00    +0.000 A 
ATOM     15  N   UNL     1       8.281   5.719  13.217  0.00  0.00    +0.000 NA
ATOM     16  N   UNL     1       7.822   5.475  14.487  0.00  0.00    +0.000 NA
ATOM     17  C   UNL     1       6.856   4.579  14.421  0.00  0.00    +0.000 A 
ENDBRANCH  11  17
ENDBRANCH   7  11
ENDBRANCH   1   7
BRANCH   5  18
ATOM     18  N   UNL     1       2.810   6.336  20.301  0.00  0.00    +0.000 N 
ATOM     19  H   UNL     1       3.159   5.880  21.148  0.00  0.00    +0.000 HD
BRANCH  18  20
ATOM     20  C   UNL     1       1.501   6.908  20.553  0.00  0.00    +0.000 C 
BRANCH  20  21
ATOM     21  C   UNL     1       1.423   8.311  19.976  0.00  0.00    +0.000 A 
ATOM     22  C   UNL     1       1.949   8.508  18.680  0.00  0.00    +0.000 A 
ATOM     23  C   UNL     1       1.823   9.729  18.017  0.00  0.00    +0.000 A 
ATOM     24  C   UNL     1       1.172  10.786  18.635  0.00  0.00    +0.000 A 
ATOM     25  C   UNL     1       0.694  10.635  19.935  0.00  0.00    +0.000 A 
ATOM     26  C   UNL     1       0.830   9.413  20.635  0.00  0.00    +0.000 A 
BRANCH  26  27
ATOM     27  C   UNL     1       0.334   9.404  22.064  0.00  0.00    +0.000 C 
ATOM     28  F   UNL     1      -0.696   8.551  22.330  0.00  0.00    +0.000 F 
ATOM     29  F   UNL     1       1.317   9.069  22.948  0.00  0.00    +0.000 F 
ATOM     30  F   UNL     1      -0.109  10.631  22.462  0.00  0.00    +0.000 F 
ENDBRANCH  26  27
ENDBRANCH  20  21
ENDBRANCH  18  20
ENDBRANCH   5  18
TORSDOF 7
ENDMDL
MODEL 2
REMARK VINA RESULT:      -9.1      4.871      8.946
REMARK  Name = 
REMARK  8 active torsions:
REMARK  status: ('A' for Active; 'I' for Inactive)
REMARK    1  A    between atoms: C_1  and  N_2
REMARK    2  A    between atoms: C_6  and  C_7
REMARK    3  A    between atoms: C_7  and  C_8
REMARK    4  A    between atoms: C_8  and  C_9
REMARK    5  A    between atoms: C_13  and  N_14
REMARK    6  A    between atoms: N_14  and  C_15
REMARK    7  A    between atoms: C_15  and  C_16
REMARK    8  A    between atoms: C_21  and  C_22
REMARK                            x       y       z     vdW  Elec       q    Type
REMARK                         _______ _______ _______ _____ _____    ______ ____
ROOT
ATOM      1  C   UNL     1       0.899  10.061  19.428  0.00  0.00    +0.000 A 
ATOM      2  C   UNL     1       1.393  10.120  18.115  0.00  0.00    +0.000 A 
ATOM      3  C   UNL     1       2.157   9.078  17.581  0.00  0.00    +0.000 A 
ATOM      4  C   UNL     1       2.433   7.937  18.338  0.00  0.00    +0.000 A 
ATOM      5  C   UNL     1       1.936   7.817  19.636  0.00  0.00    +0.000 A 
ATOM      6  C   UNL     1       1.215   8.897  20.156  0.00  0.00    +0.000 A 
ENDROOT
BRANCH   1   7
ATOM      7  C   UNL     1       0.034  11.224  20.112  0.00  0.00    +0.000 C 
ATOM      8  C   UNL     1      -0.791  10.901  21.387  0.00  0.00    +0.000 C 
ATOM      9  O   UNL     1      -0.048  11.847  22.187  0.00  0.00    +0.000 OA
ATOM     10  C   UNL     1       0.830  12.146  21.088  0.00  0.00    +0.000 C 
BRANCH   7  11
ATOM     11  C   UNL     1      -0.684  12.054  19.033  0.00  0.00    +0.000 C 
BRANCH  11  17
ATOM     12  C   UNL     1      -2.061   9.947  17.071  0.00  0.00    +0.000 C 
ATOM     13  N   UNL     1      -2.700  10.866  17.974  0.00  0.00    +0.000 N 
ATOM     14  C   UNL     1      -4.048  11.034  18.082  0.00  0.00    +0.000 A 
ATOM     15  N   UNL     1      -4.309  11.933  18.999  0.00  0.00    +0.000 NA
ATOM     16  N   UNL     1      -3.109  12.379  19.492  0.00  0.00    +0.000 NA
ATOM     17  C   UNL     1      -2.135  11.751  18.861  0.00  0.00    +0.000 A 
ENDBRANCH  11  17
ENDBRANCH   7  11
ENDBRANCH   1   7
BRANCH   5  18
ATOM     18  N   UNL     1       2.172   6.754  20.507  0.00  0.00    +0.000 N 
ATOM     19  H   UNL     1       2.363   7.130  21.439  0.00  0.00    +0.000 HD
BRANCH  18  20
ATOM     20  C   UNL     1       3.162   5.748  20.168  0.00  0.00    +0.000 C 
BRANCH  20  21
ATOM     21  C   UNL     1       2.480   4.504  19.627  0.00  0.00    +0.000 A 
ATOM     22  C   UNL     1       1.397   3.984  20.370  0.00  0.00    +0.000 A 
ATOM     23  C   UNL     1       0.633   2.916  19.900  0.00  0.00    +0.000 A 
ATOM     24  C   UNL     1       0.933   2.338  18.676  0.00  0.00    +0.000 A 
ATOM     25  C   UNL     1       2.030   2.796  17.950  0.00  0.00    +0.000 A 
ATOM     26  C   UNL     1       2.834   3.863  18.417  0.00  0.00    +0.000 A 
BRANCH  26  27
ATOM     27  C   UNL     1       4.036   4.214  17.569  0.00  0.00    +0.000 C 
ATOM     28  F   UNL     1       4.047   5.473  17.047  0.00  0.00    +0.000 F 
ATOM     29  F   UNL     1       5.206   4.100  18.263  0.00  0.00    +0.000 F 
ATOM     30  F   UNL     1       4.168   3.382  16.496  0.00  0.00    +0.000 F 
ENDBRANCH  26  27
ENDBRANCH  20  21
ENDBRANCH  18  20
ENDBRANCH   5  18
TORSDOF 7
ENDMDL
MODEL 3
REMARK VINA RESULT:      -8.9      0.722      1.045
REMARK  Name = 
REMARK  8 active torsions:
REMARK  status: ('A' for Active; 'I' for Inactive)
REMARK    1  A    between atoms: C_1  and  N_2
REMARK    2  A    between atoms: C_6  and  C_7
REMARK    3  A    between atoms: C_7  and  C_8
REMARK    4  A    between atoms: C_8  and  C_9
REMARK    5  A    between atoms: C_13  and  N_14
REMARK    6  A    between atoms: N_14  and  C_15
REMARK    7  A    between atoms: C_15  and  C_16
REMARK    8  A    between atoms: C_21  and  C_22
REMARK                            x       y       z     vdW  Elec       q    Type
REMARK                         _______ _______ _______ _____ _____    ______ ____
ROOT
ATOM      1  C   UNL     1       4.343   4.706  17.414  0.00  0.00    +0.000 A 
ATOM      2  C   UNL     1       3.644   3.523  17.125  0.00  0.00    +0.000 A 
ATOM      3  C   UNL     1       2.648   3.044  17.981  0.00  0.00    +0.000 A 
ATOM      4  C   UNL     1       2.308   3.743  19.142  0.00  0.00    +0.000 A 
ATOM      5  C   UNL     1       2.952   4.941  19.453  0.00  0.00    +0.000 A 
ATOM      6  C   UNL     1       3.975   5.369  18.601  0.00  0.00    +0.000 A 
ENDROOT
BRANCH   1   7
ATOM      7  C   UNL     1       5.508   5.306  16.490  0.00  0.00    +0.000 C 
ATOM      8  C   UNL     1       5.279   6.662  15.771  0.00  0.00    +0.000 C 
ATOM      9  O   UNL     1       6.373   7.294  16.472  0.00  0.00    +0.000 OA
ATOM     10  C   UNL     1       6.604   6.110  17.256  0.00  0.00    +0.000 C 
BRANCH   7  11
ATOM     11  C   UNL     1       6.138   4.187  15.641  0.00  0.00    +0.000 C 
BRANCH  11  17
ATOM     12  C   UNL     1       5.541   3.415  12.603  0.00  0.00    +0.000 C 
ATOM     13  N   UNL     1       6.585   4.261  13.113  0.00  0.00    +0.000 N 
ATOM     14  C   UNL     1       7.563   4.828  12.351  0.00  0.00    +0.000 A 
ATOM     15  N   UNL     1       8.351   5.549  13.110  0.00  0.00    +0.000 NA
ATOM     16  N   UNL     1       7.895   5.441  14.400  0.00  0.00    +0.000 NA
ATOM     17  C   UNL     1       6.840   4.648  14.407  0.00  0.00    +0.000 A 
ENDBRANCH  11  17
ENDBRANCH   7  11
ENDBRANCH   1   7
BRANCH   5  18
ATOM     18  N   UNL     1       2.736   5.711  20.596  0.00  0.00    +0.000 N 
ATOM     19  H   UNL     1       2.908   5.130  21.420  0.00  0.00    +0.000 HD
BRANCH  18  20
ATOM     20  C   UNL     1       1.489   6.436  20.754  0.00  0.00    +0.000 C 
BRANCH  20  21
ATOM     21  C   UNL     1       1.547   7.750  19.995  0.00  0.00    +0.000 A 
ATOM     22  C   UNL     1       2.242   7.757  18.765  0.00  0.00    +0.000 A 
ATOM     23  C   UNL     1       2.256   8.881  17.938  0.00  0.00    +0.000 A 
ATOM     24  C   UNL     1       1.578  10.028  18.322  0.00  0.00    +0.000 A 
ATOM     25  C   UNL     1       0.932  10.066  19.556  0.00  0.00    +0.000 A 
ATOM     26  C   UNL     1       0.925   8.946  20.421  0.00  0.00    +0.000 A 
BRANCH  26  27
ATOM     27  C   UNL     1       0.251   9.143  21.761  0.00  0.00    +0.000 C 
ATOM     28  F   UNL     1      -0.294  10.374  21.977  0.00  0.00    +0.000 F 
ATOM     29  F   UNL     1      -0.769   8.258  21.959  0.00  0.00    +0.000 F 
ATOM     30  F   UNL     1       1.110   8.946  22.802  0.00  0.00    +0.000 F 
ENDBRANCH  26  27
ENDBRANCH  20  21
ENDBRANCH  18  20
ENDBRANCH   5  18
TORSDOF 7
ENDMDL
MODEL 4
REMARK VINA RESULT:      -8.9      2.376      3.730
REMARK  Name = 
REMARK  8 active torsions:
REMARK  status: ('A' for Active; 'I' for Inactive)
REMARK    1  A    between atoms: C_1  and  N_2
REMARK    2  A    between atoms: C_6  and  C_7
REMARK    3  A    between atoms: C_7  and  C_8
REMARK    4  A    between atoms: C_8  and  C_9
REMARK    5  A    between atoms: C_13  and  N_14
REMARK    6  A    between atoms: N_14  and  C_15
REMARK    7  A    between atoms: C_15  and  C_16
REMARK    8  A    between atoms: C_21  and  C_22
REMARK                            x       y       z     vdW  Elec       q    Type
REMARK                         _______ _______ _______ _____ _____    ______ ____
ROOT
ATOM      1  C   UNL     1       2.750   4.976  18.951  0.00  0.00    +0.000 A 
ATOM      2  C   UNL     1       2.235   4.947  20.258  0.00  0.00    +0.000 A 
ATOM      3  C   UNL     1       1.791   6.113  20.888  0.00  0.00    +0.000 A 
ATOM      4  C   UNL     1       1.830   7.341  20.223  0.00  0.00    +0.000 A 
ATOM      5  C   UNL     1       2.301   7.415  18.912  0.00  0.00    +0.000 A 
ATOM      6  C   UNL     1       2.782   6.239  18.327  0.00  0.00    +0.000 A 
ENDROOT
BRANCH   1   7
ATOM      7  C   UNL     1       3.294   3.684  18.174  0.00  0.00    +0.000 C 
ATOM      8  C   UNL     1       3.734   2.441  18.992  0.00  0.00    +0.000 C 
ATOM      9  O   UNL     1       2.726   1.603  18.387  0.00  0.00    +0.000 OA
ATOM     10  C   UNL     1       2.185   2.716  17.655  0.00  0.00    +0.000 C 
BRANCH   7  11
ATOM     11  C   UNL     1       4.232   4.111  17.030  0.00  0.00    +0.000 C 
BRANCH  11  17
ATOM     12  C   UNL     1       6.813   4.419  15.180  0.00  0.00    +0.000 C 
ATOM     13  N   UNL     1       6.741   4.464  16.615  0.00  0.00    +0.000 N 
ATOM     14  C   UNL     1       7.820   4.578  17.440  0.00  0.00    +0.000 A 
ATOM     15  N   UNL     1       7.420   4.603  18.688  0.00  0.00    +0.000 NA
ATOM     16  N   UNL     1       6.053   4.484  18.686  0.00  0.00    +0.000 NA
ATOM     17  C   UNL     1       5.643   4.380  17.436  0.00  0.00    +0.000 A 
ENDBRANCH  11  17
ENDBRANCH   7  11
ENDBRANCH   1   7
BRANCH   5  18
ATOM     18  N   UNL     1       2.430   8.579  18.154  0.00  0.00    +0.000 N 
ATOM     19  H   UNL     1       3.104   9.197  18.614  0.00  0.00    +0.000 HD
BRANCH  18  20
ATOM     20  C   UNL     1       1.247   9.332  17.778  0.00  0.00    +0.000 C 
BRANCH  20  21
ATOM     21  C   UNL     1       1.317  10.736  18.352  0.00  0.00    +0.000 A 
ATOM     22  C   UNL     1       2.426  11.531  17.984  0.00  0.00    +0.000 A 
ATOM     23  C   UNL     1       2.524  12.870  18.364  0.00  0.00    +0.000 A 
ATOM     24  C   UNL     1       1.519  13.448  19.123  0.00  0.00    +0.000 A 
ATOM     25  C   UNL     1       0.442  12.671  19.545  0.00  0.00    +0.000 A 
ATOM     26  C   UNL     1       0.332  11.305  19.192  0.00  0.00    +0.000 A 
BRANCH  26  27
ATOM     27  C   UNL     1      -0.846  10.557  19.776  0.00  0.00    +0.000 C 
ATOM     28  F   UNL     1      -0.540   9.500  20.579  0.00  0.00    +0.000 F 
ATOM     29  F   UNL     1      -1.645  11.366  20.532  0.00  0.00    +0.000 F 
ATOM     30  F   UNL     1      -1.660  10.046  18.808  0.00  0.00    +0.000 F 
ENDBRANCH  26  27
ENDBRANCH  20  21
ENDBRANCH  18  20
ENDBRANCH   5  18
TORSDOF 7
ENDMDL
MODEL 5
REMARK VINA RESULT:      -8.8      5.037      8.894
REMARK  Name = 
REMARK  8 active torsions:
REMARK  status: ('A' for Active; 'I' for Inactive)
REMARK    1  A    between atoms: C_1  and  N_2
REMARK    2  A    between atoms: C_6  and  C_7
REMARK    3  A    between atoms: C_7  and  C_8
REMARK    4  A    between atoms: C_8  and  C_9
REMARK    5  A    between atoms: C_13  and  N_14
REMARK    6  A    between atoms: N_14  and  C_15
REMARK    7  A    between atoms: C_15  and  C_16
REMARK    8  A    between atoms: C_21  and  C_22
REMARK                            x       y       z     vdW  Elec       q    Type
REMARK                         _______ _______ _______ _____ _____    ______ ____
ROOT
ATOM      1  C   UNL     1      -0.120  10.754  20.396  0.00  0.00    +0.000 A 
ATOM      2  C   UNL     1      -0.682  11.154  21.620  0.00  0.00    +0.000 A 
ATOM      3  C   UNL     1      -0.525  10.382  22.775  0.00  0.00    +0.000 A 
ATOM      4  C   UNL     1       0.215   9.197  22.745  0.00  0.00    +0.000 A 
ATOM      5  C   UNL     1       0.821   8.777  21.560  0.00  0.00    +0.000 A 
ATOM      6  C   UNL     1       0.605   9.546  20.412  0.00  0.00    +0.000 A 
ENDROOT
BRANCH   1   7
ATOM      7  C   UNL     1      -0.275  11.578  19.029  0.00  0.00    +0.000 C 
ATOM      8  C   UNL     1      -0.643  13.084  19.093  0.00  0.00    +0.000 C 
ATOM      9  O   UNL     1       0.592  13.480  18.457  0.00  0.00    +0.000 OA
ATOM     10  C   UNL     1       1.063  12.122  18.437  0.00  0.00    +0.000 C 
BRANCH   7  11
ATOM     11  C   UNL     1      -1.036  10.737  17.989  0.00  0.00    +0.000 C 
BRANCH  11  17
ATOM     12  C   UNL     1      -2.856  10.727  15.367  0.00  0.00    +0.000 C 
ATOM     13  N   UNL     1      -3.236  11.080  16.708  0.00  0.00    +0.000 N 
ATOM     14  C   UNL     1      -4.463  11.553  17.065  0.00  0.00    +0.000 A 
ATOM     15  N   UNL     1      -4.494  11.768  18.357  0.00  0.00    +0.000 NA
ATOM     16  N   UNL     1      -3.258  11.448  18.859  0.00  0.00    +0.000 NA
ATOM     17  C   UNL     1      -2.490  11.051  17.862  0.00  0.00    +0.000 A 
ENDBRANCH  11  17
ENDBRANCH   7  11
ENDBRANCH   1   7
BRANCH   5  18
ATOM     18  N   UNL     1       1.547   7.599  21.387  0.00  0.00    +0.000 N 
ATOM     19  H   UNL     1       2.203   7.500  22.166  0.00  0.00    +0.000 HD
BRANCH  18  20
ATOM     20  C   UNL     1       2.232   7.351  20.132  0.00  0.00    +0.000 C 
BRANCH  20  21
ATOM     21  C   UNL     1       2.095   5.890  19.741  0.00  0.00    +0.000 A 
ATOM     22  C   UNL     1       1.254   5.082  20.540  0.00  0.00    +0.000 A 
ATOM     23  C   UNL     1       0.972   3.759  20.200  0.00  0.00    +0.000 A 
ATOM     24  C   UNL     1       1.524   3.208  19.053  0.00  0.00    +0.000 A 
ATOM     25  C   UNL     1       2.400   3.966  18.279  0.00  0.00    +0.000 A 
ATOM     26  C   UNL     1       2.720   5.302  18.617  0.00  0.00    +0.000 A 
BRANCH  26  27
ATOM     27  C   UNL     1       3.739   5.988  17.735  0.00  0.00    +0.000 C 
ATOM     28  F   UNL     1       4.927   6.296  18.328  0.00  0.00    +0.000 F 
ATOM     29  F   UNL     1       4.065   5.235  16.644  0.00  0.00    +0.000 F 
ATOM     30  F   UNL     1       3.274   7.169  17.234  0.00  0.00    +0.000 F 
ENDBRANCH  26  27
ENDBRANCH  20  21
ENDBRANCH  18  20
ENDBRANCH   5  18
TORSDOF 7
ENDMDL
MODEL 6
REMARK VINA RESULT:      -8.8      0.741      1.044
REMARK  Name = 
REMARK  8 active torsions:
REMARK  status: ('A' for Active; 'I' for Inactive)
REMARK    1  A    between atoms: C_1  and  N_2
REMARK    2  A    between atoms: C_6  and  C_7
REMARK    3  A    between atoms: C_7  and  C_8
REMARK    4  A    between atoms: C_8  and  C_9
REMARK    5  A    between atoms: C_13  and  N_14
REMARK    6  A    between atoms: N_14  and  C_15
REMARK    7  A    between atoms: C_15  and  C_16
REMARK    8  A    between atoms: C_21  and  C_22
REMARK                            x       y       z     vdW  Elec       q    Type
REMARK                         _______ _______ _______ _____ _____    ______ ____
ROOT
ATOM      1  C   UNL     1       4.034   4.712  17.645  0.00  0.00    +0.000 A 
ATOM      2  C   UNL     1       3.298   3.655  17.086  0.00  0.00    +0.000 A 
ATOM      3  C   UNL     1       2.025   3.327  17.562  0.00  0.00    +0.000 A 
ATOM      4  C   UNL     1       1.442   4.059  18.600  0.00  0.00    +0.000 A 
ATOM      5  C   UNL     1       2.120   5.140  19.164  0.00  0.00    +0.000 A 
ATOM      6  C   UNL     1       3.410   5.411  18.697  0.00  0.00    +0.000 A 
ENDROOT
BRANCH   1   7
ATOM      7  C   UNL     1       5.504   5.132  17.164  0.00  0.00    +0.000 C 
ATOM      8  C   UNL     1       5.783   6.613  16.795  0.00  0.00    +0.000 C 
ATOM      9  O   UNL     1       6.768   6.758  17.842  0.00  0.00    +0.000 OA
ATOM     10  C   UNL     1       6.513   5.425  18.319  0.00  0.00    +0.000 C 
BRANCH   7  11
ATOM     11  C   UNL     1       6.066   4.075  16.197  0.00  0.00    +0.000 C 
BRANCH  11  17
ATOM     12  C   UNL     1       5.408   3.501  13.127  0.00  0.00    +0.000 C 
ATOM     13  N   UNL     1       6.457   4.320  13.670  0.00  0.00    +0.000 N 
ATOM     14  C   UNL     1       7.413   4.944  12.927  0.00  0.00    +0.000 A 
ATOM     15  N   UNL     1       8.213   5.620  13.715  0.00  0.00    +0.000 NA
ATOM     16  N   UNL     1       7.786   5.423  15.004  0.00  0.00    +0.000 NA
ATOM     17  C   UNL     1       6.737   4.622  14.981  0.00  0.00    +0.000 A 
ENDBRANCH  11  17
ENDBRANCH   7  11
ENDBRANCH   1   7
BRANCH   5  18
ATOM     18  N   UNL     1       1.670   5.922  20.227  0.00  0.00    +0.000 N 
ATOM     19  H   UNL     1       0.662   6.065  20.125  0.00  0.00    +0.000 HD
BRANCH  18  20
ATOM     20  C   UNL     1       2.319   7.187  20.519  0.00  0.00    +0.000 C 
BRANCH  20  21
ATOM     21  C   UNL     1       1.592   8.322  19.820  0.00  0.00    +0.000 A 
ATOM     22  C   UNL     1       1.941   8.585  18.477  0.00  0.00    +0.000 A 
ATOM     23  C   UNL     1       1.254   9.528  17.713  0.00  0.00    +0.000 A 
ATOM     24  C   UNL     1       0.201  10.235  18.273  0.00  0.00    +0.000 A 
ATOM     25  C   UNL     1      -0.127  10.035  19.612  0.00  0.00    +0.000 A 
ATOM     26  C   UNL     1       0.571   9.101  20.413  0.00  0.00    +0.000 A 
BRANCH  26  27
ATOM     27  C   UNL     1       0.164   9.033  21.868  0.00  0.00    +0.000 C 
ATOM     28  F   UNL     1       1.176   8.846  22.761  0.00  0.00    +0.000 F 
ATOM     29  F   UNL     1      -0.473  10.168  22.277  0.00  0.00    +0.000 F 
ATOM     30  F   UNL     1      -0.715   8.017  22.108  0.00  0.00    +0.000 F 
ENDBRANCH  26  27
ENDBRANCH  20  21
ENDBRANCH  18  20
ENDBRANCH   5  18
TORSDOF 7
ENDMDL
MODEL 7
REMARK VINA RESULT:      -8.8      3.026      4.495
REMARK  Name = 
REMARK  8 active torsions:
REMARK  status: ('A' for Active; 'I' for Inactive)
REMARK    1  A    between atoms: C_1  and  N_2
REMARK    2  A    between atoms: C_6  and  C_7
REMARK    3  A    between atoms: C_7  and  C_8
REMARK    4  A    between atoms: C_8  and  C_9
REMARK    5  A    between atoms: C_13  and  N_14
REMARK    6  A    between atoms: N_14  and  C_15
REMARK    7  A    between atoms: C_15  and  C_16
REMARK    8  A    between atoms: C_21  and  C_22
REMARK                            x       y       z     vdW  Elec       q    Type
REMARK                         _______ _______ _______ _____ _____    ______ ____
ROOT
ATOM      1  C   UNL     1       2.442   7.314  19.126  0.00  0.00    +0.000 A 
ATOM      2  C   UNL     1       2.035   7.202  20.466  0.00  0.00    +0.000 A 
ATOM      3  C   UNL     1       1.215   8.166  21.057  0.00  0.00    +0.000 A 
ATOM      4  C   UNL     1       0.759   9.263  20.320  0.00  0.00    +0.000 A 
ATOM      5  C   UNL     1       1.108   9.400  18.976  0.00  0.00    +0.000 A 
ATOM      6  C   UNL     1       1.969   8.443  18.429  0.00  0.00    +0.000 A 
ENDROOT
BRANCH   1   7
ATOM      7  C   UNL     1       3.396   6.258  18.388  0.00  0.00    +0.000 C 
ATOM      8  C   UNL     1       4.414   5.444  19.230  0.00  0.00    +0.000 C 
ATOM      9  O   UNL     1       3.801   4.185  18.877  0.00  0.00    +0.000 OA
ATOM     10  C   UNL     1       2.757   4.854  18.148  0.00  0.00    +0.000 C 
BRANCH   7  11
ATOM     11  C   UNL     1       3.927   6.854  17.072  0.00  0.00    +0.000 C 
BRANCH  11  17
ATOM     12  C   UNL     1       5.138   4.281  15.623  0.00  0.00    +0.000 C 
ATOM     13  N   UNL     1       5.847   5.402  16.178  0.00  0.00    +0.000 N 
ATOM     14  C   UNL     1       7.205   5.506  16.236  0.00  0.00    +0.000 A 
ATOM     15  N   UNL     1       7.537   6.648  16.787  0.00  0.00    +0.000 NA
ATOM     16  N   UNL     1       6.375   7.301  17.115  0.00  0.00    +0.000 NA
ATOM     17  C   UNL     1       5.354   6.542  16.766  0.00  0.00    +0.000 A 
ENDBRANCH  11  17
ENDBRANCH   7  11
ENDBRANCH   1   7
BRANCH   5  18
ATOM     18  N   UNL     1       0.756  10.462  18.145  0.00  0.00    +0.000 N 
ATOM     19  H   UNL     1       1.606  10.842  17.720  0.00  0.00    +0.000 HD
BRANCH  18  20
ATOM     20  C   UNL     1      -0.063  11.543  18.661  0.00  0.00    +0.000 C 
BRANCH  20  21
ATOM     21  C   UNL     1      -1.511  11.347  18.245  0.00  0.00    +0.000 A 
ATOM     22  C   UNL     1      -1.754  10.564  17.095  0.00  0.00    +0.000 A 
ATOM     23  C   UNL     1      -3.048  10.229  16.697  0.00  0.00    +0.000 A 
ATOM     24  C   UNL     1      -4.134  10.671  17.438  0.00  0.00    +0.000 A 
ATOM     25  C   UNL     1      -3.924  11.491  18.544  0.00  0.00    +0.000 A 
ATOM     26  C   UNL     1      -2.621  11.863  18.953  0.00  0.00    +0.000 A 
BRANCH  26  27
ATOM     27  C   UNL     1      -2.536  12.815  20.125  0.00  0.00    +0.000 C 
ATOM     28  F   UNL     1      -3.721  13.325  20.564  0.00  0.00    +0.000 F 
ATOM     29  F   UNL     1      -1.967  12.233  21.221  0.00  0.00    +0.000 F 
ATOM     30  F   UNL     1      -1.760  13.903  19.849  0.00  0.00    +0.000 F 
ENDBRANCH  26  27
ENDBRANCH  20  21
ENDBRANCH  18  20
ENDBRANCH   5  18
TORSDOF 7
ENDMDL
MODEL 8
REMARK VINA RESULT:      -8.7      2.814      4.362
REMARK  Name = 
REMARK  8 active torsions:
REMARK  status: ('A' for Active; 'I' for Inactive)
REMARK    1  A    between atoms: C_1  and  N_2
REMARK    2  A    between atoms: C_6  and  C_7
REMARK    3  A    between atoms: C_7  and  C_8
REMARK    4  A    between atoms: C_8  and  C_9
REMARK    5  A    between atoms: C_13  and  N_14
REMARK    6  A    between atoms: N_14  and  C_15
REMARK    7  A    between atoms: C_15  and  C_16
REMARK    8  A    between atoms: C_21  and  C_22
REMARK                            x       y       z     vdW  Elec       q    Type
REMARK                         _______ _______ _______ _____ _____    ______ ____
ROOT
ATOM      1  C   UNL     1       3.008   5.451  18.646  0.00  0.00    +0.000 A 
ATOM      2  C   UNL     1       3.448   6.241  17.572  0.00  0.00    +0.000 A 
ATOM      3  C   UNL     1       3.157   7.607  17.510  0.00  0.00    +0.000 A 
ATOM      4  C   UNL     1       2.433   8.228  18.532  0.00  0.00    +0.000 A 
ATOM      5  C   UNL     1       2.004   7.491  19.636  0.00  0.00    +0.000 A 
ATOM      6  C   UNL     1       2.271   6.118  19.644  0.00  0.00    +0.000 A 
ENDROOT
BRANCH   1   7
ATOM      7  C   UNL     1       3.288   3.877  18.773  0.00  0.00    +0.000 C 
ATOM      8  C   UNL     1       2.958   3.158  20.108  0.00  0.00    +0.000 C 
ATOM      9  O   UNL     1       1.985   2.295  19.479  0.00  0.00    +0.000 OA
ATOM     10  C   UNL     1       2.152   2.963  18.216  0.00  0.00    +0.000 C 
BRANCH   7  11
ATOM     11  C   UNL     1       4.642   3.527  18.130  0.00  0.00    +0.000 C 
BRANCH  11  17
ATOM     12  C   UNL     1       6.999   4.723  16.342  0.00  0.00    +0.000 C 
ATOM     13  N   UNL     1       6.809   4.855  17.761  0.00  0.00    +0.000 N 
ATOM     14  C   UNL     1       7.682   5.475  18.603  0.00  0.00    +0.000 A 
ATOM     15  N   UNL     1       7.217   5.436  19.828  0.00  0.00    +0.000 NA
ATOM     16  N   UNL     1       6.023   4.761  19.794  0.00  0.00    +0.000 NA
ATOM     17  C   UNL     1       5.784   4.391  18.550  0.00  0.00    +0.000 A 
ENDBRANCH  11  17
ENDBRANCH   7  11
ENDBRANCH   1   7
BRANCH   5  18
ATOM     18  N   UNL     1       1.243   7.978  20.698  0.00  0.00    +0.000 N 
ATOM     19  H   UNL     1       0.263   8.023  20.405  0.00  0.00    +0.000 HD
BRANCH  18  20
ATOM     20  C   UNL     1       1.621   9.219  21.348  0.00  0.00    +0.000 C 
BRANCH  20  21
ATOM     21  C   UNL     1       0.388  10.064  21.620  0.00  0.00    +0.000 A 
ATOM     22  C   UNL     1      -0.212   9.943  22.893  0.00  0.00    +0.000 A 
ATOM     23  C   UNL     1      -1.276  10.757  23.281  0.00  0.00    +0.000 A 
ATOM     24  C   UNL     1      -1.771  11.711  22.405  0.00  0.00    +0.000 A 
ATOM     25  C   UNL     1      -1.233  11.813  21.123  0.00  0.00    +0.000 A 
ATOM     26  C   UNL     1      -0.169  10.982  20.700  0.00  0.00    +0.000 A 
BRANCH  26  27
ATOM     27  C   UNL     1       0.273  11.145  19.262  0.00  0.00    +0.000 C 
ATOM     28  F   UNL     1       0.021  10.088  18.440  0.00  0.00    +0.000 F 
ATOM     29  F   UNL     1      -0.316  12.219  18.661  0.00  0.00    +0.000 F 
ATOM     30  F   UNL     1       1.616  11.363  19.159  0.00  0.00    +0.000 F 
ENDBRANCH  26  27
ENDBRANCH  20  21
ENDBRANCH  18  20
ENDBRANCH   5  18
TORSDOF 7
ENDMDL
MODEL 9
REMARK VINA RESULT:      -8.7      3.468      5.474
REMARK  Name = 
REMARK  8 active torsions:
REMARK  status: ('A' for Active; 'I' for Inactive)
REMARK    1  A    between atoms: C_1  and  N_2
REMARK    2  A    between atoms: C_6  and  C_7
REMARK    3  A    between atoms: C_7  and  C_8
REMARK    4  A    between atoms: C_8  and  C_9
REMARK    5  A    between atoms: C_13  and  N_14
REMARK    6  A    between atoms: N_14  and  C_15
REMARK    7  A    between atoms: C_15  and  C_16
REMARK    8  A    between atoms: C_21  and  C_22
REMARK                            x       y       z     vdW  Elec       q    Type
REMARK                         _______ _______ _______ _____ _____    ______ ____
ROOT
ATOM      1  C   UNL     1       2.273   7.347  19.148  0.00  0.00    +0.000 A 
ATOM      2  C   UNL     1       1.937   7.263  20.509  0.00  0.00    +0.000 A 
ATOM      3  C   UNL     1       1.229   8.287  21.144  0.00  0.00    +0.000 A 
ATOM      4  C   UNL     1       0.818   9.418  20.433  0.00  0.00    +0.000 A 
ATOM      5  C   UNL     1       1.099   9.530  19.071  0.00  0.00    +0.000 A 
ATOM      6  C   UNL     1       1.850   8.511  18.476  0.00  0.00    +0.000 A 
ENDROOT
BRANCH   1   7
ATOM      7  C   UNL     1       3.098   6.222  18.358  0.00  0.00    +0.000 C 
ATOM      8  C   UNL     1       4.310   6.647  17.487  0.00  0.00    +0.000 C 
ATOM      9  O   UNL     1       5.237   5.875  18.282  0.00  0.00    +0.000 OA
ATOM     10  C   UNL     1       4.196   5.502  19.202  0.00  0.00    +0.000 C 
BRANCH   7  11
ATOM     11  C   UNL     1       2.133   5.203  17.726  0.00  0.00    +0.000 C 
BRANCH  11  17
ATOM     12  C   UNL     1       0.969   3.666  20.269  0.00  0.00    +0.000 C 
ATOM     13  N   UNL     1       1.868   3.164  19.266  0.00  0.00    +0.000 N 
ATOM     14  C   UNL     1       2.440   1.928  19.288  0.00  0.00    +0.000 A 
ATOM     15  N   UNL     1       3.197   1.772  18.229  0.00  0.00    +0.000 NA
ATOM     16  N   UNL     1       3.136   2.936  17.505  0.00  0.00    +0.000 NA
ATOM     17  C   UNL     1       2.350   3.785  18.138  0.00  0.00    +0.000 A 
ENDBRANCH  11  17
ENDBRANCH   7  11
ENDBRANCH   1   7
BRANCH   5  18
ATOM     18  N   UNL     1       0.783  10.619  18.259  0.00  0.00    +0.000 N 
ATOM     19  H   UNL     1       1.652  11.032  17.911  0.00  0.00    +0.000 HD
BRANCH  18  20
ATOM     20  C   UNL     1      -0.093  11.663  18.758  0.00  0.00    +0.000 C 
BRANCH  20  21
ATOM     21  C   UNL     1      -1.521  11.405  18.310  0.00  0.00    +0.000 A 
ATOM     22  C   UNL     1      -1.705  10.604  17.161  0.00  0.00    +0.000 A 
ATOM     23  C   UNL     1      -2.975  10.215  16.735  0.00  0.00    +0.000 A 
ATOM     24  C   UNL     1      -4.095  10.619  17.445  0.00  0.00    +0.000 A 
ATOM     25  C   UNL     1      -3.945  11.456  18.549  0.00  0.00    +0.000 A 
ATOM     26  C   UNL     1      -2.668  11.882  18.986  0.00  0.00    +0.000 A 
BRANCH  26  27
ATOM     27  C   UNL     1      -2.649  12.846  20.151  0.00  0.00    +0.000 C 
ATOM     28  F   UNL     1      -3.855  13.373  20.506  0.00  0.00    +0.000 F 
ATOM     29  F   UNL     1      -2.158  12.270  21.287  0.00  0.00    +0.000 F 
ATOM     30  F   UNL     1      -1.846  13.923  19.914  0.00  0.00    +0.000 F 
ENDBRANCH  26  27
ENDBRANCH  20  21
ENDBRANCH  18  20
ENDBRANCH   5  18
TORSDOF 7
ENDMDL
