MODEL 1
REMARK VINA RESULT:      -8.3      0.000      0.000
REMARK  Name = 
REMARK  8 active torsions:
REMARK  status: ('A' for Active; 'I' for Inactive)
REMARK    1  A    between atoms: C_1  and  C_2
REMARK    2  A    between atoms: C_2  and  C_3
REMARK    3  A    between atoms: C_3  and  C_4
REMARK    4  A    between atoms: C_7  and  O_8
REMARK    5  A    between atoms: O_8  and  C_9
REMARK    6  A    between atoms: N_15  and  C_16
REMARK    7  A    between atoms: C_16  and  C_17
REMARK    8  A    between atoms: N_25  and  C_26
REMARK                            x       y       z     vdW  Elec       q    Type
REMARK                         _______ _______ _______ _____ _____    ______ ____
ROOT
ATOM      1  C   UNL     1       0.606  10.230  19.286  0.00  0.00    +0.000 C 
ATOM      2  N   UNL     1       0.544   9.194  20.294  0.00  0.00    +0.000 N 
ATOM      3  C   UNL     1       1.381   8.125  20.025  0.00  0.00    +0.000 C 
ATOM      4  O   UNL     1       1.467   7.143  20.728  0.00  0.00    +0.000 OA
ATOM      5  N   UNL     1       2.045   8.400  18.869  0.00  0.00    +0.000 N 
ATOM      6  C   UNL     1       1.633   9.576  18.330  0.00  0.00    +0.000 C 
ATOM      7  O   UNL     1       2.017  10.033  17.255  0.00  0.00    +0.000 OA
ATOM      8  H   UNL     1      -0.180   9.094  20.994  0.00  0.00    +0.000 HD
ENDROOT
BRANCH   1   9
ATOM      9  C   UNL     1      -0.777  10.413  18.657  0.00  0.00    +0.000 A 
ATOM     10  C   UNL     1      -1.672  11.372  19.161  0.00  0.00    +0.000 A 
ATOM     11  C   UNL     1      -2.899  11.623  18.540  0.00  0.00    +0.000 A 
ATOM     12  C   UNL     1      -3.279  10.914  17.405  0.00  0.00    +0.000 A 
ATOM     13  C   UNL     1      -2.415   9.942  16.902  0.00  0.00    +0.000 A 
ATOM     14  C   UNL     1      -1.177   9.701  17.511  0.00  0.00    +0.000 A 
BRANCH  12  15
ATOM     15  O   UNL     1      -4.442  11.082  16.710  0.00  0.00    +0.000 OA
ATOM     16  C   UNL     1      -5.525  11.671  17.421  0.00  0.00    +0.000 C 
ENDBRANCH  12  15
ENDBRANCH   1   9
BRANCH   1  18
ATOM     17  C   UNL     1       0.887  11.925  21.251  0.00  0.00    +0.000 C 
ATOM     18  C   UNL     1       1.237  11.541  19.814  0.00  0.00    +0.000 C 
ENDBRANCH   1  18
BRANCH   5  19
ATOM     19  C   UNL     1       3.080   7.588  18.302  0.00  0.00    +0.000 C 
BRANCH  19  20
ATOM     20  C   UNL     1       3.067   6.170  18.855  0.00  0.00    +0.000 A 
ATOM     21  N   UNL     1       4.108   5.798  19.588  0.00  0.00    +0.000 NA
ATOM     22  C   UNL     1       4.896   5.233  18.618  0.00  0.00    +0.000 A 
ATOM     23  C   UNL     1       6.285   5.207  18.491  0.00  0.00    +0.000 A 
ATOM     24  C   UNL     1       6.816   4.668  17.316  0.00  0.00    +0.000 A 
ATOM     25  C   UNL     1       5.992   4.075  16.349  0.00  0.00    +0.000 A 
ATOM     26  C   UNL     1       4.598   4.050  16.483  0.00  0.00    +0.000 A 
ATOM     27  C   UNL     1       4.095   4.716  17.597  0.00  0.00    +0.000 A 
ATOM     28  N   UNL     1       2.835   5.083  18.016  0.00  0.00    +0.000 N 
BRANCH  28  29
ATOM     29  C   UNL     1       1.656   4.246  17.943  0.00  0.00    +0.000 C 
ATOM     30  F   UNL     1       0.995   4.223  19.131  0.00  0.00    +0.000 F 
ATOM     31  F   UNL     1       0.774   4.736  17.029  0.00  0.00    +0.000 F 
ENDBRANCH  28  29
ENDBRANCH  19  20
ENDBRANCH   5  19
TORSDOF 6
ENDMDL
MODEL 2
REMARK VINA RESULT:      -8.2      5.724      8.266
REMARK  Name = 
REMARK  8 active torsions:
REMARK  status: ('A' for Active; 'I' for Inactive)
REMARK    1  A    between atoms: C_1  and  C_2
REMARK    2  A    between atoms: C_2  and  C_3
REMARK    3  A    between atoms: C_3  and  C_4
REMARK    4  A    between atoms: C_7  and  O_8
REMARK    5  A    between atoms: O_8  and  C_9
REMARK    6  A    between atoms: N_15  and  C_16
REMARK    7  A    between atoms: C_16  and  C_17
REMARK    8  A    between atoms: N_25  and  C_26
REMARK                            x       y       z     vdW  Elec       q    Type
REMARK                         _______ _______ _______ _____ _____    ______ ____
ROOT
ATOM      1  C   UNL     1       6.554   5.957  16.452  0.00  0.00    +0.000 C 
ATOM      2  N   UNL     1       5.242   6.495  16.740  0.00  0.00    +0.000 N 
ATOM      3  C   UNL     1       4.675   5.957  17.882  0.00  0.00    +0.000 C 
ATOM      4  O   UNL     1       3.574   6.251  18.290  0.00  0.00    +0.000 OA
ATOM      5  N   UNL     1       5.567   5.076  18.411  0.00  0.00    +0.000 N 
ATOM      6  C   UNL     1       6.672   4.963  17.632  0.00  0.00    +0.000 C 
ATOM      7  O   UNL     1       7.606   4.189  17.838  0.00  0.00    +0.000 OA
ATOM      8  H   UNL     1       4.661   7.013  16.093  0.00  0.00    +0.000 HD
ENDROOT
BRANCH   1   9
ATOM      9  C   UNL     1       6.536   5.274  15.083  0.00  0.00    +0.000 A 
ATOM     10  C   UNL     1       7.573   5.490  14.160  0.00  0.00    +0.000 A 
ATOM     11  C   UNL     1       7.625   4.800  12.945  0.00  0.00    +0.000 A 
ATOM     12  C   UNL     1       6.635   3.882  12.605  0.00  0.00    +0.000 A 
ATOM     13  C   UNL     1       5.586   3.670  13.498  0.00  0.00    +0.000 A 
ATOM     14  C   UNL     1       5.540   4.346  14.723  0.00  0.00    +0.000 A 
BRANCH  12  15
ATOM     15  O   UNL     1       6.590   3.144  11.459  0.00  0.00    +0.000 OA
ATOM     16  C   UNL     1       5.632   2.092  11.421  0.00  0.00    +0.000 C 
ENDBRANCH  12  15
ENDBRANCH   1   9
BRANCH   1  18
ATOM     17  C   UNL     1       7.420   8.119  17.631  0.00  0.00    +0.000 C 
ATOM     18  C   UNL     1       7.680   7.006  16.617  0.00  0.00    +0.000 C 
ENDBRANCH   1  18
BRANCH   5  19
ATOM     19  C   UNL     1       5.399   4.383  19.654  0.00  0.00    +0.000 C 
BRANCH  19  20
ATOM     20  C   UNL     1       4.874   2.967  19.457  0.00  0.00    +0.000 A 
ATOM     21  N   UNL     1       3.925   2.797  18.545  0.00  0.00    +0.000 NA
ATOM     22  C   UNL     1       2.810   2.920  19.334  0.00  0.00    +0.000 A 
ATOM     23  C   UNL     1       1.558   3.462  19.040  0.00  0.00    +0.000 A 
ATOM     24  C   UNL     1       0.643   3.580  20.090  0.00  0.00    +0.000 A 
ATOM     25  C   UNL     1       0.928   3.071  21.365  0.00  0.00    +0.000 A 
ATOM     26  C   UNL     1       2.162   2.481  21.665  0.00  0.00    +0.000 A 
ATOM     27  C   UNL     1       3.099   2.505  20.635  0.00  0.00    +0.000 A 
ATOM     28  N   UNL     1       4.442   2.212  20.543  0.00  0.00    +0.000 N 
BRANCH  28  29
ATOM     29  C   UNL     1       5.088   1.066  21.149  0.00  0.00    +0.000 C 
ATOM     30  F   UNL     1       5.611   0.240  20.204  0.00  0.00    +0.000 F 
ATOM     31  F   UNL     1       6.133   1.460  21.927  0.00  0.00    +0.000 F 
ENDBRANCH  28  29
ENDBRANCH  19  20
ENDBRANCH   5  19
TORSDOF 6
ENDMDL
MODEL 3
REMARK VINA RESULT:      -8.1      2.621      4.571
REMARK  Name = 
REMARK  8 active torsions:
REMARK  status: ('A' for Active; 'I' for Inactive)
REMARK    1  A    between atoms: C_1  and  C_2
REMARK    2  A    between atoms: C_2  and  C_3
REMARK    3  A    between atoms: C_3  and  C_4
REMARK    4  A    between atoms: C_7  and  O_8
REMARK    5  A    between atoms: O_8  and  C_9
REMARK    6  A    between atoms: N_15  and  C_16
REMARK    7  A    between atoms: C_16  and  C_17
REMARK    8  A    between atoms: N_25  and  C_26
REMARK                            x       y       z     vdW  Elec       q    Type
REMARK                         _______ _______ _______ _____ _____    ______ ____
ROOT
ATOM      1  C   UNL     1       0.601  10.422  18.902  0.00  0.00    +0.000 C 
ATOM      2  N   UNL     1       1.313   9.990  17.719  0.00  0.00    +0.000 N 
ATOM      3  C   UNL     1       2.053   8.838  17.922  0.00  0.00    +0.000 C 
ATOM      4  O   UNL     1       2.740   8.319  17.071  0.00  0.00    +0.000 OA
ATOM      5  N   UNL     1       1.856   8.442  19.209  0.00  0.00    +0.000 N 
ATOM      6  C   UNL     1       1.068   9.319  19.882  0.00  0.00    +0.000 C 
ATOM      7  O   UNL     1       0.784   9.242  21.076  0.00  0.00    +0.000 OA
ATOM      8  H   UNL     1       1.485  10.552  16.894  0.00  0.00    +0.000 HD
ENDROOT
BRANCH   1   9
ATOM      9  C   UNL     1       1.071  11.823  19.297  0.00  0.00    +0.000 A 
ATOM     10  C   UNL     1       2.087  12.469  18.572  0.00  0.00    +0.000 A 
ATOM     11  C   UNL     1       2.462  13.786  18.855  0.00  0.00    +0.000 A 
ATOM     12  C   UNL     1       1.846  14.496  19.881  0.00  0.00    +0.000 A 
ATOM     13  C   UNL     1       0.851  13.864  20.627  0.00  0.00    +0.000 A 
ATOM     14  C   UNL     1       0.460  12.553  20.334  0.00  0.00    +0.000 A 
BRANCH  12  15
ATOM     15  O   UNL     1       2.119  15.785  20.237  0.00  0.00    +0.000 OA
ATOM     16  C   UNL     1       2.225  16.726  19.175  0.00  0.00    +0.000 C 
ENDBRANCH  12  15
ENDBRANCH   1   9
BRANCH   1  18
ATOM     17  C   UNL     1      -1.456   9.997  17.351  0.00  0.00    +0.000 C 
ATOM     18  C   UNL     1      -0.935  10.291  18.757  0.00  0.00    +0.000 C 
ENDBRANCH   1  18
BRANCH   5  19
ATOM     19  C   UNL     1       2.368   7.234  19.786  0.00  0.00    +0.000 C 
BRANCH  19  20
ATOM     20  C   UNL     1       2.505   6.119  18.758  0.00  0.00    +0.000 A 
ATOM     21  N   UNL     1       1.445   5.344  18.563  0.00  0.00    +0.000 NA
ATOM     22  C   UNL     1       1.721   4.334  19.449  0.00  0.00    +0.000 A 
ATOM     23  C   UNL     1       0.857   3.560  20.224  0.00  0.00    +0.000 A 
ATOM     24  C   UNL     1       1.431   2.683  21.149  0.00  0.00    +0.000 A 
ATOM     25  C   UNL     1       2.820   2.503  21.217  0.00  0.00    +0.000 A 
ATOM     26  C   UNL     1       3.700   3.238  20.412  0.00  0.00    +0.000 A 
ATOM     27  C   UNL     1       3.102   4.200  19.603  0.00  0.00    +0.000 A 
ATOM     28  N   UNL     1       3.572   5.228  18.815  0.00  0.00    +0.000 N 
BRANCH  28  29
ATOM     29  C   UNL     1       4.714   5.142  17.927  0.00  0.00    +0.000 C 
ATOM     30  F   UNL     1       4.330   5.208  16.625  0.00  0.00    +0.000 F 
ATOM     31  F   UNL     1       5.557   6.192  18.127  0.00  0.00    +0.000 F 
ENDBRANCH  28  29
ENDBRANCH  19  20
ENDBRANCH   5  19
TORSDOF 6
ENDMDL
MODEL 4
REMARK VINA RESULT:      -8.1      0.503      1.172
REMARK  Name = 
REMARK  8 active torsions:
REMARK  status: ('A' for Active; 'I' for Inactive)
REMARK    1  A    between atoms: C_1  and  C_2
REMARK    2  A    between atoms: C_2  and  C_3
REMARK    3  A    between atoms: C_3  and  C_4
REMARK    4  A    between atoms: C_7  and  O_8
REMARK    5  A    between atoms: O_8  and  C_9
REMARK    6  A    between atoms: N_15  and  C_16
REMARK    7  A    between atoms: C_16  and  C_17
REMARK    8  A    between atoms: N_25  and  C_26
REMARK                            x       y       z     vdW  Elec       q    Type
REMARK                         _______ _______ _______ _____ _____    ______ ____
ROOT
ATOM      1  C   UNL     1       0.693  10.313  19.339  0.00  0.00    +0.000 C 
ATOM      2  N   UNL     1       0.609   9.282  20.351  0.00  0.00    +0.000 N 
ATOM      3  C   UNL     1       1.414   8.189  20.080  0.00  0.00    +0.000 C 
ATOM      4  O   UNL     1       1.477   7.207  20.784  0.00  0.00    +0.000 OA
ATOM      5  N   UNL     1       2.076   8.442  18.917  0.00  0.00    +0.000 N 
ATOM      6  C   UNL     1       1.694   9.627  18.378  0.00  0.00    +0.000 C 
ATOM      7  O   UNL     1       2.083  10.070  17.298  0.00  0.00    +0.000 OA
ATOM      8  H   UNL     1      -0.113   9.205  21.057  0.00  0.00    +0.000 HD
ENDROOT
BRANCH   1   9
ATOM      9  C   UNL     1      -0.688  10.534  18.720  0.00  0.00    +0.000 A 
ATOM     10  C   UNL     1      -1.116   9.761  17.627  0.00  0.00    +0.000 A 
ATOM     11  C   UNL     1      -2.409   9.880  17.109  0.00  0.00    +0.000 A 
ATOM     12  C   UNL     1      -3.314  10.784  17.658  0.00  0.00    +0.000 A 
ATOM     13  C   UNL     1      -2.901  11.576  18.729  0.00  0.00    +0.000 A 
ATOM     14  C   UNL     1      -1.613  11.447  19.260  0.00  0.00    +0.000 A 
BRANCH  12  15
ATOM     15  O   UNL     1      -4.601  10.976  17.247  0.00  0.00    +0.000 OA
ATOM     16  C   UNL     1      -5.454  11.677  18.144  0.00  0.00    +0.000 C 
ENDBRANCH  12  15
ENDBRANCH   1   9
BRANCH   1  18
ATOM     17  C   UNL     1       1.575  12.716  18.828  0.00  0.00    +0.000 C 
ATOM     18  C   UNL     1       1.365  11.607  19.858  0.00  0.00    +0.000 C 
ENDBRANCH   1  18
BRANCH   5  19
ATOM     19  C   UNL     1       3.084   7.599  18.345  0.00  0.00    +0.000 C 
BRANCH  19  20
ATOM     20  C   UNL     1       3.033   6.182  18.902  0.00  0.00    +0.000 A 
ATOM     21  N   UNL     1       4.080   5.773  19.607  0.00  0.00    +0.000 NA
ATOM     22  C   UNL     1       4.819   5.178  18.617  0.00  0.00    +0.000 A 
ATOM     23  C   UNL     1       6.202   5.100  18.453  0.00  0.00    +0.000 A 
ATOM     24  C   UNL     1       6.680   4.541  17.265  0.00  0.00    +0.000 A 
ATOM     25  C   UNL     1       5.809   3.977  16.322  0.00  0.00    +0.000 A 
ATOM     26  C   UNL     1       4.419   4.004  16.494  0.00  0.00    +0.000 A 
ATOM     27  C   UNL     1       3.972   4.690  17.620  0.00  0.00    +0.000 A 
ATOM     28  N   UNL     1       2.739   5.104  18.072  0.00  0.00    +0.000 N 
BRANCH  28  29
ATOM     29  C   UNL     1       1.527   4.311  18.034  0.00  0.00    +0.000 C 
ATOM     30  F   UNL     1       0.757   4.641  16.963  0.00  0.00    +0.000 F 
ATOM     31  F   UNL     1       1.822   2.989  17.895  0.00  0.00    +0.000 F 
ENDBRANCH  28  29
ENDBRANCH  19  20
ENDBRANCH   5  19
TORSDOF 6
ENDMDL
MODEL 5
REMARK VINA RESULT:      -8.1      2.472      4.454
REMARK  Name = 
REMARK  8 active torsions:
REMARK  status: ('A' for Active; 'I' for Inactive)
REMARK    1  A    between atoms: C_1  and  C_2
REMARK    2  A    between atoms: C_2  and  C_3
REMARK    3  A    between atoms: C_3  and  C_4
REMARK    4  A    between atoms: C_7  and  O_8
REMARK    5  A    between atoms: O_8  and  C_9
REMARK    6  A    between atoms: N_15  and  C_16
REMARK    7  A    between atoms: C_16  and  C_17
REMARK    8  A    between atoms: N_25  and  C_26
REMARK                            x       y       z     vdW  Elec       q    Type
REMARK                         _______ _______ _______ _____ _____    ______ ____
ROOT
ATOM      1  C   UNL     1       0.509  10.272  19.027  0.00  0.00    +0.000 C 
ATOM      2  N   UNL     1       1.206   9.968  17.797  0.00  0.00    +0.000 N 
ATOM      3  C   UNL     1       2.032   8.862  17.902  0.00  0.00    +0.000 C 
ATOM      4  O   UNL     1       2.723   8.448  16.998  0.00  0.00    +0.000 OA
ATOM      5  N   UNL     1       1.909   8.373  19.166  0.00  0.00    +0.000 N 
ATOM      6  C   UNL     1       1.086   9.147  19.918  0.00  0.00    +0.000 C 
ATOM      7  O   UNL     1       0.850   8.975  21.113  0.00  0.00    +0.000 OA
ATOM      8  H   UNL     1       1.310  10.591  17.006  0.00  0.00    +0.000 HD
ENDROOT
BRANCH   1   9
ATOM      9  C   UNL     1       0.893  11.677  19.497  0.00  0.00    +0.000 A 
ATOM     10  C   UNL     1       0.315  12.229  20.652  0.00  0.00    +0.000 A 
ATOM     11  C   UNL     1       0.724  13.469  21.153  0.00  0.00    +0.000 A 
ATOM     12  C   UNL     1       1.715  14.203  20.509  0.00  0.00    +0.000 A 
ATOM     13  C   UNL     1       2.286  13.682  19.348  0.00  0.00    +0.000 A 
ATOM     14  C   UNL     1       1.891  12.433  18.854  0.00  0.00    +0.000 A 
BRANCH  12  15
ATOM     15  O   UNL     1       2.203  15.413  20.911  0.00  0.00    +0.000 OA
ATOM     16  C   UNL     1       2.567  16.323  19.880  0.00  0.00    +0.000 C 
ENDBRANCH  12  15
ENDBRANCH   1   9
BRANCH   1  18
ATOM     17  C   UNL     1      -1.739  10.800  17.809  0.00  0.00    +0.000 C 
ATOM     18  C   UNL     1      -1.019  10.040  18.921  0.00  0.00    +0.000 C 
ENDBRANCH   1  18
BRANCH   5  19
ATOM     19  C   UNL     1       2.525   7.171  19.647  0.00  0.00    +0.000 C 
BRANCH  19  20
ATOM     20  C   UNL     1       2.457   6.043  18.627  0.00  0.00    +0.000 A 
ATOM     21  N   UNL     1       1.343   5.321  18.598  0.00  0.00    +0.000 NA
ATOM     22  C   UNL     1       1.694   4.305  19.450  0.00  0.00    +0.000 A 
ATOM     23  C   UNL     1       0.914   3.582  20.353  0.00  0.00    +0.000 A 
ATOM     24  C   UNL     1       1.571   2.684  21.199  0.00  0.00    +0.000 A 
ATOM     25  C   UNL     1       2.945   2.435  21.071  0.00  0.00    +0.000 A 
ATOM     26  C   UNL     1       3.735   3.118  20.137  0.00  0.00    +0.000 A 
ATOM     27  C   UNL     1       3.074   4.103  19.407  0.00  0.00    +0.000 A 
ATOM     28  N   UNL     1       3.477   5.099  18.544  0.00  0.00    +0.000 N 
BRANCH  28  29
ATOM     29  C   UNL     1       4.473   4.948  17.504  0.00  0.00    +0.000 C 
ATOM     30  F   UNL     1       4.063   4.065  16.554  0.00  0.00    +0.000 F 
ATOM     31  F   UNL     1       4.676   6.130  16.859  0.00  0.00    +0.000 F 
ENDBRANCH  28  29
ENDBRANCH  19  20
ENDBRANCH   5  19
TORSDOF 6
ENDMDL
MODEL 6
REMARK VINA RESULT:      -8.1      1.758      2.381
REMARK  Name = 
REMARK  8 active torsions:
REMARK  status: ('A' for Active; 'I' for Inactive)
REMARK    1  A    between atoms: C_1  and  C_2
REMARK    2  A    between atoms: C_2  and  C_3
REMARK    3  A    between atoms: C_3  and  C_4
REMARK    4  A    between atoms: C_7  and  O_8
REMARK    5  A    between atoms: O_8  and  C_9
REMARK    6  A    between atoms: N_15  and  C_16
REMARK    7  A    between atoms: C_16  and  C_17
REMARK    8  A    between atoms: N_25  and  C_26
REMARK                            x       y       z     vdW  Elec       q    Type
REMARK                         _______ _______ _______ _____ _____    ______ ____
ROOT
ATOM      1  C   UNL     1       0.606  10.455  19.160  0.00  0.00    +0.000 C 
ATOM      2  N   UNL     1       0.472  10.065  20.546  0.00  0.00    +0.000 N 
ATOM      3  C   UNL     1       1.094   8.863  20.834  0.00  0.00    +0.000 C 
ATOM      4  O   UNL     1       1.086   8.344  21.927  0.00  0.00    +0.000 OA
ATOM      5  N   UNL     1       1.680   8.417  19.689  0.00  0.00    +0.000 N 
ATOM      6  C   UNL     1       1.416   9.242  18.644  0.00  0.00    +0.000 C 
ATOM      7  O   UNL     1       1.765   9.043  17.482  0.00  0.00    +0.000 OA
ATOM      8  H   UNL     1      -0.189  10.453  21.208  0.00  0.00    +0.000 HD
ENDROOT
BRANCH   1   9
ATOM      9  C   UNL     1      -0.782  10.571  18.526  0.00  0.00    +0.000 A 
ATOM     10  C   UNL     1      -1.716  11.501  19.012  0.00  0.00    +0.000 A 
ATOM     11  C   UNL     1      -2.952  11.691  18.386  0.00  0.00    +0.000 A 
ATOM     12  C   UNL     1      -3.301  10.947  17.263  0.00  0.00    +0.000 A 
ATOM     13  C   UNL     1      -2.397  10.003  16.779  0.00  0.00    +0.000 A 
ATOM     14  C   UNL     1      -1.151   9.824  17.392  0.00  0.00    +0.000 A 
BRANCH  12  15
ATOM     15  O   UNL     1      -4.468  11.055  16.564  0.00  0.00    +0.000 OA
ATOM     16  C   UNL     1      -5.387  12.045  17.015  0.00  0.00    +0.000 C 
ENDBRANCH  12  15
ENDBRANCH   1   9
BRANCH   1  18
ATOM     17  C   UNL     1       1.646  12.612  20.200  0.00  0.00    +0.000 C 
ATOM     18  C   UNL     1       1.489  11.713  18.974  0.00  0.00    +0.000 C 
ENDBRANCH   1  18
BRANCH   5  19
ATOM     19  C   UNL     1       2.510   7.253  19.590  0.00  0.00    +0.000 C 
BRANCH  19  20
ATOM     20  C   UNL     1       2.590   6.723  18.165  0.00  0.00    +0.000 A 
ATOM     21  N   UNL     1       1.635   5.885  17.778  0.00  0.00    +0.000 NA
ATOM     22  C   UNL     1       2.231   4.687  18.079  0.00  0.00    +0.000 A 
ATOM     23  C   UNL     1       1.668   3.492  18.528  0.00  0.00    +0.000 A 
ATOM     24  C   UNL     1       2.542   2.462  18.886  0.00  0.00    +0.000 A 
ATOM     25  C   UNL     1       3.925   2.580  18.695  0.00  0.00    +0.000 A 
ATOM     26  C   UNL     1       4.504   3.756  18.199  0.00  0.00    +0.000 A 
ATOM     27  C   UNL     1       3.619   4.809  17.984  0.00  0.00    +0.000 A 
ATOM     28  N   UNL     1       3.763   6.146  17.686  0.00  0.00    +0.000 N 
BRANCH  28  29
ATOM     29  C   UNL     1       4.695   6.689  16.719  0.00  0.00    +0.000 C 
ATOM     30  F   UNL     1       5.905   6.935  17.288  0.00  0.00    +0.000 F 
ATOM     31  F   UNL     1       4.922   5.796  15.717  0.00  0.00    +0.000 F 
ENDBRANCH  28  29
ENDBRANCH  19  20
ENDBRANCH   5  19
TORSDOF 6
ENDMDL
MODEL 7
REMARK VINA RESULT:      -8.0      2.380      4.344
REMARK  Name = 
REMARK  8 active torsions:
REMARK  status: ('A' for Active; 'I' for Inactive)
REMARK    1  A    between atoms: C_1  and  C_2
REMARK    2  A    between atoms: C_2  and  C_3
REMARK    3  A    between atoms: C_3  and  C_4
REMARK    4  A    between atoms: C_7  and  O_8
REMARK    5  A    between atoms: O_8  and  C_9
REMARK    6  A    between atoms: N_15  and  C_16
REMARK    7  A    between atoms: C_16  and  C_17
REMARK    8  A    between atoms: N_25  and  C_26
REMARK                            x       y       z     vdW  Elec       q    Type
REMARK                         _______ _______ _______ _____ _____    ______ ____
ROOT
ATOM      1  C   UNL     1       0.260  10.365  19.286  0.00  0.00    +0.000 C 
ATOM      2  N   UNL     1       1.074  10.329  18.090  0.00  0.00    +0.000 N 
ATOM      3  C   UNL     1       1.956   9.264  18.066  0.00  0.00    +0.000 C 
ATOM      4  O   UNL     1       2.743   9.060  17.169  0.00  0.00    +0.000 OA
ATOM      5  N   UNL     1       1.761   8.540  19.203  0.00  0.00    +0.000 N 
ATOM      6  C   UNL     1       0.833   9.120  20.005  0.00  0.00    +0.000 C 
ATOM      7  O   UNL     1       0.513   8.715  21.121  0.00  0.00    +0.000 OA
ATOM      8  H   UNL     1       1.201  11.095  17.440  0.00  0.00    +0.000 HD
ENDROOT
BRANCH   1   9
ATOM      9  C   UNL     1       0.517  11.672  20.039  0.00  0.00    +0.000 A 
ATOM     10  C   UNL     1      -0.364  12.105  21.045  0.00  0.00    +0.000 A 
ATOM     11  C   UNL     1      -0.096  13.243  21.811  0.00  0.00    +0.000 A 
ATOM     12  C   UNL     1       1.054  13.995  21.588  0.00  0.00    +0.000 A 
ATOM     13  C   UNL     1       1.930  13.594  20.580  0.00  0.00    +0.000 A 
ATOM     14  C   UNL     1       1.673  12.445  19.823  0.00  0.00    +0.000 A 
BRANCH  12  15
ATOM     15  O   UNL     1       1.425  15.112  22.279  0.00  0.00    +0.000 OA
ATOM     16  C   UNL     1       0.428  16.114  22.445  0.00  0.00    +0.000 C 
ENDBRANCH  12  15
ENDBRANCH   1   9
BRANCH   1  18
ATOM     17  C   UNL     1      -1.658  10.119  17.533  0.00  0.00    +0.000 C 
ATOM     18  C   UNL     1      -1.235  10.086  19.001  0.00  0.00    +0.000 C 
ENDBRANCH   1  18
BRANCH   5  19
ATOM     19  C   UNL     1       2.410   7.300  19.509  0.00  0.00    +0.000 C 
BRANCH  19  20
ATOM     20  C   UNL     1       2.557   6.409  18.283  0.00  0.00    +0.000 A 
ATOM     21  N   UNL     1       1.555   5.582  18.013  0.00  0.00    +0.000 NA
ATOM     22  C   UNL     1       1.986   4.460  18.673  0.00  0.00    +0.000 A 
ATOM     23  C   UNL     1       1.257   3.476  19.342  0.00  0.00    +0.000 A 
ATOM     24  C   UNL     1       1.976   2.506  20.046  0.00  0.00    +0.000 A 
ATOM     25  C   UNL     1       3.376   2.455  19.991  0.00  0.00    +0.000 A 
ATOM     26  C   UNL     1       4.122   3.407  19.285  0.00  0.00    +0.000 A 
ATOM     27  C   UNL     1       3.381   4.437  18.711  0.00  0.00    +0.000 A 
ATOM     28  N   UNL     1       3.698   5.631  18.103  0.00  0.00    +0.000 N 
BRANCH  28  29
ATOM     29  C   UNL     1       4.767   5.822  17.144  0.00  0.00    +0.000 C 
ATOM     30  F   UNL     1       4.942   4.713  16.376  0.00  0.00    +0.000 F 
ATOM     31  F   UNL     1       4.466   6.834  16.285  0.00  0.00    +0.000 F 
ENDBRANCH  28  29
ENDBRANCH  19  20
ENDBRANCH   5  19
TORSDOF 6
ENDMDL
MODEL 8
REMARK VINA RESULT:      -7.9      1.801      2.628
REMARK  Name = 
REMARK  8 active torsions:
REMARK  status: ('A' for Active; 'I' for Inactive)
REMARK    1  A    between atoms: C_1  and  C_2
REMARK    2  A    between atoms: C_2  and  C_3
REMARK    3  A    between atoms: C_3  and  C_4
REMARK    4  A    between atoms: C_7  and  O_8
REMARK    5  A    between atoms: O_8  and  C_9
REMARK    6  A    between atoms: N_15  and  C_16
REMARK    7  A    between atoms: C_16  and  C_17
REMARK    8  A    between atoms: N_25  and  C_26
REMARK                            x       y       z     vdW  Elec       q    Type
REMARK                         _______ _______ _______ _____ _____    ______ ____
ROOT
ATOM      1  C   UNL     1       0.740  10.430  19.066  0.00  0.00    +0.000 C 
ATOM      2  N   UNL     1       0.513  10.011  20.431  0.00  0.00    +0.000 N 
ATOM      3  C   UNL     1       1.100   8.794  20.730  0.00  0.00    +0.000 C 
ATOM      4  O   UNL     1       1.015   8.250  21.808  0.00  0.00    +0.000 OA
ATOM      5  N   UNL     1       1.752   8.365  19.614  0.00  0.00    +0.000 N 
ATOM      6  C   UNL     1       1.566   9.217  18.575  0.00  0.00    +0.000 C 
ATOM      7  O   UNL     1       1.986   9.040  17.432  0.00  0.00    +0.000 OA
ATOM      8  H   UNL     1      -0.184  10.393  21.059  0.00  0.00    +0.000 HD
ENDROOT
BRANCH   1   9
ATOM      9  C   UNL     1      -0.603  10.580  18.348  0.00  0.00    +0.000 A 
ATOM     10  C   UNL     1      -0.955   9.716  17.297  0.00  0.00    +0.000 A 
ATOM     11  C   UNL     1      -2.215   9.773  16.695  0.00  0.00    +0.000 A 
ATOM     12  C   UNL     1      -3.160  10.706  17.112  0.00  0.00    +0.000 A 
ATOM     13  C   UNL     1      -2.823  11.587  18.139  0.00  0.00    +0.000 A 
ATOM     14  C   UNL     1      -1.568  11.520  18.756  0.00  0.00    +0.000 A 
BRANCH  12  15
ATOM     15  O   UNL     1      -4.422  10.845  16.610  0.00  0.00    +0.000 OA
ATOM     16  C   UNL     1      -5.173  11.957  17.085  0.00  0.00    +0.000 C 
ENDBRANCH  12  15
ENDBRANCH   1   9
BRANCH   1  18
ATOM     17  C   UNL     1       1.624  12.627  20.165  0.00  0.00    +0.000 C 
ATOM     18  C   UNL     1       1.650  11.679  18.967  0.00  0.00    +0.000 C 
ENDBRANCH   1  18
BRANCH   5  19
ATOM     19  C   UNL     1       2.572   7.192  19.541  0.00  0.00    +0.000 C 
BRANCH  19  20
ATOM     20  C   UNL     1       2.602   6.598  18.139  0.00  0.00    +0.000 A 
ATOM     21  N   UNL     1       1.577   5.831  17.787  0.00  0.00    +0.000 NA
ATOM     22  C   UNL     1       2.066   4.600  18.139  0.00  0.00    +0.000 A 
ATOM     23  C   UNL     1       1.402   3.479  18.637  0.00  0.00    +0.000 A 
ATOM     24  C   UNL     1       2.184   2.391  19.039  0.00  0.00    +0.000 A 
ATOM     25  C   UNL     1       3.572   2.380  18.845  0.00  0.00    +0.000 A 
ATOM     26  C   UNL     1       4.249   3.479  18.302  0.00  0.00    +0.000 A 
ATOM     27  C   UNL     1       3.459   4.596  18.041  0.00  0.00    +0.000 A 
ATOM     28  N   UNL     1       3.719   5.902  17.687  0.00  0.00    +0.000 N 
BRANCH  28  29
ATOM     29  C   UNL     1       4.693   6.320  16.700  0.00  0.00    +0.000 C 
ATOM     30  F   UNL     1       4.224   7.357  15.955  0.00  0.00    +0.000 F 
ATOM     31  F   UNL     1       5.826   6.769  17.304  0.00  0.00    +0.000 F 
ENDBRANCH  28  29
ENDBRANCH  19  20
ENDBRANCH   5  19
TORSDOF 6
ENDMDL
MODEL 9
REMARK VINA RESULT:      -7.9      2.471      4.376
REMARK  Name = 
REMARK  8 active torsions:
REMARK  status: ('A' for Active; 'I' for Inactive)
REMARK    1  A    between atoms: C_1  and  C_2
REMARK    2  A    between atoms: C_2  and  C_3
REMARK    3  A    between atoms: C_3  and  C_4
REMARK    4  A    between atoms: C_7  and  O_8
REMARK    5  A    between atoms: O_8  and  C_9
REMARK    6  A    between atoms: N_15  and  C_16
REMARK    7  A    between atoms: C_16  and  C_17
REMARK    8  A    between atoms: N_25  and  C_26
REMARK                            x       y       z     vdW  Elec       q    Type
REMARK                         _______ _______ _______ _____ _____    ______ ____
ROOT
ATOM      1  C   UNL     1       0.371  10.368  19.272  0.00  0.00    +0.000 C 
ATOM      2  N   UNL     1       1.120  10.270  18.039  0.00  0.00    +0.000 N 
ATOM      3  C   UNL     1       1.960   9.170  18.001  0.00  0.00    +0.000 C 
ATOM      4  O   UNL     1       2.691   8.913  17.071  0.00  0.00    +0.000 OA
ATOM      5  N   UNL     1       1.797   8.485  19.165  0.00  0.00    +0.000 N 
ATOM      6  C   UNL     1       0.934   9.122  19.997  0.00  0.00    +0.000 C 
ATOM      7  O   UNL     1       0.656   8.759  21.139  0.00  0.00    +0.000 OA
ATOM      8  H   UNL     1       1.243  11.012  17.361  0.00  0.00    +0.000 HD
ENDROOT
BRANCH   1   9
ATOM      9  C   UNL     1       0.715  11.684  19.974  0.00  0.00    +0.000 A 
ATOM     10  C   UNL     1       1.756  12.499  19.499  0.00  0.00    +0.000 A 
ATOM     11  C   UNL     1       2.021  13.750  20.066  0.00  0.00    +0.000 A 
ATOM     12  C   UNL     1       1.264  14.221  21.134  0.00  0.00    +0.000 A 
ATOM     13  C   UNL     1       0.240  13.417  21.634  0.00  0.00    +0.000 A 
ATOM     14  C   UNL     1      -0.039  12.172  21.058  0.00  0.00    +0.000 A 
BRANCH  12  15
ATOM     15  O   UNL     1       1.422  15.425  21.756  0.00  0.00    +0.000 OA
ATOM     16  C   UNL     1       2.103  16.434  21.018  0.00  0.00    +0.000 C 
ENDBRANCH  12  15
ENDBRANCH   1   9
BRANCH   1  18
ATOM     17  C   UNL     1      -1.689  10.420  17.670  0.00  0.00    +0.000 C 
ATOM     18  C   UNL     1      -1.147  10.140  19.070  0.00  0.00    +0.000 C 
ENDBRANCH   1  18
BRANCH   5  19
ATOM     19  C   UNL     1       2.414   7.229  19.474  0.00  0.00    +0.000 C 
BRANCH  19  20
ATOM     20  C   UNL     1       2.592   6.357  18.239  0.00  0.00    +0.000 A 
ATOM     21  N   UNL     1       1.709   5.383  18.055  0.00  0.00    +0.000 NA
ATOM     22  C   UNL     1       2.362   4.348  18.675  0.00  0.00    +0.000 A 
ATOM     23  C   UNL     1       1.852   3.273  19.403  0.00  0.00    +0.000 A 
ATOM     24  C   UNL     1       2.769   2.433  20.042  0.00  0.00    +0.000 A 
ATOM     25  C   UNL     1       4.150   2.596  19.867  0.00  0.00    +0.000 A 
ATOM     26  C   UNL     1       4.679   3.642  19.101  0.00  0.00    +0.000 A 
ATOM     27  C   UNL     1       3.743   4.540  18.593  0.00  0.00    +0.000 A 
ATOM     28  N   UNL     1       3.819   5.761  17.961  0.00  0.00    +0.000 N 
BRANCH  28  29
ATOM     29  C   UNL     1       4.761   6.101  16.915  0.00  0.00    +0.000 C 
ATOM     30  F   UNL     1       6.014   6.269  17.416  0.00  0.00    +0.000 F 
ATOM     31  F   UNL     1       4.850   5.094  16.003  0.00  0.00    +0.000 F 
ENDBRANCH  28  29
ENDBRANCH  19  20
ENDBRANCH   5  19
TORSDOF 6
ENDMDL
