MODEL 1
REMARK VINA RESULT:      -7.8      0.000      0.000
REMARK  Name = 
REMARK  3 active torsions:
REMARK  status: ('A' for Active; 'I' for Inactive)
REMARK    1  A    between atoms: C_1  and  C_2
REMARK    2  A    between atoms: C_5  and  C_6
REMARK    3  A    between atoms: C_11  and  N_12
REMARK                            x       y       z     vdW  Elec       q    Type
REMARK                         _______ _______ _______ _____ _____    ______ ____
ROOT
ATOM      1  N   UNL     1       1.820   8.617  18.966  0.00  0.00    +0.000 N 
ATOM      2  C   UNL     1       1.689   8.242  20.270  0.00  0.00    +0.000 C 
ATOM      3  O   UNL     1       1.051   8.802  21.169  0.00  0.00    +0.000 OA
ATOM      4  N   UNL     1       2.423   7.037  20.434  0.00  0.00    +0.000 N 
ATOM      5  C   UNL     1       2.512   6.372  19.140  0.00  0.00    +0.000 C 
ATOM      6  C   UNL     1       1.272   5.435  19.029  0.00  0.00    +0.000 C 
ATOM      7  C   UNL     1       1.924   4.075  18.937  0.00  0.00    +0.000 A 
ATOM      8  C   UNL     1       1.396   2.809  19.127  0.00  0.00    +0.000 A 
ATOM      9  C   UNL     1       2.193   1.697  18.806  0.00  0.00    +0.000 A 
ATOM     10  C   UNL     1       3.471   1.857  18.249  0.00  0.00    +0.000 A 
ATOM     11  C   UNL     1       4.007   3.126  18.110  0.00  0.00    +0.000 A 
ATOM     12  C   UNL     1       3.253   4.197  18.544  0.00  0.00    +0.000 A 
ATOM     13  C   UNL     1       3.690   5.600  18.519  0.00  0.00    +0.000 C 
ATOM     14  C   UNL     1       2.614   7.689  18.397  0.00  0.00    +0.000 C 
ATOM     15  O   UNL     1       3.400   7.962  17.494  0.00  0.00    +0.000 OA
ATOM     16  H   UNL     1       2.274   6.520  21.299  0.00  0.00    +0.000 HD
ENDROOT
BRANCH   1  22
ATOM     17  C   UNL     1      -1.348  12.234  20.188  0.00  0.00    +0.000 C 
ATOM     18  O   UNL     1      -2.547  11.962  20.187  0.00  0.00    +0.000 OA
ATOM     19  N   UNL     1      -0.387  11.465  19.503  0.00  0.00    +0.000 N 
ATOM     20  C   UNL     1       1.054  11.700  19.635  0.00  0.00    +0.000 C 
ATOM     21  C   UNL     1       1.918  11.129  18.542  0.00  0.00    +0.000 C 
ATOM     22  C   UNL     1       1.481   9.751  18.126  0.00  0.00    +0.000 C 
ATOM     23  C   UNL     1      -0.024   9.713  17.820  0.00  0.00    +0.000 C 
ATOM     24  C   UNL     1      -0.820  10.160  19.032  0.00  0.00    +0.000 C 
BRANCH  17  29
ATOM     25  C   UNL     1      -0.222  17.101  23.068  0.00  0.00    +0.000 C 
ATOM     26  C   UNL     1      -0.431  15.831  22.302  0.00  0.00    +0.000 A 
ATOM     27  C   UNL     1      -0.514  15.855  20.908  0.00  0.00    +0.000 A 
ATOM     28  C   UNL     1      -0.692  14.670  20.201  0.00  0.00    +0.000 A 
ATOM     29  C   UNL     1      -0.912  13.470  20.885  0.00  0.00    +0.000 A 
ATOM     30  C   UNL     1      -0.777  13.427  22.273  0.00  0.00    +0.000 A 
ATOM     31  C   UNL     1      -0.524  14.605  22.977  0.00  0.00    +0.000 A 
ENDBRANCH  17  29
ENDBRANCH   1  22
TORSDOF 2
ENDMDL
MODEL 2
REMARK VINA RESULT:      -7.3      1.348      1.752
REMARK  Name = 
REMARK  3 active torsions:
REMARK  status: ('A' for Active; 'I' for Inactive)
REMARK    1  A    between atoms: C_1  and  C_2
REMARK    2  A    between atoms: C_5  and  C_6
REMARK    3  A    between atoms: C_11  and  N_12
REMARK                            x       y       z     vdW  Elec       q    Type
REMARK                         _______ _______ _______ _____ _____    ______ ____
ROOT
ATOM      1  N   UNL     1       1.430   8.976  19.274  0.00  0.00    +0.000 N 
ATOM      2  C   UNL     1       1.303   8.918  20.630  0.00  0.00    +0.000 C 
ATOM      3  O   UNL     1       0.652   9.662  21.372  0.00  0.00    +0.000 OA
ATOM      4  N   UNL     1       2.058   7.799  21.072  0.00  0.00    +0.000 N 
ATOM      5  C   UNL     1       2.162   6.849  19.971  0.00  0.00    +0.000 C 
ATOM      6  C   UNL     1       0.940   5.890  20.087  0.00  0.00    +0.000 C 
ATOM      7  C   UNL     1       1.617   4.559  20.317  0.00  0.00    +0.000 A 
ATOM      8  C   UNL     1       1.112   3.364  20.801  0.00  0.00    +0.000 A 
ATOM      9  C   UNL     1       1.931   2.223  20.751  0.00  0.00    +0.000 A 
ATOM     10  C   UNL     1       3.206   2.270  20.169  0.00  0.00    +0.000 A 
ATOM     11  C   UNL     1       3.720   3.481  19.733  0.00  0.00    +0.000 A 
ATOM     12  C   UNL     1       2.944   4.610  19.904  0.00  0.00    +0.000 A 
ATOM     13  C   UNL     1       3.355   5.974  19.548  0.00  0.00    +0.000 C 
ATOM     14  C   UNL     1       2.241   7.956  18.938  0.00  0.00    +0.000 C 
ATOM     15  O   UNL     1       3.024   8.022  17.995  0.00  0.00    +0.000 OA
ATOM     16  H   UNL     1       1.916   7.498  22.035  0.00  0.00    +0.000 HD
ENDROOT
BRANCH   1  22
ATOM     17  C   UNL     1      -1.111  13.207  19.786  0.00  0.00    +0.000 C 
ATOM     18  O   UNL     1      -2.315  13.121  20.021  0.00  0.00    +0.000 OA
ATOM     19  N   UNL     1      -0.359  12.150  19.237  0.00  0.00    +0.000 N 
ATOM     20  C   UNL     1       1.100  12.202  19.105  0.00  0.00    +0.000 C 
ATOM     21  C   UNL     1       1.709  11.236  18.124  0.00  0.00    +0.000 C 
ATOM     22  C   UNL     1       1.071   9.874  18.190  0.00  0.00    +0.000 C 
ATOM     23  C   UNL     1      -0.460   9.971  18.107  0.00  0.00    +0.000 C 
ATOM     24  C   UNL     1      -0.994  10.842  19.229  0.00  0.00    +0.000 C 
BRANCH  17  29
ATOM     25  C   UNL     1       1.952  18.049  20.439  0.00  0.00    +0.000 C 
ATOM     26  C   UNL     1       1.091  16.830  20.308  0.00  0.00    +0.000 A 
ATOM     27  C   UNL     1       0.936  15.959  21.388  0.00  0.00    +0.000 A 
ATOM     28  C   UNL     1       0.123  14.837  21.265  0.00  0.00    +0.000 A 
ATOM     29  C   UNL     1      -0.443  14.511  20.028  0.00  0.00    +0.000 A 
ATOM     30  C   UNL     1      -0.339  15.403  18.960  0.00  0.00    +0.000 A 
ATOM     31  C   UNL     1       0.417  16.567  19.107  0.00  0.00    +0.000 A 
ENDBRANCH  17  29
ENDBRANCH   1  22
TORSDOF 2
ENDMDL
MODEL 3
REMARK VINA RESULT:      -7.3      2.984      9.593
REMARK  Name = 
REMARK  3 active torsions:
REMARK  status: ('A' for Active; 'I' for Inactive)
REMARK    1  A    between atoms: C_1  and  C_2
REMARK    2  A    between atoms: C_5  and  C_6
REMARK    3  A    between atoms: C_11  and  N_12
REMARK                            x       y       z     vdW  Elec       q    Type
REMARK                         _______ _______ _______ _____ _____    ______ ____
ROOT
ATOM      1  N   UNL     1      -1.559  12.733  19.744  0.00  0.00    +0.000 N 
ATOM      2  C   UNL     1      -2.589  12.035  19.188  0.00  0.00    +0.000 C 
ATOM      3  O   UNL     1      -2.540  10.984  18.537  0.00  0.00    +0.000 OA
ATOM      4  N   UNL     1      -3.785  12.730  19.506  0.00  0.00    +0.000 N 
ATOM      5  C   UNL     1      -3.559  13.505  20.720  0.00  0.00    +0.000 C 
ATOM      6  C   UNL     1      -3.941  12.585  21.919  0.00  0.00    +0.000 C 
ATOM      7  C   UNL     1      -5.090  13.350  22.536  0.00  0.00    +0.000 A 
ATOM      8  C   UNL     1      -6.065  12.942  23.430  0.00  0.00    +0.000 A 
ATOM      9  C   UNL     1      -6.919  13.915  23.977  0.00  0.00    +0.000 A 
ATOM     10  C   UNL     1      -6.754  15.276  23.678  0.00  0.00    +0.000 A 
ATOM     11  C   UNL     1      -5.808  15.666  22.745  0.00  0.00    +0.000 A 
ATOM     12  C   UNL     1      -5.062  14.680  22.131  0.00  0.00    +0.000 A 
ATOM     13  C   UNL     1      -4.058  14.914  21.085  0.00  0.00    +0.000 C 
ATOM     14  C   UNL     1      -2.122  13.801  20.341  0.00  0.00    +0.000 C 
ATOM     15  O   UNL     1      -1.555  14.888  20.412  0.00  0.00    +0.000 OA
ATOM     16  H   UNL     1      -4.663  12.243  19.331  0.00  0.00    +0.000 HD
ENDROOT
BRANCH   1  22
ATOM     17  C   UNL     1       1.258   8.873  21.075  0.00  0.00    +0.000 C 
ATOM     18  O   UNL     1       1.330   8.609  22.274  0.00  0.00    +0.000 OA
ATOM     19  N   UNL     1       0.843  10.127  20.589  0.00  0.00    +0.000 N 
ATOM     20  C   UNL     1       0.608  10.386  19.165  0.00  0.00    +0.000 C 
ATOM     21  C   UNL     1       0.609  11.833  18.749  0.00  0.00    +0.000 C 
ATOM     22  C   UNL     1      -0.107  12.714  19.736  0.00  0.00    +0.000 C 
ATOM     23  C   UNL     1       0.398  12.473  21.167  0.00  0.00    +0.000 C 
ATOM     24  C   UNL     1       0.214  11.017  21.552  0.00  0.00    +0.000 C 
BRANCH  17  29
ATOM     25  C   UNL     1       3.471   4.814  17.627  0.00  0.00    +0.000 C 
ATOM     26  C   UNL     1       2.825   5.867  18.475  0.00  0.00    +0.000 A 
ATOM     27  C   UNL     1       2.821   7.200  18.061  0.00  0.00    +0.000 A 
ATOM     28  C   UNL     1       2.206   8.171  18.845  0.00  0.00    +0.000 A 
ATOM     29  C   UNL     1       1.699   7.838  20.105  0.00  0.00    +0.000 A 
ATOM     30  C   UNL     1       1.649   6.502  20.503  0.00  0.00    +0.000 A 
ATOM     31  C   UNL     1       2.201   5.518  19.682  0.00  0.00    +0.000 A 
ENDBRANCH  17  29
ENDBRANCH   1  22
TORSDOF 2
ENDMDL
MODEL 4
REMARK VINA RESULT:      -7.2      5.958      9.188
REMARK  Name = 
REMARK  3 active torsions:
REMARK  status: ('A' for Active; 'I' for Inactive)
REMARK    1  A    between atoms: C_1  and  C_2
REMARK    2  A    between atoms: C_5  and  C_6
REMARK    3  A    between atoms: C_11  and  N_12
REMARK                            x       y       z     vdW  Elec       q    Type
REMARK                         _______ _______ _______ _____ _____    ______ ____
ROOT
ATOM      1  N   UNL     1       2.154  14.487  18.554  0.00  0.00    +0.000 N 
ATOM      2  C   UNL     1       2.217  13.149  18.304  0.00  0.00    +0.000 C 
ATOM      3  O   UNL     1       3.177  12.491  17.885  0.00  0.00    +0.000 OA
ATOM      4  N   UNL     1       0.950  12.602  18.636  0.00  0.00    +0.000 N 
ATOM      5  C   UNL     1       0.315  13.472  19.620  0.00  0.00    +0.000 C 
ATOM      6  C   UNL     1       0.749  12.954  21.024  0.00  0.00    +0.000 C 
ATOM      7  C   UNL     1      -0.578  12.552  21.624  0.00  0.00    +0.000 A 
ATOM      8  C   UNL     1      -0.866  11.745  22.711  0.00  0.00    +0.000 A 
ATOM      9  C   UNL     1      -2.197  11.677  23.160  0.00  0.00    +0.000 A 
ATOM     10  C   UNL     1      -3.203  12.453  22.565  0.00  0.00    +0.000 A 
ATOM     11  C   UNL     1      -2.913  13.218  21.448  0.00  0.00    +0.000 A 
ATOM     12  C   UNL     1      -1.625  13.175  20.953  0.00  0.00    +0.000 A 
ATOM     13  C   UNL     1      -1.162  13.881  19.751  0.00  0.00    +0.000 C 
ATOM     14  C   UNL     1       0.901  14.719  18.989  0.00  0.00    +0.000 C 
ATOM     15  O   UNL     1       0.307  15.768  18.753  0.00  0.00    +0.000 OA
ATOM     16  H   UNL     1       0.885  11.586  18.691  0.00  0.00    +0.000 HD
ENDROOT
BRANCH   1  22
ATOM     17  C   UNL     1       6.934  14.910  19.810  0.00  0.00    +0.000 C 
ATOM     18  O   UNL     1       7.199  15.022  21.006  0.00  0.00    +0.000 OA
ATOM     19  N   UNL     1       5.657  15.175  19.279  0.00  0.00    +0.000 N 
ATOM     20  C   UNL     1       5.306  14.891  17.885  0.00  0.00    +0.000 C 
ATOM     21  C   UNL     1       4.099  15.614  17.349  0.00  0.00    +0.000 C 
ATOM     22  C   UNL     1       2.972  15.669  18.345  0.00  0.00    +0.000 C 
ATOM     23  C   UNL     1       3.459  16.185  19.708  0.00  0.00    +0.000 C 
ATOM     24  C   UNL     1       4.572  15.302  20.239  0.00  0.00    +0.000 C 
BRANCH  17  29
ATOM     25  C   UNL     1      11.518  13.338  16.684  0.00  0.00    +0.000 C 
ATOM     26  C   UNL     1      10.287  13.765  17.423  0.00  0.00    +0.000 A 
ATOM     27  C   UNL     1      10.043  15.119  17.662  0.00  0.00    +0.000 A 
ATOM     28  C   UNL     1       8.891  15.511  18.335  0.00  0.00    +0.000 A 
ATOM     29  C   UNL     1       8.035  14.549  18.882  0.00  0.00    +0.000 A 
ATOM     30  C   UNL     1       8.241  13.198  18.601  0.00  0.00    +0.000 A 
ATOM     31  C   UNL     1       9.359  12.810  17.863  0.00  0.00    +0.000 A 
ENDBRANCH  17  29
ENDBRANCH   1  22
TORSDOF 2
ENDMDL
MODEL 5
REMARK VINA RESULT:      -7.1      2.496      3.746
REMARK  Name = 
REMARK  3 active torsions:
REMARK  status: ('A' for Active; 'I' for Inactive)
REMARK    1  A    between atoms: C_1  and  C_2
REMARK    2  A    between atoms: C_5  and  C_6
REMARK    3  A    between atoms: C_11  and  N_12
REMARK                            x       y       z     vdW  Elec       q    Type
REMARK                         _______ _______ _______ _____ _____    ______ ____
ROOT
ATOM      1  N   UNL     1       1.620   7.987  19.873  0.00  0.00    +0.000 N 
ATOM      2  C   UNL     1       1.521   8.681  18.704  0.00  0.00    +0.000 C 
ATOM      3  O   UNL     1       1.177   9.857  18.537  0.00  0.00    +0.000 OA
ATOM      4  N   UNL     1       1.915   7.801  17.661  0.00  0.00    +0.000 N 
ATOM      5  C   UNL     1       2.796   6.784  18.224  0.00  0.00    +0.000 C 
ATOM      6  C   UNL     1       4.248   7.337  18.113  0.00  0.00    +0.000 C 
ATOM      7  C   UNL     1       4.892   6.323  17.196  0.00  0.00    +0.000 A 
ATOM      8  C   UNL     1       6.062   6.390  16.460  0.00  0.00    +0.000 A 
ATOM      9  C   UNL     1       6.517   5.224  15.820  0.00  0.00    +0.000 A 
ATOM     10  C   UNL     1       5.841   4.004  15.969  0.00  0.00    +0.000 A 
ATOM     11  C   UNL     1       4.646   3.960  16.665  0.00  0.00    +0.000 A 
ATOM     12  C   UNL     1       4.156   5.142  17.183  0.00  0.00    +0.000 A 
ATOM     13  C   UNL     1       2.882   5.282  17.901  0.00  0.00    +0.000 C 
ATOM     14  C   UNL     1       2.029   6.750  19.531  0.00  0.00    +0.000 C 
ATOM     15  O   UNL     1       1.678   5.748  20.148  0.00  0.00    +0.000 OA
ATOM     16  H   UNL     1       2.082   8.215  16.746  0.00  0.00    +0.000 HD
ENDROOT
BRANCH   1  22
ATOM     17  C   UNL     1      -0.410  12.075  21.815  0.00  0.00    +0.000 C 
ATOM     18  O   UNL     1       0.309  13.066  21.932  0.00  0.00    +0.000 OA
ATOM     19  N   UNL     1       0.098  10.771  21.663  0.00  0.00    +0.000 N 
ATOM     20  C   UNL     1      -0.757   9.618  21.367  0.00  0.00    +0.000 C 
ATOM     21  C   UNL     1      -0.168   8.266  21.669  0.00  0.00    +0.000 C 
ATOM     22  C   UNL     1       1.280   8.168  21.273  0.00  0.00    +0.000 C 
ATOM     23  C   UNL     1       2.092   9.346  21.835  0.00  0.00    +0.000 C 
ATOM     24  C   UNL     1       1.514  10.663  21.351  0.00  0.00    +0.000 C 
BRANCH  17  29
ATOM     25  C   UNL     1      -6.015  13.393  22.146  0.00  0.00    +0.000 C 
ATOM     26  C   UNL     1      -4.581  12.968  22.062  0.00  0.00    +0.000 A 
ATOM     27  C   UNL     1      -3.887  12.602  23.217  0.00  0.00    +0.000 A 
ATOM     28  C   UNL     1      -2.560  12.193  23.131  0.00  0.00    +0.000 A 
ATOM     29  C   UNL     1      -1.880  12.264  21.911  0.00  0.00    +0.000 A 
ATOM     30  C   UNL     1      -2.579  12.576  20.744  0.00  0.00    +0.000 A 
ATOM     31  C   UNL     1      -3.930  12.915  20.820  0.00  0.00    +0.000 A 
ENDBRANCH  17  29
ENDBRANCH   1  22
TORSDOF 2
ENDMDL
MODEL 6
REMARK VINA RESULT:      -6.9      6.080      8.641
REMARK  Name = 
REMARK  3 active torsions:
REMARK  status: ('A' for Active; 'I' for Inactive)
REMARK    1  A    between atoms: C_1  and  C_2
REMARK    2  A    between atoms: C_5  and  C_6
REMARK    3  A    between atoms: C_11  and  N_12
REMARK                            x       y       z     vdW  Elec       q    Type
REMARK                         _______ _______ _______ _____ _____    ______ ____
ROOT
ATOM      1  N   UNL     1       4.954  15.867  19.629  0.00  0.00    +0.000 N 
ATOM      2  C   UNL     1       5.449  15.066  20.614  0.00  0.00    +0.000 C 
ATOM      3  O   UNL     1       4.825  14.370  21.424  0.00  0.00    +0.000 OA
ATOM      4  N   UNL     1       6.865  15.147  20.545  0.00  0.00    +0.000 N 
ATOM      5  C   UNL     1       7.240  15.517  19.186  0.00  0.00    +0.000 C 
ATOM      6  C   UNL     1       7.419  14.189  18.391  0.00  0.00    +0.000 C 
ATOM      7  C   UNL     1       8.882  14.253  18.016  0.00  0.00    +0.000 A 
ATOM      8  C   UNL     1       9.743  13.261  17.579  0.00  0.00    +0.000 A 
ATOM      9  C   UNL     1      11.022  13.634  17.132  0.00  0.00    +0.000 A 
ATOM     10  C   UNL     1      11.403  14.983  17.069  0.00  0.00    +0.000 A 
ATOM     11  C   UNL     1      10.553  15.962  17.555  0.00  0.00    +0.000 A 
ATOM     12  C   UNL     1       9.350  15.560  18.101  0.00  0.00    +0.000 A 
ATOM     13  C   UNL     1       8.359  16.459  18.706  0.00  0.00    +0.000 C 
ATOM     14  C   UNL     1       6.028  16.412  19.026  0.00  0.00    +0.000 C 
ATOM     15  O   UNL     1       6.011  17.545  18.553  0.00  0.00    +0.000 OA
ATOM     16  H   UNL     1       7.393  14.463  21.085  0.00  0.00    +0.000 HD
ENDROOT
BRANCH   1  22
ATOM     17  C   UNL     1       0.784  13.194  19.341  0.00  0.00    +0.000 C 
ATOM     18  O   UNL     1       0.698  12.373  18.429  0.00  0.00    +0.000 OA
ATOM     19  N   UNL     1       1.694  14.269  19.322  0.00  0.00    +0.000 N 
ATOM     20  C   UNL     1       1.902  15.149  20.475  0.00  0.00    +0.000 C 
ATOM     21  C   UNL     1       2.541  16.481  20.181  0.00  0.00    +0.000 C 
ATOM     22  C   UNL     1       3.665  16.371  19.187  0.00  0.00    +0.000 C 
ATOM     23  C   UNL     1       3.228  15.595  17.935  0.00  0.00    +0.000 C 
ATOM     24  C   UNL     1       2.743  14.209  18.317  0.00  0.00    +0.000 C 
BRANCH  17  29
ATOM     25  C   UNL     1      -3.113  12.259  23.487  0.00  0.00    +0.000 C 
ATOM     26  C   UNL     1      -2.073  12.570  22.454  0.00  0.00    +0.000 A 
ATOM     27  C   UNL     1      -2.311  13.552  21.490  0.00  0.00    +0.000 A 
ATOM     28  C   UNL     1      -1.336  13.847  20.543  0.00  0.00    +0.000 A 
ATOM     29  C   UNL     1      -0.167  13.081  20.475  0.00  0.00    +0.000 A 
ATOM     30  C   UNL     1       0.102  12.136  21.466  0.00  0.00    +0.000 A 
ATOM     31  C   UNL     1      -0.846  11.892  22.460  0.00  0.00    +0.000 A 
ENDBRANCH  17  29
ENDBRANCH   1  22
TORSDOF 2
ENDMDL
MODEL 7
REMARK VINA RESULT:      -6.9      5.522      8.691
REMARK  Name = 
REMARK  3 active torsions:
REMARK  status: ('A' for Active; 'I' for Inactive)
REMARK    1  A    between atoms: C_1  and  C_2
REMARK    2  A    between atoms: C_5  and  C_6
REMARK    3  A    between atoms: C_11  and  N_12
REMARK                            x       y       z     vdW  Elec       q    Type
REMARK                         _______ _______ _______ _____ _____    ______ ____
ROOT
ATOM      1  N   UNL     1       3.580  15.240  19.384  0.00  0.00    +0.000 N 
ATOM      2  C   UNL     1       4.168  14.737  20.505  0.00  0.00    +0.000 C 
ATOM      3  O   UNL     1       3.736  13.872  21.276  0.00  0.00    +0.000 OA
ATOM      4  N   UNL     1       5.426  15.383  20.643  0.00  0.00    +0.000 N 
ATOM      5  C   UNL     1       5.858  15.834  19.326  0.00  0.00    +0.000 C 
ATOM      6  C   UNL     1       6.684  14.669  18.700  0.00  0.00    +0.000 C 
ATOM      7  C   UNL     1       8.044  15.309  18.545  0.00  0.00    +0.000 A 
ATOM      8  C   UNL     1       9.289  14.738  18.341  0.00  0.00    +0.000 A 
ATOM      9  C   UNL     1      10.374  15.585  18.057  0.00  0.00    +0.000 A 
ATOM     10  C   UNL     1      10.198  16.970  17.921  0.00  0.00    +0.000 A 
ATOM     11  C   UNL     1       8.959  17.534  18.175  0.00  0.00    +0.000 A 
ATOM     12  C   UNL     1       7.937  16.696  18.570  0.00  0.00    +0.000 A 
ATOM     13  C   UNL     1       6.581  17.133  18.929  0.00  0.00    +0.000 C 
ATOM     14  C   UNL     1       4.440  16.156  18.898  0.00  0.00    +0.000 C 
ATOM     15  O   UNL     1       4.062  17.170  18.319  0.00  0.00    +0.000 OA
ATOM     16  H   UNL     1       6.076  14.987  21.320  0.00  0.00    +0.000 HD
ENDROOT
BRANCH   1  22
ATOM     17  C   UNL     1       0.225  11.638  20.001  0.00  0.00    +0.000 C 
ATOM     18  O   UNL     1       0.473  10.540  19.505  0.00  0.00    +0.000 OA
ATOM     19  N   UNL     1       0.859  12.827  19.590  0.00  0.00    +0.000 N 
ATOM     20  C   UNL     1       0.676  14.103  20.288  0.00  0.00    +0.000 C 
ATOM     21  C   UNL     1       1.035  15.339  19.506  0.00  0.00    +0.000 C 
ATOM     22  C   UNL     1       2.297  15.166  18.706  0.00  0.00    +0.000 C 
ATOM     23  C   UNL     1       2.251  13.882  17.863  0.00  0.00    +0.000 C 
ATOM     24  C   UNL     1       2.039  12.673  18.755  0.00  0.00    +0.000 C 
BRANCH  17  29
ATOM     25  C   UNL     1      -3.791  12.511  24.046  0.00  0.00    +0.000 C 
ATOM     26  C   UNL     1      -2.775  12.204  22.990  0.00  0.00    +0.000 A 
ATOM     27  C   UNL     1      -1.580  11.566  23.327  0.00  0.00    +0.000 A 
ATOM     28  C   UNL     1      -0.646  11.268  22.340  0.00  0.00    +0.000 A 
ATOM     29  C   UNL     1      -0.844  11.715  21.029  0.00  0.00    +0.000 A 
ATOM     30  C   UNL     1      -2.058  12.303  20.672  0.00  0.00    +0.000 A 
ATOM     31  C   UNL     1      -3.025  12.535  21.650  0.00  0.00    +0.000 A 
ENDBRANCH  17  29
ENDBRANCH   1  22
TORSDOF 2
ENDMDL
MODEL 8
REMARK VINA RESULT:      -6.9      5.860      8.668
REMARK  Name = 
REMARK  3 active torsions:
REMARK  status: ('A' for Active; 'I' for Inactive)
REMARK    1  A    between atoms: C_1  and  C_2
REMARK    2  A    between atoms: C_5  and  C_6
REMARK    3  A    between atoms: C_11  and  N_12
REMARK                            x       y       z     vdW  Elec       q    Type
REMARK                         _______ _______ _______ _____ _____    ______ ____
ROOT
ATOM      1  N   UNL     1       4.370  15.585  19.558  0.00  0.00    +0.000 N 
ATOM      2  C   UNL     1       4.927  14.909  20.602  0.00  0.00    +0.000 C 
ATOM      3  O   UNL     1       4.378  14.135  21.395  0.00  0.00    +0.000 OA
ATOM      4  N   UNL     1       6.308  15.237  20.623  0.00  0.00    +0.000 N 
ATOM      5  C   UNL     1       6.708  15.634  19.278  0.00  0.00    +0.000 C 
ATOM      6  C   UNL     1       7.172  14.338  18.546  0.00  0.00    +0.000 C 
ATOM      7  C   UNL     1       8.623  14.650  18.265  0.00  0.00    +0.000 A 
ATOM      8  C   UNL     1       9.673  13.815  17.923  0.00  0.00    +0.000 A 
ATOM      9  C   UNL     1      10.896  14.397  17.546  0.00  0.00    +0.000 A 
ATOM     10  C   UNL     1      11.039  15.790  17.457  0.00  0.00    +0.000 A 
ATOM     11  C   UNL     1       9.999  16.615  17.850  0.00  0.00    +0.000 A 
ATOM     12  C   UNL     1       8.849  16.021  18.331  0.00  0.00    +0.000 A 
ATOM     13  C   UNL     1       7.676  16.746  18.836  0.00  0.00    +0.000 C 
ATOM     14  C   UNL     1       5.372  16.296  19.006  0.00  0.00    +0.000 C 
ATOM     15  O   UNL     1       5.191  17.395  18.490  0.00  0.00    +0.000 OA
ATOM     16  H   UNL     1       6.909  14.672  21.221  0.00  0.00    +0.000 HD
ENDROOT
BRANCH   1  22
ATOM     17  C   UNL     1       0.691  12.267  19.302  0.00  0.00    +0.000 C 
ATOM     18  O   UNL     1       0.788  11.375  18.461  0.00  0.00    +0.000 OA
ATOM     19  N   UNL     1       1.422  13.468  19.235  0.00  0.00    +0.000 N 
ATOM     20  C   UNL     1       1.421  14.456  20.317  0.00  0.00    +0.000 C 
ATOM     21  C   UNL     1       1.863  15.846  19.942  0.00  0.00    +0.000 C 
ATOM     22  C   UNL     1       3.048  15.841  19.015  0.00  0.00    +0.000 C 
ATOM     23  C   UNL     1       2.812  14.912  17.814  0.00  0.00    +0.000 C 
ATOM     24  C   UNL     1       2.526  13.500  18.289  0.00  0.00    +0.000 C 
BRANCH  17  29
ATOM     25  C   UNL     1      -3.046  12.148  23.693  0.00  0.00    +0.000 C 
ATOM     26  C   UNL     1      -2.098  12.099  22.534  0.00  0.00    +0.000 A 
ATOM     27  C   UNL     1      -0.845  11.499  22.676  0.00  0.00    +0.000 A 
ATOM     28  C   UNL     1       0.025  11.441  21.592  0.00  0.00    +0.000 A 
ATOM     29  C   UNL     1      -0.298  12.090  20.396  0.00  0.00    +0.000 A 
ATOM     30  C   UNL     1      -1.568  12.644  20.228  0.00  0.00    +0.000 A 
ATOM     31  C   UNL     1      -2.469  12.636  21.293  0.00  0.00    +0.000 A 
ENDBRANCH  17  29
ENDBRANCH   1  22
TORSDOF 2
ENDMDL
MODEL 9
REMARK VINA RESULT:      -6.8      2.266      3.398
REMARK  Name = 
REMARK  3 active torsions:
REMARK  status: ('A' for Active; 'I' for Inactive)
REMARK    1  A    between atoms: C_1  and  C_2
REMARK    2  A    between atoms: C_5  and  C_6
REMARK    3  A    between atoms: C_11  and  N_12
REMARK                            x       y       z     vdW  Elec       q    Type
REMARK                         _______ _______ _______ _____ _____    ______ ____
ROOT
ATOM      1  N   UNL     1       0.052   9.834  21.226  0.00  0.00    +0.000 N 
ATOM      2  C   UNL     1       0.857   9.550  22.287  0.00  0.00    +0.000 C 
ATOM      3  O   UNL     1       0.702   9.862  23.474  0.00  0.00    +0.000 OA
ATOM      4  N   UNL     1       1.945   8.784  21.793  0.00  0.00    +0.000 N 
ATOM      5  C   UNL     1       1.518   8.112  20.571  0.00  0.00    +0.000 C 
ATOM      6  C   UNL     1       0.927   6.735  20.998  0.00  0.00    +0.000 C 
ATOM      7  C   UNL     1       1.869   5.773  20.312  0.00  0.00    +0.000 A 
ATOM      8  C   UNL     1       2.091   4.423  20.527  0.00  0.00    +0.000 A 
ATOM      9  C   UNL     1       2.909   3.727  19.621  0.00  0.00    +0.000 A 
ATOM     10  C   UNL     1       3.441   4.362  18.489  0.00  0.00    +0.000 A 
ATOM     11  C   UNL     1       3.254   5.723  18.311  0.00  0.00    +0.000 A 
ATOM     12  C   UNL     1       2.548   6.409  19.278  0.00  0.00    +0.000 A 
ATOM     13  C   UNL     1       2.304   7.858  19.272  0.00  0.00    +0.000 C 
ATOM     14  C   UNL     1       0.651   9.283  20.153  0.00  0.00    +0.000 C 
ATOM     15  O   UNL     1       0.587   9.785  19.034  0.00  0.00    +0.000 OA
ATOM     16  H   UNL     1       2.539   8.326  22.482  0.00  0.00    +0.000 HD
ENDROOT
BRANCH   1  22
ATOM     17  C   UNL     1      -0.045  14.794  21.187  0.00  0.00    +0.000 C 
ATOM     18  O   UNL     1       0.005  15.372  22.271  0.00  0.00    +0.000 OA
ATOM     19  N   UNL     1      -0.418  13.443  21.053  0.00  0.00    +0.000 N 
ATOM     20  C   UNL     1      -0.326  12.719  19.782  0.00  0.00    +0.000 C 
ATOM     21  C   UNL     1      -1.152  11.464  19.677  0.00  0.00    +0.000 C 
ATOM     22  C   UNL     1      -1.118  10.647  20.940  0.00  0.00    +0.000 C 
ATOM     23  C   UNL     1      -1.440  11.508  22.170  0.00  0.00    +0.000 C 
ATOM     24  C   UNL     1      -0.459  12.661  22.278  0.00  0.00    +0.000 C 
BRANCH  17  29
ATOM     25  C   UNL     1       1.204  18.306  16.786  0.00  0.00    +0.000 C 
ATOM     26  C   UNL     1       0.860  17.333  17.873  0.00  0.00    +0.000 A 
ATOM     27  C   UNL     1      -0.472  17.127  18.236  0.00  0.00    +0.000 A 
ATOM     28  C   UNL     1      -0.787  16.211  19.234  0.00  0.00    +0.000 A 
ATOM     29  C   UNL     1       0.232  15.585  19.961  0.00  0.00    +0.000 A 
ATOM     30  C   UNL     1       1.562  15.743  19.569  0.00  0.00    +0.000 A 
ATOM     31  C   UNL     1       1.872  16.607  18.518  0.00  0.00    +0.000 A 
ENDBRANCH  17  29
ENDBRANCH   1  22
TORSDOF 2
ENDMDL
