MODEL 1
REMARK VINA RESULT:      -9.9      0.000      0.000
REMARK  Name = 
REMARK  3 active torsions:
REMARK  status: ('A' for Active; 'I' for Inactive)
REMARK    1  A    between atoms: C_2  and  C_3
REMARK    2  A    between atoms: C_8  and  C_9
REMARK    3  A    between atoms: C_9  and  C_10
REMARK                            x       y       z     vdW  Elec       q    Type
REMARK                         _______ _______ _______ _____ _____    ______ ____
ROOT
ATOM      1  O   UNL     1       2.253   3.537  16.456  0.00  0.00    +0.000 OA
ATOM      2  C   UNL     1       3.060   3.787  17.346  0.00  0.00    +0.000 C 
ATOM      3  N   UNL     1       4.432   3.942  17.105  0.00  0.00    +0.000 N 
ATOM      4  C   UNL     1       4.921   3.948  15.728  0.00  0.00    +0.000 C 
ATOM      5  C   UNL     1       5.864   5.134  15.461  0.00  0.00    +0.000 C 
ATOM      6  C   UNL     1       6.602   5.636  16.682  0.00  0.00    +0.000 A 
ATOM      7  N   UNL     1       7.381   6.754  16.484  0.00  0.00    +0.000 NA
ATOM      8  C   UNL     1       7.925   7.283  17.525  0.00  0.00    +0.000 A 
ATOM      9  N   UNL     1       7.812   6.777  18.785  0.00  0.00    +0.000 N 
ATOM     10  C   UNL     1       7.128   5.625  19.037  0.00  0.00    +0.000 A 
ATOM     11  O   UNL     1       7.074   5.128  20.155  0.00  0.00    +0.000 OA
ATOM     12  C   UNL     1       6.432   5.040  17.877  0.00  0.00    +0.000 A 
ATOM     13  C   UNL     1       5.493   3.897  18.118  0.00  0.00    +0.000 C 
ATOM     14  H   UNL     1       8.279   7.215  19.566  0.00  0.00    +0.000 HD
ENDROOT
BRANCH   2  15
ATOM     15  C   UNL     1       2.544   3.903  18.743  0.00  0.00    +0.000 A 
ATOM     16  C   UNL     1       1.716   2.867  19.202  0.00  0.00    +0.000 A 
ATOM     17  C   UNL     1       1.289   2.834  20.532  0.00  0.00    +0.000 A 
ATOM     18  C   UNL     1       1.724   3.808  21.422  0.00  0.00    +0.000 A 
ATOM     19  C   UNL     1       2.491   4.873  20.955  0.00  0.00    +0.000 A 
ATOM     20  C   UNL     1       2.836   4.985  19.593  0.00  0.00    +0.000 A 
BRANCH  20  21
ATOM     21  C   UNL     1       3.410   6.302  19.101  0.00  0.00    +0.000 C 
BRANCH  21  22
ATOM     22  C   UNL     1       2.369   7.402  19.123  0.00  0.00    +0.000 A 
ATOM     23  C   UNL     1       2.066   8.118  17.955  0.00  0.00    +0.000 A 
ATOM     24  C   UNL     1       1.257   9.250  18.017  0.00  0.00    +0.000 A 
ATOM     25  C   UNL     1       0.724   9.659  19.239  0.00  0.00    +0.000 A 
ATOM     26  C   UNL     1       0.979   8.924  20.395  0.00  0.00    +0.000 A 
ATOM     27  C   UNL     1       1.801   7.800  20.340  0.00  0.00    +0.000 A 
ENDBRANCH  21  22
ENDBRANCH  20  21
ENDBRANCH   2  15
TORSDOF 3
ENDMDL
MODEL 2
REMARK VINA RESULT:      -7.9      2.767      6.543
REMARK  Name = 
REMARK  3 active torsions:
REMARK  status: ('A' for Active; 'I' for Inactive)
REMARK    1  A    between atoms: C_2  and  C_3
REMARK    2  A    between atoms: C_8  and  C_9
REMARK    3  A    between atoms: C_9  and  C_10
REMARK                            x       y       z     vdW  Elec       q    Type
REMARK                         _______ _______ _______ _____ _____    ______ ____
ROOT
ATOM      1  O   UNL     1       5.676   2.706  16.280  0.00  0.00    +0.000 OA
ATOM      2  C   UNL     1       5.162   3.551  17.008  0.00  0.00    +0.000 C 
ATOM      3  N   UNL     1       3.846   3.448  17.479  0.00  0.00    +0.000 N 
ATOM      4  C   UNL     1       3.086   2.227  17.220  0.00  0.00    +0.000 C 
ATOM      5  C   UNL     1       2.414   1.691  18.495  0.00  0.00    +0.000 C 
ATOM      6  C   UNL     1       2.097   2.747  19.530  0.00  0.00    +0.000 A 
ATOM      7  N   UNL     1       1.578   2.278  20.716  0.00  0.00    +0.000 NA
ATOM      8  C   UNL     1       1.413   3.133  21.665  0.00  0.00    +0.000 A 
ATOM      9  N   UNL     1       1.674   4.465  21.545  0.00  0.00    +0.000 N 
ATOM     10  C   UNL     1       2.106   5.008  20.372  0.00  0.00    +0.000 A 
ATOM     11  O   UNL     1       2.282   6.213  20.236  0.00  0.00    +0.000 OA
ATOM     12  C   UNL     1       2.376   4.043  19.292  0.00  0.00    +0.000 A 
ATOM     13  C   UNL     1       3.050   4.541  18.050  0.00  0.00    +0.000 C 
ATOM     14  H   UNL     1       1.504   5.099  22.312  0.00  0.00    +0.000 HD
ENDROOT
BRANCH   2  15
ATOM     15  C   UNL     1       5.981   4.745  17.375  0.00  0.00    +0.000 A 
ATOM     16  C   UNL     1       6.461   4.806  18.693  0.00  0.00    +0.000 A 
ATOM     17  C   UNL     1       7.333   5.824  19.086  0.00  0.00    +0.000 A 
ATOM     18  C   UNL     1       7.768   6.760  18.155  0.00  0.00    +0.000 A 
ATOM     19  C   UNL     1       7.243   6.742  16.865  0.00  0.00    +0.000 A 
ATOM     20  C   UNL     1       6.275   5.791  16.481  0.00  0.00    +0.000 A 
BRANCH  20  21
ATOM     21  C   UNL     1       5.533   6.006  15.174  0.00  0.00    +0.000 C 
BRANCH  21  22
ATOM     22  C   UNL     1       6.055   5.094  14.084  0.00  0.00    +0.000 A 
ATOM     23  C   UNL     1       7.344   5.276  13.561  0.00  0.00    +0.000 A 
ATOM     24  C   UNL     1       7.749   4.567  12.433  0.00  0.00    +0.000 A 
ATOM     25  C   UNL     1       6.883   3.653  11.836  0.00  0.00    +0.000 A 
ATOM     26  C   UNL     1       5.619   3.429  12.379  0.00  0.00    +0.000 A 
ATOM     27  C   UNL     1       5.203   4.148  13.499  0.00  0.00    +0.000 A 
ENDBRANCH  21  22
ENDBRANCH  20  21
ENDBRANCH   2  15
TORSDOF 3
ENDMDL
MODEL 3
REMARK VINA RESULT:      -7.9      1.002      1.467
REMARK  Name = 
REMARK  3 active torsions:
REMARK  status: ('A' for Active; 'I' for Inactive)
REMARK    1  A    between atoms: C_2  and  C_3
REMARK    2  A    between atoms: C_8  and  C_9
REMARK    3  A    between atoms: C_9  and  C_10
REMARK                            x       y       z     vdW  Elec       q    Type
REMARK                         _______ _______ _______ _____ _____    ______ ____
ROOT
ATOM      1  O   UNL     1       2.647   2.905  16.653  0.00  0.00    +0.000 OA
ATOM      2  C   UNL     1       3.417   3.309  17.519  0.00  0.00    +0.000 C 
ATOM      3  N   UNL     1       4.762   3.607  17.260  0.00  0.00    +0.000 N 
ATOM      4  C   UNL     1       5.250   3.574  15.883  0.00  0.00    +0.000 C 
ATOM      5  C   UNL     1       6.047   4.842  15.529  0.00  0.00    +0.000 C 
ATOM      6  C   UNL     1       6.718   5.511  16.708  0.00  0.00    +0.000 A 
ATOM      7  N   UNL     1       7.361   6.697  16.428  0.00  0.00    +0.000 NA
ATOM      8  C   UNL     1       7.837   7.357  17.426  0.00  0.00    +0.000 A 
ATOM      9  N   UNL     1       7.781   6.930  18.719  0.00  0.00    +0.000 N 
ATOM     10  C   UNL     1       7.237   5.726  19.054  0.00  0.00    +0.000 A 
ATOM     11  O   UNL     1       7.239   5.305  20.205  0.00  0.00    +0.000 OA
ATOM     12  C   UNL     1       6.617   4.983  17.942  0.00  0.00    +0.000 A 
ATOM     13  C   UNL     1       5.819   3.758  18.268  0.00  0.00    +0.000 C 
ATOM     14  H   UNL     1       8.191   7.473  19.465  0.00  0.00    +0.000 HD
ENDROOT
BRANCH   2  15
ATOM     15  C   UNL     1       2.888   3.460  18.908  0.00  0.00    +0.000 A 
ATOM     16  C   UNL     1       3.239   2.465  19.833  0.00  0.00    +0.000 A 
ATOM     17  C   UNL     1       2.888   2.591  21.180  0.00  0.00    +0.000 A 
ATOM     18  C   UNL     1       2.228   3.731  21.619  0.00  0.00    +0.000 A 
ATOM     19  C   UNL     1       1.820   4.689  20.694  0.00  0.00    +0.000 A 
ATOM     20  C   UNL     1       2.064   4.525  19.315  0.00  0.00    +0.000 A 
BRANCH  20  21
ATOM     21  C   UNL     1       1.343   5.442  18.342  0.00  0.00    +0.000 C 
BRANCH  21  22
ATOM     22  C   UNL     1       2.057   6.770  18.200  0.00  0.00    +0.000 A 
ATOM     23  C   UNL     1       1.348   7.975  18.321  0.00  0.00    +0.000 A 
ATOM     24  C   UNL     1       1.961   9.184  18.000  0.00  0.00    +0.000 A 
ATOM     25  C   UNL     1       3.291   9.202  17.584  0.00  0.00    +0.000 A 
ATOM     26  C   UNL     1       4.017   8.014  17.510  0.00  0.00    +0.000 A 
ATOM     27  C   UNL     1       3.403   6.801  17.815  0.00  0.00    +0.000 A 
ENDBRANCH  21  22
ENDBRANCH  20  21
ENDBRANCH   2  15
TORSDOF 3
ENDMDL
MODEL 4
REMARK VINA RESULT:      -7.6      4.476      8.029
REMARK  Name = 
REMARK  3 active torsions:
REMARK  status: ('A' for Active; 'I' for Inactive)
REMARK    1  A    between atoms: C_2  and  C_3
REMARK    2  A    between atoms: C_8  and  C_9
REMARK    3  A    between atoms: C_9  and  C_10
REMARK                            x       y       z     vdW  Elec       q    Type
REMARK                         _______ _______ _______ _____ _____    ______ ____
ROOT
ATOM      1  O   UNL     1       1.662   8.541  22.314  0.00  0.00    +0.000 OA
ATOM      2  C   UNL     1       1.148   8.863  21.248  0.00  0.00    +0.000 C 
ATOM      3  N   UNL     1       0.080   9.768  21.162  0.00  0.00    +0.000 N 
ATOM      4  C   UNL     1      -0.360  10.471  22.365  0.00  0.00    +0.000 C 
ATOM      5  C   UNL     1      -0.504  11.984  22.122  0.00  0.00    +0.000 C 
ATOM      6  C   UNL     1      -0.813  12.363  20.692  0.00  0.00    +0.000 A 
ATOM      7  N   UNL     1      -0.855  13.715  20.434  0.00  0.00    +0.000 NA
ATOM      8  C   UNL     1      -0.993  14.076  19.205  0.00  0.00    +0.000 A 
ATOM      9  N   UNL     1      -1.144  13.205  18.167  0.00  0.00    +0.000 N 
ATOM     10  C   UNL     1      -1.199  11.857  18.364  0.00  0.00    +0.000 A 
ATOM     11  O   UNL     1      -1.397  11.071  17.446  0.00  0.00    +0.000 OA
ATOM     12  C   UNL     1      -0.968  11.413  19.750  0.00  0.00    +0.000 A 
ATOM     13  C   UNL     1      -0.805   9.946  20.005  0.00  0.00    +0.000 C 
ATOM     14  H   UNL     1      -1.273  13.538  17.223  0.00  0.00    +0.000 HD
ENDROOT
BRANCH   2  15
ATOM     15  C   UNL     1       1.678   8.236  20.000  0.00  0.00    +0.000 A 
ATOM     16  C   UNL     1       1.804   9.065  18.875  0.00  0.00    +0.000 A 
ATOM     17  C   UNL     1       2.403   8.591  17.705  0.00  0.00    +0.000 A 
ATOM     18  C   UNL     1       2.922   7.303  17.667  0.00  0.00    +0.000 A 
ATOM     19  C   UNL     1       2.740   6.456  18.758  0.00  0.00    +0.000 A 
ATOM     20  C   UNL     1       2.038   6.879  19.904  0.00  0.00    +0.000 A 
BRANCH  20  21
ATOM     21  C   UNL     1       1.620   5.830  20.921  0.00  0.00    +0.000 C 
BRANCH  21  22
ATOM     22  C   UNL     1       1.803   4.429  20.378  0.00  0.00    +0.000 A 
ATOM     23  C   UNL     1       3.070   3.824  20.382  0.00  0.00    +0.000 A 
ATOM     24  C   UNL     1       3.274   2.622  19.710  0.00  0.00    +0.000 A 
ATOM     25  C   UNL     1       2.213   2.000  19.055  0.00  0.00    +0.000 A 
ATOM     26  C   UNL     1       0.940   2.568  19.090  0.00  0.00    +0.000 A 
ATOM     27  C   UNL     1       0.734   3.780  19.747  0.00  0.00    +0.000 A 
ENDBRANCH  21  22
ENDBRANCH  20  21
ENDBRANCH   2  15
TORSDOF 3
ENDMDL
MODEL 5
REMARK VINA RESULT:      -7.6      2.488      6.630
REMARK  Name = 
REMARK  3 active torsions:
REMARK  status: ('A' for Active; 'I' for Inactive)
REMARK    1  A    between atoms: C_2  and  C_3
REMARK    2  A    between atoms: C_8  and  C_9
REMARK    3  A    between atoms: C_9  and  C_10
REMARK                            x       y       z     vdW  Elec       q    Type
REMARK                         _______ _______ _______ _____ _____    ______ ____
ROOT
ATOM      1  O   UNL     1       4.381   7.467  16.704  0.00  0.00    +0.000 OA
ATOM      2  C   UNL     1       4.524   6.510  17.459  0.00  0.00    +0.000 C 
ATOM      3  N   UNL     1       3.468   5.963  18.202  0.00  0.00    +0.000 N 
ATOM      4  C   UNL     1       2.109   6.448  17.977  0.00  0.00    +0.000 C 
ATOM      5  C   UNL     1       1.113   5.290  17.785  0.00  0.00    +0.000 C 
ATOM      6  C   UNL     1       1.509   4.003  18.473  0.00  0.00    +0.000 A 
ATOM      7  N   UNL     1       0.680   2.928  18.239  0.00  0.00    +0.000 NA
ATOM      8  C   UNL     1       1.051   1.786  18.705  0.00  0.00    +0.000 A 
ATOM      9  N   UNL     1       2.180   1.595  19.445  0.00  0.00    +0.000 N 
ATOM     10  C   UNL     1       2.998   2.631  19.786  0.00  0.00    +0.000 A 
ATOM     11  O   UNL     1       3.979   2.480  20.503  0.00  0.00    +0.000 OA
ATOM     12  C   UNL     1       2.638   3.936  19.203  0.00  0.00    +0.000 A 
ATOM     13  C   UNL     1       3.603   5.071  19.360  0.00  0.00    +0.000 C 
ATOM     14  H   UNL     1       2.415   0.683  19.809  0.00  0.00    +0.000 HD
ENDROOT
BRANCH   2  15
ATOM     15  C   UNL     1       5.895   5.932  17.600  0.00  0.00    +0.000 A 
ATOM     16  C   UNL     1       6.810   6.652  18.385  0.00  0.00    +0.000 A 
ATOM     17  C   UNL     1       8.073   6.124  18.667  0.00  0.00    +0.000 A 
ATOM     18  C   UNL     1       8.411   4.857  18.209  0.00  0.00    +0.000 A 
ATOM     19  C   UNL     1       7.532   4.169  17.376  0.00  0.00    +0.000 A 
ATOM     20  C   UNL     1       6.301   4.733  16.986  0.00  0.00    +0.000 A 
BRANCH  20  21
ATOM     21  C   UNL     1       5.532   4.073  15.855  0.00  0.00    +0.000 C 
BRANCH  21  22
ATOM     22  C   UNL     1       6.278   4.179  14.542  0.00  0.00    +0.000 A 
ATOM     23  C   UNL     1       7.282   5.144  14.370  0.00  0.00    +0.000 A 
ATOM     24  C   UNL     1       7.830   5.369  13.109  0.00  0.00    +0.000 A 
ATOM     25  C   UNL     1       7.400   4.616  12.018  0.00  0.00    +0.000 A 
ATOM     26  C   UNL     1       6.440   3.620  12.190  0.00  0.00    +0.000 A 
ATOM     27  C   UNL     1       5.878   3.402  13.447  0.00  0.00    +0.000 A 
ENDBRANCH  21  22
ENDBRANCH  20  21
ENDBRANCH   2  15
TORSDOF 3
ENDMDL
MODEL 6
REMARK VINA RESULT:      -7.6      6.850     10.247
REMARK  Name = 
REMARK  3 active torsions:
REMARK  status: ('A' for Active; 'I' for Inactive)
REMARK    1  A    between atoms: C_2  and  C_3
REMARK    2  A    between atoms: C_8  and  C_9
REMARK    3  A    between atoms: C_9  and  C_10
REMARK                            x       y       z     vdW  Elec       q    Type
REMARK                         _______ _______ _______ _____ _____    ______ ____
ROOT
ATOM      1  O   UNL     1      -3.368  11.782  23.876  0.00  0.00    +0.000 OA
ATOM      2  C   UNL     1      -2.667  12.362  23.053  0.00  0.00    +0.000 C 
ATOM      3  N   UNL     1      -1.417  11.875  22.643  0.00  0.00    +0.000 N 
ATOM      4  C   UNL     1      -0.978  10.558  23.098  0.00  0.00    +0.000 C 
ATOM      5  C   UNL     1      -0.462   9.695  21.934  0.00  0.00    +0.000 C 
ATOM      6  C   UNL     1       0.101  10.481  20.771  0.00  0.00    +0.000 A 
ATOM      7  N   UNL     1       0.484   9.732  19.680  0.00  0.00    +0.000 NA
ATOM      8  C   UNL     1       0.851  10.374  18.625  0.00  0.00    +0.000 A 
ATOM      9  N   UNL     1       0.924  11.733  18.547  0.00  0.00    +0.000 N 
ATOM     10  C   UNL     1       0.642  12.530  19.616  0.00  0.00    +0.000 A 
ATOM     11  O   UNL     1       0.766  13.748  19.574  0.00  0.00    +0.000 OA
ATOM     12  C   UNL     1       0.147  11.826  20.813  0.00  0.00    +0.000 A 
ATOM     13  C   UNL     1      -0.380  12.648  21.949  0.00  0.00    +0.000 C 
ATOM     14  H   UNL     1       1.241  12.188  17.703  0.00  0.00    +0.000 HD
ENDROOT
BRANCH   2  15
ATOM     15  C   UNL     1      -3.170  13.653  22.493  0.00  0.00    +0.000 A 
ATOM     16  C   UNL     1      -2.766  14.828  23.145  0.00  0.00    +0.000 A 
ATOM     17  C   UNL     1      -3.091  16.081  22.617  0.00  0.00    +0.000 A 
ATOM     18  C   UNL     1      -3.778  16.167  21.413  0.00  0.00    +0.000 A 
ATOM     19  C   UNL     1      -4.238  15.005  20.799  0.00  0.00    +0.000 A 
ATOM     20  C   UNL     1      -4.019  13.737  21.375  0.00  0.00    +0.000 A 
BRANCH  20  21
ATOM     21  C   UNL     1      -4.791  12.551  20.821  0.00  0.00    +0.000 C 
BRANCH  21  22
ATOM     22  C   UNL     1      -4.372  12.232  19.402  0.00  0.00    +0.000 A 
ATOM     23  C   UNL     1      -5.332  12.113  18.386  0.00  0.00    +0.000 A 
ATOM     24  C   UNL     1      -4.969  11.630  17.131  0.00  0.00    +0.000 A 
ATOM     25  C   UNL     1      -3.642  11.290  16.873  0.00  0.00    +0.000 A 
ATOM     26  C   UNL     1      -2.672  11.453  17.861  0.00  0.00    +0.000 A 
ATOM     27  C   UNL     1      -3.034  11.920  19.123  0.00  0.00    +0.000 A 
ENDBRANCH  21  22
ENDBRANCH  20  21
ENDBRANCH   2  15
TORSDOF 3
ENDMDL
MODEL 7
REMARK VINA RESULT:      -7.6      2.740      4.942
REMARK  Name = 
REMARK  3 active torsions:
REMARK  status: ('A' for Active; 'I' for Inactive)
REMARK    1  A    between atoms: C_2  and  C_3
REMARK    2  A    between atoms: C_8  and  C_9
REMARK    3  A    between atoms: C_9  and  C_10
REMARK                            x       y       z     vdW  Elec       q    Type
REMARK                         _______ _______ _______ _____ _____    ______ ____
ROOT
ATOM      1  O   UNL     1       3.306   8.644  17.751  0.00  0.00    +0.000 OA
ATOM      2  C   UNL     1       2.695   7.794  18.391  0.00  0.00    +0.000 C 
ATOM      3  N   UNL     1       2.843   6.419  18.161  0.00  0.00    +0.000 N 
ATOM      4  C   UNL     1       3.862   5.955  17.223  0.00  0.00    +0.000 C 
ATOM      5  C   UNL     1       4.719   4.826  17.822  0.00  0.00    +0.000 C 
ATOM      6  C   UNL     1       4.017   3.996  18.873  0.00  0.00    +0.000 A 
ATOM      7  N   UNL     1       4.794   3.038  19.487  0.00  0.00    +0.000 NA
ATOM      8  C   UNL     1       4.268   2.397  20.472  0.00  0.00    +0.000 A 
ATOM      9  N   UNL     1       2.988   2.578  20.902  0.00  0.00    +0.000 N 
ATOM     10  C   UNL     1       2.139   3.447  20.284  0.00  0.00    +0.000 A 
ATOM     11  O   UNL     1       0.968   3.570  20.623  0.00  0.00    +0.000 OA
ATOM     12  C   UNL     1       2.737   4.249  19.202  0.00  0.00    +0.000 A 
ATOM     13  C   UNL     1       1.927   5.367  18.620  0.00  0.00    +0.000 C 
ATOM     14  H   UNL     1       2.613   2.032  21.665  0.00  0.00    +0.000 HD
ENDROOT
BRANCH   2  15
ATOM     15  C   UNL     1       1.738   8.263  19.439  0.00  0.00    +0.000 A 
ATOM     16  C   UNL     1       1.780   7.605  20.678  0.00  0.00    +0.000 A 
ATOM     17  C   UNL     1       1.006   8.059  21.750  0.00  0.00    +0.000 A 
ATOM     18  C   UNL     1       0.223   9.197  21.604  0.00  0.00    +0.000 A 
ATOM     19  C   UNL     1       0.128   9.812  20.358  0.00  0.00    +0.000 A 
ATOM     20  C   UNL     1       0.812   9.303  19.236  0.00  0.00    +0.000 A 
BRANCH  20  21
ATOM     21  C   UNL     1       0.438   9.832  17.863  0.00  0.00    +0.000 C 
BRANCH  21  22
ATOM     22  C   UNL     1      -0.965  10.400  17.852  0.00  0.00    +0.000 A 
ATOM     23  C   UNL     1      -1.251  11.602  18.517  0.00  0.00    +0.000 A 
ATOM     24  C   UNL     1      -2.571  12.021  18.671  0.00  0.00    +0.000 A 
ATOM     25  C   UNL     1      -3.610  11.260  18.139  0.00  0.00    +0.000 A 
ATOM     26  C   UNL     1      -3.331  10.090  17.433  0.00  0.00    +0.000 A 
ATOM     27  C   UNL     1      -2.014   9.659  17.290  0.00  0.00    +0.000 A 
ENDBRANCH  21  22
ENDBRANCH  20  21
ENDBRANCH   2  15
TORSDOF 3
ENDMDL
MODEL 8
REMARK VINA RESULT:      -7.5      1.120      1.559
REMARK  Name = 
REMARK  3 active torsions:
REMARK  status: ('A' for Active; 'I' for Inactive)
REMARK    1  A    between atoms: C_2  and  C_3
REMARK    2  A    between atoms: C_8  and  C_9
REMARK    3  A    between atoms: C_9  and  C_10
REMARK                            x       y       z     vdW  Elec       q    Type
REMARK                         _______ _______ _______ _____ _____    ______ ____
ROOT
ATOM      1  O   UNL     1       2.898   3.290  16.563  0.00  0.00    +0.000 OA
ATOM      2  C   UNL     1       3.751   3.534  17.411  0.00  0.00    +0.000 C 
ATOM      3  N   UNL     1       5.028   4.013  17.087  0.00  0.00    +0.000 N 
ATOM      4  C   UNL     1       5.327   4.375  15.703  0.00  0.00    +0.000 C 
ATOM      5  C   UNL     1       5.989   5.760  15.605  0.00  0.00    +0.000 C 
ATOM      6  C   UNL     1       6.771   6.170  16.833  0.00  0.00    +0.000 A 
ATOM      7  N   UNL     1       7.295   7.444  16.803  0.00  0.00    +0.000 NA
ATOM      8  C   UNL     1       7.860   7.873  17.879  0.00  0.00    +0.000 A 
ATOM      9  N   UNL     1       8.006   7.129  19.012  0.00  0.00    +0.000 N 
ATOM     10  C   UNL     1       7.587   5.834  19.079  0.00  0.00    +0.000 A 
ATOM     11  O   UNL     1       7.770   5.139  20.071  0.00  0.00    +0.000 OA
ATOM     12  C   UNL     1       6.870   5.341  17.889  0.00  0.00    +0.000 A 
ATOM     13  C   UNL     1       6.200   4.004  17.971  0.00  0.00    +0.000 C 
ATOM     14  H   UNL     1       8.478   7.504  19.822  0.00  0.00    +0.000 HD
ENDROOT
BRANCH   2  15
ATOM     15  C   UNL     1       3.406   3.278  18.842  0.00  0.00    +0.000 A 
ATOM     16  C   UNL     1       4.092   2.236  19.485  0.00  0.00    +0.000 A 
ATOM     17  C   UNL     1       3.918   2.008  20.853  0.00  0.00    +0.000 A 
ATOM     18  C   UNL     1       3.097   2.848  21.595  0.00  0.00    +0.000 A 
ATOM     19  C   UNL     1       2.364   3.841  20.948  0.00  0.00    +0.000 A 
ATOM     20  C   UNL     1       2.438   4.013  19.551  0.00  0.00    +0.000 A 
BRANCH  20  21
ATOM     21  C   UNL     1       1.406   4.901  18.879  0.00  0.00    +0.000 C 
BRANCH  21  22
ATOM     22  C   UNL     1       1.814   6.358  18.926  0.00  0.00    +0.000 A 
ATOM     23  C   UNL     1       1.505   7.149  20.043  0.00  0.00    +0.000 A 
ATOM     24  C   UNL     1       1.706   8.526  20.005  0.00  0.00    +0.000 A 
ATOM     25  C   UNL     1       2.242   9.120  18.864  0.00  0.00    +0.000 A 
ATOM     26  C   UNL     1       2.599   8.336  17.768  0.00  0.00    +0.000 A 
ATOM     27  C   UNL     1       2.385   6.959  17.796  0.00  0.00    +0.000 A 
ENDBRANCH  21  22
ENDBRANCH  20  21
ENDBRANCH   2  15
TORSDOF 3
ENDMDL
MODEL 9
REMARK VINA RESULT:      -7.5      1.716      2.748
REMARK  Name = 
REMARK  3 active torsions:
REMARK  status: ('A' for Active; 'I' for Inactive)
REMARK    1  A    between atoms: C_2  and  C_3
REMARK    2  A    between atoms: C_8  and  C_9
REMARK    3  A    between atoms: C_9  and  C_10
REMARK                            x       y       z     vdW  Elec       q    Type
REMARK                         _______ _______ _______ _____ _____    ______ ____
ROOT
ATOM      1  O   UNL     1       5.157   2.895  20.578  0.00  0.00    +0.000 OA
ATOM      2  C   UNL     1       4.747   3.589  19.653  0.00  0.00    +0.000 C 
ATOM      3  N   UNL     1       5.573   4.474  18.945  0.00  0.00    +0.000 N 
ATOM      4  C   UNL     1       7.009   4.481  19.210  0.00  0.00    +0.000 C 
ATOM      5  C   UNL     1       7.831   4.416  17.911  0.00  0.00    +0.000 C 
ATOM      6  C   UNL     1       7.136   4.995  16.699  0.00  0.00    +0.000 A 
ATOM      7  N   UNL     1       7.815   4.864  15.508  0.00  0.00    +0.000 NA
ATOM      8  C   UNL     1       7.201   5.232  14.438  0.00  0.00    +0.000 A 
ATOM      9  N   UNL     1       5.953   5.779  14.424  0.00  0.00    +0.000 N 
ATOM     10  C   UNL     1       5.261   6.015  15.575  0.00  0.00    +0.000 A 
ATOM     11  O   UNL     1       4.166   6.564  15.577  0.00  0.00    +0.000 OA
ATOM     12  C   UNL     1       5.907   5.535  16.809  0.00  0.00    +0.000 A 
ATOM     13  C   UNL     1       5.117   5.569  18.081  0.00  0.00    +0.000 C 
ATOM     14  H   UNL     1       5.524   6.075  13.559  0.00  0.00    +0.000 HD
ENDROOT
BRANCH   2  15
ATOM     15  C   UNL     1       3.299   3.495  19.298  0.00  0.00    +0.000 A 
ATOM     16  C   UNL     1       2.947   2.568  18.305  0.00  0.00    +0.000 A 
ATOM     17  C   UNL     1       1.605   2.329  17.998  0.00  0.00    +0.000 A 
ATOM     18  C   UNL     1       0.606   2.979  18.713  0.00  0.00    +0.000 A 
ATOM     19  C   UNL     1       0.952   3.948  19.652  0.00  0.00    +0.000 A 
ATOM     20  C   UNL     1       2.299   4.285  19.895  0.00  0.00    +0.000 A 
BRANCH  20  21
ATOM     21  C   UNL     1       2.594   5.538  20.700  0.00  0.00    +0.000 C 
BRANCH  21  22
ATOM     22  C   UNL     1       2.095   6.780  19.993  0.00  0.00    +0.000 A 
ATOM     23  C   UNL     1       2.393   6.997  18.639  0.00  0.00    +0.000 A 
ATOM     24  C   UNL     1       2.103   8.223  18.045  0.00  0.00    +0.000 A 
ATOM     25  C   UNL     1       1.488   9.229  18.788  0.00  0.00    +0.000 A 
ATOM     26  C   UNL     1       1.143   9.005  20.119  0.00  0.00    +0.000 A 
ATOM     27  C   UNL     1       1.446   7.785  20.722  0.00  0.00    +0.000 A 
ENDBRANCH  21  22
ENDBRANCH  20  21
ENDBRANCH   2  15
TORSDOF 3
ENDMDL
