MODEL 1
REMARK VINA RESULT:      -8.2      0.000      0.000
REMARK  Name = 
REMARK  4 active torsions:
REMARK  status: ('A' for Active; 'I' for Inactive)
REMARK    1  A    between atoms: C_1  and  C_2
REMARK    2  A    between atoms: N_12  and  C_13
REMARK    3  A    between atoms: C_16  and  C_17
REMARK    4  A    between atoms: C_23  and  C_24
REMARK                            x       y       z     vdW  Elec       q    Type
REMARK                         _______ _______ _______ _____ _____    ______ ____
ROOT
ATOM      1  C   UNL     1       0.812   9.847  19.398  0.00  0.00    +0.000 A 
ATOM      2  C   UNL     1       1.404   9.891  18.136  0.00  0.00    +0.000 A 
ATOM      3  C   UNL     1       2.297   8.899  17.752  0.00  0.00    +0.000 A 
ATOM      4  C   UNL     1       2.493   7.765  18.555  0.00  0.00    +0.000 A 
ATOM      5  C   UNL     1       1.947   7.751  19.848  0.00  0.00    +0.000 A 
ATOM      6  C   UNL     1       1.122   8.801  20.276  0.00  0.00    +0.000 A 
ENDROOT
BRANCH   1  18
ATOM      7  C   UNL     1      -1.744   9.988  18.118  0.00  0.00    +0.000 C 
ATOM      8  C   UNL     1      -1.339  10.988  19.180  0.00  0.00    +0.000 A 
ATOM      9  N   UNL     1      -2.211  11.889  19.510  0.00  0.00    +0.000 NA
ATOM     10  C   UNL     1      -1.878  12.809  20.508  0.00  0.00    +0.000 A 
ATOM     11  C   UNL     1      -2.794  13.814  20.826  0.00  0.00    +0.000 A 
ATOM     12  C   UNL     1      -2.489  14.776  21.793  0.00  0.00    +0.000 A 
ATOM     13  C   UNL     1      -1.266  14.734  22.460  0.00  0.00    +0.000 A 
ATOM     14  C   UNL     1      -0.354  13.720  22.170  0.00  0.00    +0.000 A 
ATOM     15  C   UNL     1      -0.669  12.764  21.197  0.00  0.00    +0.000 A 
ATOM     16  C   UNL     1       0.274  11.685  20.853  0.00  0.00    +0.000 A 
ATOM     17  O   UNL     1       1.303  11.567  21.517  0.00  0.00    +0.000 OA
ATOM     18  N   UNL     1      -0.091  10.875  19.772  0.00  0.00    +0.000 N 
ENDBRANCH   1  18
BRANCH   4  19
ATOM     19  C   UNL     1       3.323   6.616  18.096  0.00  0.00    +0.000 C 
ATOM     20  O   UNL     1       4.410   6.869  17.578  0.00  0.00    +0.000 OA
ATOM     21  N   UNL     1       2.841   5.319  18.228  0.00  0.00    +0.000 N 
ATOM     22  C   UNL     1       1.724   4.808  19.027  0.00  0.00    +0.000 C 
ATOM     23  C   UNL     1       1.434   3.414  18.469  0.00  0.00    +0.000 C 
ATOM     24  C   UNL     1       2.358   3.277  17.260  0.00  0.00    +0.000 C 
ATOM     25  C   UNL     1       3.524   4.206  17.581  0.00  0.00    +0.000 C 
ATOM     26  C   UNL     1       4.548   3.535  18.500  0.00  0.00    +0.000 C 
ENDBRANCH   4  19
TORSDOF 2
ENDMDL
MODEL 2
REMARK VINA RESULT:      -8.1      0.504      1.069
REMARK  Name = 
REMARK  4 active torsions:
REMARK  status: ('A' for Active; 'I' for Inactive)
REMARK    1  A    between atoms: C_1  and  C_2
REMARK    2  A    between atoms: N_12  and  C_13
REMARK    3  A    between atoms: C_16  and  C_17
REMARK    4  A    between atoms: C_23  and  C_24
REMARK                            x       y       z     vdW  Elec       q    Type
REMARK                         _______ _______ _______ _____ _____    ______ ____
ROOT
ATOM      1  C   UNL     1       0.845   9.821  19.343  0.00  0.00    +0.000 A 
ATOM      2  C   UNL     1       1.108   8.851  20.310  0.00  0.00    +0.000 A 
ATOM      3  C   UNL     1       1.830   7.713  19.974  0.00  0.00    +0.000 A 
ATOM      4  C   UNL     1       2.435   7.598  18.713  0.00  0.00    +0.000 A 
ATOM      5  C   UNL     1       2.117   8.541  17.724  0.00  0.00    +0.000 A 
ATOM      6  C   UNL     1       1.307   9.642  18.034  0.00  0.00    +0.000 A 
ENDROOT
BRANCH   1  18
ATOM      7  C   UNL     1      -1.830  10.110  18.367  0.00  0.00    +0.000 C 
ATOM      8  C   UNL     1      -1.199  11.159  19.258  0.00  0.00    +0.000 A 
ATOM      9  N   UNL     1      -1.933  12.175  19.589  0.00  0.00    +0.000 NA
ATOM     10  C   UNL     1      -1.390  13.146  20.435  0.00  0.00    +0.000 A 
ATOM     11  C   UNL     1      -2.159  14.270  20.748  0.00  0.00    +0.000 A 
ATOM     12  C   UNL     1      -1.644  15.282  21.561  0.00  0.00    +0.000 A 
ATOM     13  C   UNL     1      -0.354  15.174  22.080  0.00  0.00    +0.000 A 
ATOM     14  C   UNL     1       0.414  14.046  21.796  0.00  0.00    +0.000 A 
ATOM     15  C   UNL     1      -0.112  13.039  20.976  0.00  0.00    +0.000 A 
ATOM     16  C   UNL     1       0.673  11.838  20.643  0.00  0.00    +0.000 A 
ATOM     17  O   UNL     1       1.764  11.675  21.190  0.00  0.00    +0.000 OA
ATOM     18  N   UNL     1       0.098  10.971  19.707  0.00  0.00    +0.000 N 
ENDBRANCH   1  18
BRANCH   4  19
ATOM     19  C   UNL     1       3.341   6.463  18.382  0.00  0.00    +0.000 C 
ATOM     20  O   UNL     1       4.501   6.732  18.071  0.00  0.00    +0.000 OA
ATOM     21  N   UNL     1       2.853   5.162  18.395  0.00  0.00    +0.000 N 
ATOM     22  C   UNL     1       1.616   4.628  18.969  0.00  0.00    +0.000 C 
ATOM     23  C   UNL     1       1.440   3.247  18.336  0.00  0.00    +0.000 C 
ATOM     24  C   UNL     1       2.564   3.142  17.308  0.00  0.00    +0.000 C 
ATOM     25  C   UNL     1       3.649   4.066  17.853  0.00  0.00    +0.000 C 
ATOM     26  C   UNL     1       4.497   3.376  18.924  0.00  0.00    +0.000 C 
ENDBRANCH   4  19
TORSDOF 2
ENDMDL
MODEL 3
REMARK VINA RESULT:      -8.0      1.026      1.075
REMARK  Name = 
REMARK  4 active torsions:
REMARK  status: ('A' for Active; 'I' for Inactive)
REMARK    1  A    between atoms: C_1  and  C_2
REMARK    2  A    between atoms: N_12  and  C_13
REMARK    3  A    between atoms: C_16  and  C_17
REMARK    4  A    between atoms: C_23  and  C_24
REMARK                            x       y       z     vdW  Elec       q    Type
REMARK                         _______ _______ _______ _____ _____    ______ ____
ROOT
ATOM      1  C   UNL     1       0.907   9.089  19.853  0.00  0.00    +0.000 A 
ATOM      2  C   UNL     1       1.667   8.999  18.688  0.00  0.00    +0.000 A 
ATOM      3  C   UNL     1       2.527   7.925  18.500  0.00  0.00    +0.000 A 
ATOM      4  C   UNL     1       2.525   6.844  19.395  0.00  0.00    +0.000 A 
ATOM      5  C   UNL     1       1.810   6.964  20.596  0.00  0.00    +0.000 A 
ATOM      6  C   UNL     1       1.015   8.095  20.833  0.00  0.00    +0.000 A 
ENDROOT
BRANCH   1  18
ATOM      7  C   UNL     1      -0.988   9.712  17.802  0.00  0.00    +0.000 C 
ATOM      8  C   UNL     1      -0.891  10.544  19.063  0.00  0.00    +0.000 A 
ATOM      9  N   UNL     1      -1.725  11.529  19.190  0.00  0.00    +0.000 NA
ATOM     10  C   UNL     1      -1.680  12.298  20.356  0.00  0.00    +0.000 A 
ATOM     11  C   UNL     1      -2.540  13.393  20.470  0.00  0.00    +0.000 A 
ATOM     12  C   UNL     1      -2.506  14.211  21.603  0.00  0.00    +0.000 A 
ATOM     13  C   UNL     1      -1.615  13.933  22.639  0.00  0.00    +0.000 A 
ATOM     14  C   UNL     1      -0.770  12.828  22.548  0.00  0.00    +0.000 A 
ATOM     15  C   UNL     1      -0.811  12.018  21.406  0.00  0.00    +0.000 A 
ATOM     16  C   UNL     1       0.075  10.849  21.267  0.00  0.00    +0.000 A 
ATOM     17  O   UNL     1       0.779  10.525  22.223  0.00  0.00    +0.000 OA
ATOM     18  N   UNL     1       0.042  10.200  20.028  0.00  0.00    +0.000 N 
ENDBRANCH   1  18
BRANCH   4  19
ATOM     19  C   UNL     1       3.321   5.612  19.135  0.00  0.00    +0.000 C 
ATOM     20  O   UNL     1       4.538   5.737  19.003  0.00  0.00    +0.000 OA
ATOM     21  N   UNL     1       2.678   4.387  19.011  0.00  0.00    +0.000 N 
ATOM     22  C   UNL     1       1.313   4.001  19.379  0.00  0.00    +0.000 C 
ATOM     23  C   UNL     1       1.059   2.678  18.656  0.00  0.00    +0.000 C 
ATOM     24  C   UNL     1       2.299   2.461  17.791  0.00  0.00    +0.000 C 
ATOM     25  C   UNL     1       3.400   3.216  18.529  0.00  0.00    +0.000 C 
ATOM     26  C   UNL     1       3.991   2.384  19.669  0.00  0.00    +0.000 C 
ENDBRANCH   4  19
TORSDOF 2
ENDMDL
MODEL 4
REMARK VINA RESULT:      -7.9      2.084      3.195
REMARK  Name = 
REMARK  4 active torsions:
REMARK  status: ('A' for Active; 'I' for Inactive)
REMARK    1  A    between atoms: C_1  and  C_2
REMARK    2  A    between atoms: N_12  and  C_13
REMARK    3  A    between atoms: C_16  and  C_17
REMARK    4  A    between atoms: C_23  and  C_24
REMARK                            x       y       z     vdW  Elec       q    Type
REMARK                         _______ _______ _______ _____ _____    ______ ____
ROOT
ATOM      1  C   UNL     1       1.463   8.537  19.648  0.00  0.00    +0.000 A 
ATOM      2  C   UNL     1       2.051   8.813  18.414  0.00  0.00    +0.000 A 
ATOM      3  C   UNL     1       2.871   7.871  17.808  0.00  0.00    +0.000 A 
ATOM      4  C   UNL     1       2.991   6.579  18.345  0.00  0.00    +0.000 A 
ATOM      5  C   UNL     1       2.453   6.323  19.614  0.00  0.00    +0.000 A 
ATOM      6  C   UNL     1       1.705   7.308  20.275  0.00  0.00    +0.000 A 
ENDROOT
BRANCH   1  18
ATOM      7  C   UNL     1       1.888   9.213  22.397  0.00  0.00    +0.000 C 
ATOM      8  C   UNL     1       0.800   9.879  21.581  0.00  0.00    +0.000 A 
ATOM      9  N   UNL     1       0.093  10.793  22.169  0.00  0.00    +0.000 NA
ATOM     10  C   UNL     1      -0.900  11.447  21.434  0.00  0.00    +0.000 A 
ATOM     11  C   UNL     1      -1.700  12.392  22.081  0.00  0.00    +0.000 A 
ATOM     12  C   UNL     1      -2.727  13.046  21.395  0.00  0.00    +0.000 A 
ATOM     13  C   UNL     1      -2.956  12.767  20.048  0.00  0.00    +0.000 A 
ATOM     14  C   UNL     1      -2.148  11.845  19.385  0.00  0.00    +0.000 A 
ATOM     15  C   UNL     1      -1.124  11.193  20.084  0.00  0.00    +0.000 A 
ATOM     16  C   UNL     1      -0.258  10.203  19.422  0.00  0.00    +0.000 A 
ATOM     17  O   UNL     1      -0.372  10.037  18.207  0.00  0.00    +0.000 OA
ATOM     18  N   UNL     1       0.636   9.519  20.253  0.00  0.00    +0.000 N 
ENDBRANCH   1  18
BRANCH   4  19
ATOM     19  C   UNL     1       3.737   5.504  17.633  0.00  0.00    +0.000 C 
ATOM     20  O   UNL     1       3.124   4.473  17.355  0.00  0.00    +0.000 OA
ATOM     21  N   UNL     1       5.085   5.674  17.341  0.00  0.00    +0.000 N 
ATOM     22  C   UNL     1       5.904   6.889  17.355  0.00  0.00    +0.000 C 
ATOM     23  C   UNL     1       7.352   6.399  17.341  0.00  0.00    +0.000 C 
ATOM     24  C   UNL     1       7.252   4.880  17.454  0.00  0.00    +0.000 C 
ATOM     25  C   UNL     1       5.886   4.554  16.860  0.00  0.00    +0.000 C 
ATOM     26  C   UNL     1       5.934   4.485  15.332  0.00  0.00    +0.000 C 
ENDBRANCH   4  19
TORSDOF 2
ENDMDL
MODEL 5
REMARK VINA RESULT:      -7.9      1.985      2.981
REMARK  Name = 
REMARK  4 active torsions:
REMARK  status: ('A' for Active; 'I' for Inactive)
REMARK    1  A    between atoms: C_1  and  C_2
REMARK    2  A    between atoms: N_12  and  C_13
REMARK    3  A    between atoms: C_16  and  C_17
REMARK    4  A    between atoms: C_23  and  C_24
REMARK                            x       y       z     vdW  Elec       q    Type
REMARK                         _______ _______ _______ _____ _____    ______ ____
ROOT
ATOM      1  C   UNL     1       1.500   8.919  19.472  0.00  0.00    +0.000 A 
ATOM      2  C   UNL     1       1.926   7.861  20.275  0.00  0.00    +0.000 A 
ATOM      3  C   UNL     1       2.459   6.719  19.694  0.00  0.00    +0.000 A 
ATOM      4  C   UNL     1       2.724   6.676  18.316  0.00  0.00    +0.000 A 
ATOM      5  C   UNL     1       2.239   7.712  17.503  0.00  0.00    +0.000 A 
ATOM      6  C   UNL     1       1.610   8.824  18.079  0.00  0.00    +0.000 A 
ENDROOT
BRANCH   1  18
ATOM      7  C   UNL     1       2.133  11.499  18.407  0.00  0.00    +0.000 C 
ATOM      8  C   UNL     1       1.228  11.344  19.611  0.00  0.00    +0.000 A 
ATOM      9  N   UNL     1       0.724  12.427  20.117  0.00  0.00    +0.000 NA
ATOM     10  C   UNL     1      -0.139  12.315  21.211  0.00  0.00    +0.000 A 
ATOM     11  C   UNL     1      -0.639  13.483  21.793  0.00  0.00    +0.000 A 
ATOM     12  C   UNL     1      -1.477  13.420  22.910  0.00  0.00    +0.000 A 
ATOM     13  C   UNL     1      -1.832  12.184  23.449  0.00  0.00    +0.000 A 
ATOM     14  C   UNL     1      -1.360  11.011  22.862  0.00  0.00    +0.000 A 
ATOM     15  C   UNL     1      -0.518  11.087  21.746  0.00  0.00    +0.000 A 
ATOM     16  C   UNL     1       0.011   9.870  21.105  0.00  0.00    +0.000 A 
ATOM     17  O   UNL     1      -0.390   8.775  21.497  0.00  0.00    +0.000 OA
ATOM     18  N   UNL     1       0.950  10.073  20.087  0.00  0.00    +0.000 N 
ENDBRANCH   1  18
BRANCH   4  19
ATOM     19  C   UNL     1       3.438   5.526  17.693  0.00  0.00    +0.000 C 
ATOM     20  O   UNL     1       2.808   4.481  17.536  0.00  0.00    +0.000 OA
ATOM     21  N   UNL     1       4.778   5.650  17.348  0.00  0.00    +0.000 N 
ATOM     22  C   UNL     1       5.609   6.850  17.219  0.00  0.00    +0.000 C 
ATOM     23  C   UNL     1       7.051   6.344  17.212  0.00  0.00    +0.000 C 
ATOM     24  C   UNL     1       6.940   4.844  17.478  0.00  0.00    +0.000 C 
ATOM     25  C   UNL     1       5.554   4.479  16.957  0.00  0.00    +0.000 C 
ATOM     26  C   UNL     1       5.556   4.259  15.443  0.00  0.00    +0.000 C 
ENDBRANCH   4  19
TORSDOF 2
ENDMDL
MODEL 6
REMARK VINA RESULT:      -7.9      1.701      2.379
REMARK  Name = 
REMARK  4 active torsions:
REMARK  status: ('A' for Active; 'I' for Inactive)
REMARK    1  A    between atoms: C_1  and  C_2
REMARK    2  A    between atoms: N_12  and  C_13
REMARK    3  A    between atoms: C_16  and  C_17
REMARK    4  A    between atoms: C_23  and  C_24
REMARK                            x       y       z     vdW  Elec       q    Type
REMARK                         _______ _______ _______ _____ _____    ______ ____
ROOT
ATOM      1  C   UNL     1       1.198   9.091  19.233  0.00  0.00    +0.000 A 
ATOM      2  C   UNL     1       1.835   9.140  17.994  0.00  0.00    +0.000 A 
ATOM      3  C   UNL     1       2.737   8.146  17.636  0.00  0.00    +0.000 A 
ATOM      4  C   UNL     1       2.899   7.007  18.440  0.00  0.00    +0.000 A 
ATOM      5  C   UNL     1       2.307   6.988  19.711  0.00  0.00    +0.000 A 
ATOM      6  C   UNL     1       1.472   8.039  20.116  0.00  0.00    +0.000 A 
ENDROOT
BRANCH   1  18
ATOM      7  C   UNL     1      -1.031   9.614  17.517  0.00  0.00    +0.000 C 
ATOM      8  C   UNL     1      -0.806  10.415  18.782  0.00  0.00    +0.000 A 
ATOM      9  N   UNL     1      -1.685  11.324  19.073  0.00  0.00    +0.000 NA
ATOM     10  C   UNL     1      -1.521  12.061  20.249  0.00  0.00    +0.000 A 
ATOM     11  C   UNL     1      -2.435  13.078  20.536  0.00  0.00    +0.000 A 
ATOM     12  C   UNL     1      -2.291  13.862  21.683  0.00  0.00    +0.000 A 
ATOM     13  C   UNL     1      -1.233  13.629  22.561  0.00  0.00    +0.000 A 
ATOM     14  C   UNL     1      -0.330  12.601  22.299  0.00  0.00    +0.000 A 
ATOM     15  C   UNL     1      -0.482  11.823  21.145  0.00  0.00    +0.000 A 
ATOM     16  C   UNL     1       0.459  10.736  20.827  0.00  0.00    +0.000 A 
ATOM     17  O   UNL     1       1.324  10.443  21.652  0.00  0.00    +0.000 OA
ATOM     18  N   UNL     1       0.287  10.122  19.581  0.00  0.00    +0.000 N 
ENDBRANCH   1  18
BRANCH   4  19
ATOM     19  C   UNL     1       3.740   5.856  18.004  0.00  0.00    +0.000 C 
ATOM     20  O   UNL     1       3.211   4.746  17.967  0.00  0.00    +0.000 OA
ATOM     21  N   UNL     1       5.079   6.058  17.694  0.00  0.00    +0.000 N 
ATOM     22  C   UNL     1       5.807   7.303  17.434  0.00  0.00    +0.000 C 
ATOM     23  C   UNL     1       7.287   6.936  17.547  0.00  0.00    +0.000 C 
ATOM     24  C   UNL     1       7.295   5.480  18.009  0.00  0.00    +0.000 C 
ATOM     25  C   UNL     1       5.972   4.923  17.493  0.00  0.00    +0.000 C 
ATOM     26  C   UNL     1       6.066   4.507  16.024  0.00  0.00    +0.000 C 
ENDBRANCH   4  19
TORSDOF 2
ENDMDL
MODEL 7
REMARK VINA RESULT:      -7.7      1.354      2.178
REMARK  Name = 
REMARK  4 active torsions:
REMARK  status: ('A' for Active; 'I' for Inactive)
REMARK    1  A    between atoms: C_1  and  C_2
REMARK    2  A    between atoms: N_12  and  C_13
REMARK    3  A    between atoms: C_16  and  C_17
REMARK    4  A    between atoms: C_23  and  C_24
REMARK                            x       y       z     vdW  Elec       q    Type
REMARK                         _______ _______ _______ _____ _____    ______ ____
ROOT
ATOM      1  C   UNL     1       0.685   9.975  19.319  0.00  0.00    +0.000 A 
ATOM      2  C   UNL     1       1.243  10.001  18.041  0.00  0.00    +0.000 A 
ATOM      3  C   UNL     1       2.162   9.031  17.664  0.00  0.00    +0.000 A 
ATOM      4  C   UNL     1       2.420   7.930  18.495  0.00  0.00    +0.000 A 
ATOM      5  C   UNL     1       1.908   7.937  19.801  0.00  0.00    +0.000 A 
ATOM      6  C   UNL     1       1.056   8.969  20.220  0.00  0.00    +0.000 A 
ENDROOT
BRANCH   1  18
ATOM      7  C   UNL     1       1.605  12.248  20.793  0.00  0.00    +0.000 C 
ATOM      8  C   UNL     1       0.151  12.099  20.402  0.00  0.00    +0.000 A 
ATOM      9  N   UNL     1      -0.654  13.062  20.732  0.00  0.00    +0.000 NA
ATOM     10  C   UNL     1      -1.998  12.969  20.359  0.00  0.00    +0.000 A 
ATOM     11  C   UNL     1      -2.877  13.977  20.762  0.00  0.00    +0.000 A 
ATOM     12  C   UNL     1      -4.235  13.907  20.442  0.00  0.00    +0.000 A 
ATOM     13  C   UNL     1      -4.726  12.830  19.704  0.00  0.00    +0.000 A 
ATOM     14  C   UNL     1      -3.854  11.830  19.275  0.00  0.00    +0.000 A 
ATOM     15  C   UNL     1      -2.495  11.909  19.605  0.00  0.00    +0.000 A 
ATOM     16  C   UNL     1      -1.545  10.867  19.181  0.00  0.00    +0.000 A 
ATOM     17  O   UNL     1      -1.942   9.976  18.430  0.00  0.00    +0.000 OA
ATOM     18  N   UNL     1      -0.245  10.981  19.686  0.00  0.00    +0.000 N 
ENDBRANCH   1  18
BRANCH   4  19
ATOM     19  C   UNL     1       3.280   6.798  18.049  0.00  0.00    +0.000 C 
ATOM     20  O   UNL     1       4.351   7.074  17.510  0.00  0.00    +0.000 OA
ATOM     21  N   UNL     1       2.841   5.490  18.214  0.00  0.00    +0.000 N 
ATOM     22  C   UNL     1       1.751   4.961  19.038  0.00  0.00    +0.000 C 
ATOM     23  C   UNL     1       1.498   3.548  18.513  0.00  0.00    +0.000 C 
ATOM     24  C   UNL     1       2.410   3.414  17.295  0.00  0.00    +0.000 C 
ATOM     25  C   UNL     1       3.551   4.385  17.580  0.00  0.00    +0.000 C 
ATOM     26  C   UNL     1       4.606   3.766  18.499  0.00  0.00    +0.000 C 
ENDBRANCH   4  19
TORSDOF 2
ENDMDL
MODEL 8
REMARK VINA RESULT:      -7.7      1.349      2.018
REMARK  Name = 
REMARK  4 active torsions:
REMARK  status: ('A' for Active; 'I' for Inactive)
REMARK    1  A    between atoms: C_1  and  C_2
REMARK    2  A    between atoms: N_12  and  C_13
REMARK    3  A    between atoms: C_16  and  C_17
REMARK    4  A    between atoms: C_23  and  C_24
REMARK                            x       y       z     vdW  Elec       q    Type
REMARK                         _______ _______ _______ _____ _____    ______ ____
ROOT
ATOM      1  C   UNL     1       0.975   9.708  19.381  0.00  0.00    +0.000 A 
ATOM      2  C   UNL     1       1.524   9.538  18.110  0.00  0.00    +0.000 A 
ATOM      3  C   UNL     1       2.260   8.398  17.818  0.00  0.00    +0.000 A 
ATOM      4  C   UNL     1       2.328   7.338  18.735  0.00  0.00    +0.000 A 
ATOM      5  C   UNL     1       1.830   7.534  20.031  0.00  0.00    +0.000 A 
ATOM      6  C   UNL     1       1.170   8.727  20.360  0.00  0.00    +0.000 A 
ENDROOT
BRANCH   1  18
ATOM      7  C   UNL     1      -1.639  10.006  18.254  0.00  0.00    +0.000 C 
ATOM      8  C   UNL     1      -1.035  11.078  19.135  0.00  0.00    +0.000 A 
ATOM      9  N   UNL     1      -1.764  12.120  19.387  0.00  0.00    +0.000 NA
ATOM     10  C   UNL     1      -1.247  13.114  20.222  0.00  0.00    +0.000 A 
ATOM     11  C   UNL     1      -2.009  14.263  20.450  0.00  0.00    +0.000 A 
ATOM     12  C   UNL     1      -1.516  15.298  21.249  0.00  0.00    +0.000 A 
ATOM     13  C   UNL     1      -0.257  15.187  21.839  0.00  0.00    +0.000 A 
ATOM     14  C   UNL     1       0.502  14.035  21.640  0.00  0.00    +0.000 A 
ATOM     15  C   UNL     1      -0.001  13.006  20.834  0.00  0.00    +0.000 A 
ATOM     16  C   UNL     1       0.776  11.779  20.590  0.00  0.00    +0.000 A 
ATOM     17  O   UNL     1       1.833  11.618  21.200  0.00  0.00    +0.000 OA
ATOM     18  N   UNL     1       0.233  10.886  19.659  0.00  0.00    +0.000 N 
ENDBRANCH   1  18
BRANCH   4  19
ATOM     19  C   UNL     1       2.978   6.043  18.386  0.00  0.00    +0.000 C 
ATOM     20  O   UNL     1       2.325   5.014  18.554  0.00  0.00    +0.000 OA
ATOM     21  N   UNL     1       4.289   6.030  17.926  0.00  0.00    +0.000 N 
ATOM     22  C   UNL     1       5.121   7.128  17.427  0.00  0.00    +0.000 C 
ATOM     23  C   UNL     1       6.552   6.592  17.450  0.00  0.00    +0.000 C 
ATOM     24  C   UNL     1       6.445   5.217  18.108  0.00  0.00    +0.000 C 
ATOM     25  C   UNL     1       5.018   4.773  17.802  0.00  0.00    +0.000 C 
ATOM     26  C   UNL     1       4.900   4.166  16.402  0.00  0.00    +0.000 C 
ENDBRANCH   4  19
TORSDOF 2
ENDMDL
MODEL 9
REMARK VINA RESULT:      -7.7      2.663      8.878
REMARK  Name = 
REMARK  4 active torsions:
REMARK  status: ('A' for Active; 'I' for Inactive)
REMARK    1  A    between atoms: C_1  and  C_2
REMARK    2  A    between atoms: N_12  and  C_13
REMARK    3  A    between atoms: C_16  and  C_17
REMARK    4  A    between atoms: C_23  and  C_24
REMARK                            x       y       z     vdW  Elec       q    Type
REMARK                         _______ _______ _______ _____ _____    ______ ____
ROOT
ATOM      1  C   UNL     1       0.612  10.702  19.750  0.00  0.00    +0.000 A 
ATOM      2  C   UNL     1       1.282  11.747  20.385  0.00  0.00    +0.000 A 
ATOM      3  C   UNL     1       0.726  13.019  20.406  0.00  0.00    +0.000 A 
ATOM      4  C   UNL     1      -0.578  13.235  19.934  0.00  0.00    +0.000 A 
ATOM      5  C   UNL     1      -1.225  12.201  19.240  0.00  0.00    +0.000 A 
ATOM      6  C   UNL     1      -0.621  10.940  19.132  0.00  0.00    +0.000 A 
ENDROOT
BRANCH   1  18
ATOM      7  C   UNL     1       0.136   8.924  21.941  0.00  0.00    +0.000 C 
ATOM      8  C   UNL     1       1.007   8.517  20.772  0.00  0.00    +0.000 A 
ATOM      9  N   UNL     1       1.498   7.317  20.787  0.00  0.00    +0.000 NA
ATOM     10  C   UNL     1       2.281   6.899  19.708  0.00  0.00    +0.000 A 
ATOM     11  C   UNL     1       2.857   5.628  19.749  0.00  0.00    +0.000 A 
ATOM     12  C   UNL     1       3.676   5.182  18.707  0.00  0.00    +0.000 A 
ATOM     13  C   UNL     1       3.918   6.005  17.607  0.00  0.00    +0.000 A 
ATOM     14  C   UNL     1       3.328   7.266  17.543  0.00  0.00    +0.000 A 
ATOM     15  C   UNL     1       2.512   7.703  18.594  0.00  0.00    +0.000 A 
ATOM     16  C   UNL     1       1.881   9.033  18.568  0.00  0.00    +0.000 A 
ATOM     17  O   UNL     1       1.989   9.719  17.552  0.00  0.00    +0.000 OA
ATOM     18  N   UNL     1       1.204   9.412  19.733  0.00  0.00    +0.000 N 
ENDBRANCH   1  18
BRANCH   4  19
ATOM     19  C   UNL     1      -1.257  14.553  20.087  0.00  0.00    +0.000 C 
ATOM     20  O   UNL     1      -2.325  14.576  20.697  0.00  0.00    +0.000 OA
ATOM     21  N   UNL     1      -0.696  15.689  19.517  0.00  0.00    +0.000 N 
ATOM     22  C   UNL     1       0.654  15.909  18.993  0.00  0.00    +0.000 C 
ATOM     23  C   UNL     1       0.559  17.185  18.155  0.00  0.00    +0.000 C 
ATOM     24  C   UNL     1      -0.926  17.543  18.157  0.00  0.00    +0.000 C 
ATOM     25  C   UNL     1      -1.450  16.935  19.453  0.00  0.00    +0.000 C 
ATOM     26  C   UNL     1      -1.181  17.843  20.655  0.00  0.00    +0.000 C 
ENDBRANCH   4  19
TORSDOF 2
ENDMDL
