MODEL 1
REMARK VINA RESULT:      -8.4      0.000      0.000
REMARK  Name = 
REMARK  9 active torsions:
REMARK  status: ('A' for Active; 'I' for Inactive)
REMARK    1  A    between atoms: C_1  and  C_2
REMARK    2  A    between atoms: C_5  and  C_6
REMARK    3  A    between atoms: C_7  and  C_8
REMARK    4  A    between atoms: C_8  and  O_9
REMARK    5  A    between atoms: O_9  and  C_10
REMARK    6  A    between atoms: C_13  and  C_14
REMARK    7  A    between atoms: N_16  and  C_17
REMARK    8  A    between atoms: C_17  and  C_18
REMARK    9  A    between atoms: N_20  and  C_21
REMARK                            x       y       z     vdW  Elec       q    Type
REMARK                         _______ _______ _______ _____ _____    ______ ____
ROOT
ATOM      1  C   UNL     1       1.579   8.039  20.523  0.00  0.00    +0.000 C 
ATOM      2  O   UNL     1       1.287   7.779  21.686  0.00  0.00    +0.000 OA
ATOM      3  N   UNL     1       1.434   9.292  19.989  0.00  0.00    +0.000 N 
ATOM      4  H   UNL     1       1.812   9.521  19.074  0.00  0.00    +0.000 HD
ENDROOT
BRANCH   1   8
ATOM      5  C   UNL     1       3.284   5.135  17.849  0.00  0.00    +0.000 A 
ATOM      6  C   UNL     1       2.758   4.712  19.073  0.00  0.00    +0.000 A 
ATOM      7  C   UNL     1       2.198   5.636  19.967  0.00  0.00    +0.000 A 
ATOM      8  C   UNL     1       2.178   6.997  19.641  0.00  0.00    +0.000 A 
ATOM      9  C   UNL     1       2.755   7.422  18.439  0.00  0.00    +0.000 A 
ATOM     10  C   UNL     1       3.308   6.497  17.549  0.00  0.00    +0.000 A 
BRANCH   5  11
ATOM     11  O   UNL     1       3.759   4.146  17.028  0.00  0.00    +0.000 OA
BRANCH  11  12
ATOM     12  C   UNL     1       5.117   3.750  17.266  0.00  0.00    +0.000 C 
BRANCH  12  19
ATOM     13  C   UNL     1       7.046   5.999  18.585  0.00  0.00    +0.000 C 
ATOM     14  C   UNL     1       6.929   5.624  17.156  0.00  0.00    +0.000 A 
ATOM     15  N   UNL     1       7.699   6.218  16.237  0.00  0.00    +0.000 NA
ATOM     16  O   UNL     1       7.357   5.640  15.031  0.00  0.00    +0.000 OA
ATOM     17  C   UNL     1       6.393   4.704  15.231  0.00  0.00    +0.000 A 
ATOM     18  C   UNL     1       5.934   3.977  14.032  0.00  0.00    +0.000 C 
ATOM     19  C   UNL     1       6.076   4.648  16.572  0.00  0.00    +0.000 A 
ENDBRANCH  12  19
ENDBRANCH  11  12
ENDBRANCH   5  11
ENDBRANCH   1   8
BRANCH   3  20
ATOM     20  C   UNL     1       0.981  10.417  20.791  0.00  0.00    +0.000 C 
BRANCH  20  21
ATOM     21  C   UNL     1      -0.309  10.956  20.170  0.00  0.00    +0.000 C 
ATOM     22  O   UNL     1      -0.873  11.929  20.670  0.00  0.00    +0.000 OA
ATOM     23  N   UNL     1      -0.751  10.240  19.068  0.00  0.00    +0.000 N 
ATOM     24  H   UNL     1      -0.284   9.362  18.866  0.00  0.00    +0.000 HD
BRANCH  23  25
ATOM     25  C   UNL     1      -1.887  10.552  18.286  0.00  0.00    +0.000 A 
ATOM     26  C   UNL     1      -2.897  11.423  18.717  0.00  0.00    +0.000 A 
ATOM     27  C   UNL     1      -4.017  11.680  17.920  0.00  0.00    +0.000 A 
ATOM     28  C   UNL     1      -4.128  11.068  16.682  0.00  0.00    +0.000 A 
ATOM     29  F   UNL     1      -5.208  11.304  15.925  0.00  0.00    +0.000 F 
ATOM     30  C   UNL     1      -3.124  10.221  16.233  0.00  0.00    +0.000 A 
ATOM     31  F   UNL     1      -3.232   9.629  15.034  0.00  0.00    +0.000 F 
ATOM     32  C   UNL     1      -1.999   9.967  17.018  0.00  0.00    +0.000 A 
ENDBRANCH  23  25
ENDBRANCH  20  21
ENDBRANCH   3  20
TORSDOF 7
ENDMDL
MODEL 2
REMARK VINA RESULT:      -8.3      5.878      9.311
REMARK  Name = 
REMARK  9 active torsions:
REMARK  status: ('A' for Active; 'I' for Inactive)
REMARK    1  A    between atoms: C_1  and  C_2
REMARK    2  A    between atoms: C_5  and  C_6
REMARK    3  A    between atoms: C_7  and  C_8
REMARK    4  A    between atoms: C_8  and  O_9
REMARK    5  A    between atoms: O_9  and  C_10
REMARK    6  A    between atoms: C_13  and  C_14
REMARK    7  A    between atoms: N_16  and  C_17
REMARK    8  A    between atoms: C_17  and  C_18
REMARK    9  A    between atoms: N_20  and  C_21
REMARK                            x       y       z     vdW  Elec       q    Type
REMARK                         _______ _______ _______ _____ _____    ______ ____
ROOT
ATOM      1  C   UNL     1       7.881   7.739  17.846  0.00  0.00    +0.000 C 
ATOM      2  O   UNL     1       7.450   7.567  16.711  0.00  0.00    +0.000 OA
ATOM      3  N   UNL     1       8.006   6.718  18.751  0.00  0.00    +0.000 N 
ATOM      4  H   UNL     1       8.495   6.852  19.632  0.00  0.00    +0.000 HD
ENDROOT
BRANCH   1   8
ATOM      5  C   UNL     1       9.244  11.670  18.939  0.00  0.00    +0.000 A 
ATOM      6  C   UNL     1       9.591  10.577  19.739  0.00  0.00    +0.000 A 
ATOM      7  C   UNL     1       9.160   9.284  19.410  0.00  0.00    +0.000 A 
ATOM      8  C   UNL     1       8.359   9.084  18.279  0.00  0.00    +0.000 A 
ATOM      9  C   UNL     1       7.969  10.187  17.512  0.00  0.00    +0.000 A 
ATOM     10  C   UNL     1       8.405  11.474  17.841  0.00  0.00    +0.000 A 
BRANCH   5  11
ATOM     11  O   UNL     1       9.760  12.879  19.321  0.00  0.00    +0.000 OA
BRANCH  11  12
ATOM     12  C   UNL     1       9.849  13.090  20.737  0.00  0.00    +0.000 C 
BRANCH  12  19
ATOM     13  C   UNL     1       7.935  15.571  19.896  0.00  0.00    +0.000 C 
ATOM     14  C   UNL     1       7.690  14.543  20.935  0.00  0.00    +0.000 A 
ATOM     15  N   UNL     1       6.552  14.552  21.638  0.00  0.00    +0.000 NA
ATOM     16  O   UNL     1       6.633  13.474  22.497  0.00  0.00    +0.000 OA
ATOM     17  C   UNL     1       7.810  12.824  22.302  0.00  0.00    +0.000 A 
ATOM     18  C   UNL     1       8.037  11.628  23.136  0.00  0.00    +0.000 C 
ATOM     19  C   UNL     1       8.532  13.462  21.316  0.00  0.00    +0.000 A 
ENDBRANCH  12  19
ENDBRANCH  11  12
ENDBRANCH   5  11
ENDBRANCH   1   8
BRANCH   3  20
ATOM     20  C   UNL     1       7.694   5.343  18.399  0.00  0.00    +0.000 C 
BRANCH  20  21
ATOM     21  C   UNL     1       6.249   5.061  18.817  0.00  0.00    +0.000 C 
ATOM     22  O   UNL     1       5.732   5.716  19.721  0.00  0.00    +0.000 OA
ATOM     23  N   UNL     1       5.649   4.025  18.119  0.00  0.00    +0.000 N 
ATOM     24  H   UNL     1       6.242   3.461  17.520  0.00  0.00    +0.000 HD
BRANCH  23  25
ATOM     25  C   UNL     1       4.311   3.593  18.278  0.00  0.00    +0.000 A 
ATOM     26  C   UNL     1       3.959   2.443  18.999  0.00  0.00    +0.000 A 
ATOM     27  C   UNL     1       2.625   2.040  19.106  0.00  0.00    +0.000 A 
ATOM     28  C   UNL     1       1.633   2.790  18.494  0.00  0.00    +0.000 A 
ATOM     29  F   UNL     1       0.357   2.395  18.585  0.00  0.00    +0.000 F 
ATOM     30  C   UNL     1       1.966   3.943  17.796  0.00  0.00    +0.000 A 
ATOM     31  F   UNL     1       1.006   4.670  17.205  0.00  0.00    +0.000 F 
ATOM     32  C   UNL     1       3.295   4.358  17.693  0.00  0.00    +0.000 A 
ENDBRANCH  23  25
ENDBRANCH  20  21
ENDBRANCH   3  20
TORSDOF 7
ENDMDL
MODEL 3
REMARK VINA RESULT:      -8.3      4.389      9.796
REMARK  Name = 
REMARK  9 active torsions:
REMARK  status: ('A' for Active; 'I' for Inactive)
REMARK    1  A    between atoms: C_1  and  C_2
REMARK    2  A    between atoms: C_5  and  C_6
REMARK    3  A    between atoms: C_7  and  C_8
REMARK    4  A    between atoms: C_8  and  O_9
REMARK    5  A    between atoms: O_9  and  C_10
REMARK    6  A    between atoms: C_13  and  C_14
REMARK    7  A    between atoms: N_16  and  C_17
REMARK    8  A    between atoms: C_17  and  C_18
REMARK    9  A    between atoms: N_20  and  C_21
REMARK                            x       y       z     vdW  Elec       q    Type
REMARK                         _______ _______ _______ _____ _____    ______ ____
ROOT
ATOM      1  C   UNL     1       3.601   5.431  19.208  0.00  0.00    +0.000 C 
ATOM      2  O   UNL     1       3.048   4.362  19.446  0.00  0.00    +0.000 OA
ATOM      3  N   UNL     1       4.933   5.520  18.899  0.00  0.00    +0.000 N 
ATOM      4  H   UNL     1       5.339   6.390  18.567  0.00  0.00    +0.000 HD
ENDROOT
BRANCH   1   8
ATOM      5  C   UNL     1       1.442   9.145  19.004  0.00  0.00    +0.000 A 
ATOM      6  C   UNL     1       1.391   8.387  20.177  0.00  0.00    +0.000 A 
ATOM      7  C   UNL     1       2.083   7.171  20.274  0.00  0.00    +0.000 A 
ATOM      8  C   UNL     1       2.818   6.699  19.179  0.00  0.00    +0.000 A 
ATOM      9  C   UNL     1       2.821   7.434  17.989  0.00  0.00    +0.000 A 
ATOM     10  C   UNL     1       2.134   8.648  17.899  0.00  0.00    +0.000 A 
BRANCH   5  11
ATOM     11  O   UNL     1       0.774  10.340  19.034  0.00  0.00    +0.000 OA
BRANCH  11  12
ATOM     12  C   UNL     1      -0.469  10.332  19.749  0.00  0.00    +0.000 C 
BRANCH  12  19
ATOM     13  C   UNL     1      -0.439  13.575  19.666  0.00  0.00    +0.000 C 
ATOM     14  C   UNL     1      -0.443  12.694  20.859  0.00  0.00    +0.000 A 
ATOM     15  N   UNL     1      -0.466  13.221  22.088  0.00  0.00    +0.000 NA
ATOM     16  O   UNL     1      -0.478  12.149  22.957  0.00  0.00    +0.000 OA
ATOM     17  C   UNL     1      -0.467  10.989  22.249  0.00  0.00    +0.000 A 
ATOM     18  C   UNL     1      -0.500   9.744  23.041  0.00  0.00    +0.000 C 
ATOM     19  C   UNL     1      -0.443  11.273  20.900  0.00  0.00    +0.000 A 
ENDBRANCH  12  19
ENDBRANCH  11  12
ENDBRANCH   5  11
ENDBRANCH   1   8
BRANCH   3  20
ATOM     20  C   UNL     1       5.768   4.337  18.770  0.00  0.00    +0.000 C 
BRANCH  20  21
ATOM     21  C   UNL     1       6.506   4.419  17.432  0.00  0.00    +0.000 C 
ATOM     22  O   UNL     1       7.726   4.580  17.411  0.00  0.00    +0.000 OA
ATOM     23  N   UNL     1       5.680   4.329  16.322  0.00  0.00    +0.000 N 
ATOM     24  H   UNL     1       4.679   4.369  16.483  0.00  0.00    +0.000 HD
BRANCH  23  25
ATOM     25  C   UNL     1       6.110   4.332  14.975  0.00  0.00    +0.000 A 
ATOM     26  C   UNL     1       5.481   3.585  13.970  0.00  0.00    +0.000 A 
ATOM     27  C   UNL     1       5.958   3.597  12.656  0.00  0.00    +0.000 A 
ATOM     28  C   UNL     1       7.068   4.363  12.340  0.00  0.00    +0.000 A 
ATOM     29  F   UNL     1       7.533   4.363  11.084  0.00  0.00    +0.000 F 
ATOM     30  C   UNL     1       7.687   5.126  13.321  0.00  0.00    +0.000 A 
ATOM     31  F   UNL     1       8.762   5.869  13.015  0.00  0.00    +0.000 F 
ATOM     32  C   UNL     1       7.211   5.127  14.633  0.00  0.00    +0.000 A 
ENDBRANCH  23  25
ENDBRANCH  20  21
ENDBRANCH   3  20
TORSDOF 7
ENDMDL
MODEL 4
REMARK VINA RESULT:      -8.3      3.639      4.485
REMARK  Name = 
REMARK  9 active torsions:
REMARK  status: ('A' for Active; 'I' for Inactive)
REMARK    1  A    between atoms: C_1  and  C_2
REMARK    2  A    between atoms: C_5  and  C_6
REMARK    3  A    between atoms: C_7  and  C_8
REMARK    4  A    between atoms: C_8  and  O_9
REMARK    5  A    between atoms: O_9  and  C_10
REMARK    6  A    between atoms: C_13  and  C_14
REMARK    7  A    between atoms: N_16  and  C_17
REMARK    8  A    between atoms: C_17  and  C_18
REMARK    9  A    between atoms: N_20  and  C_21
REMARK                            x       y       z     vdW  Elec       q    Type
REMARK                         _______ _______ _______ _____ _____    ______ ____
ROOT
ATOM      1  C   UNL     1       1.329   9.112  19.001  0.00  0.00    +0.000 C 
ATOM      2  O   UNL     1       0.917   9.693  18.003  0.00  0.00    +0.000 OA
ATOM      3  N   UNL     1       0.994   9.499  20.272  0.00  0.00    +0.000 N 
ATOM      4  H   UNL     1       1.227   8.923  21.076  0.00  0.00    +0.000 HD
ENDROOT
BRANCH   1   8
ATOM      5  C   UNL     1       3.773   5.614  18.462  0.00  0.00    +0.000 A 
ATOM      6  C   UNL     1       3.030   5.756  19.638  0.00  0.00    +0.000 A 
ATOM      7  C   UNL     1       2.225   6.886  19.843  0.00  0.00    +0.000 A 
ATOM      8  C   UNL     1       2.178   7.892  18.871  0.00  0.00    +0.000 A 
ATOM      9  C   UNL     1       2.965   7.772  17.721  0.00  0.00    +0.000 A 
ATOM     10  C   UNL     1       3.762   6.641  17.518  0.00  0.00    +0.000 A 
BRANCH   5  11
ATOM     11  O   UNL     1       4.483   4.449  18.340  0.00  0.00    +0.000 OA
BRANCH  11  12
ATOM     12  C   UNL     1       5.891   4.558  18.589  0.00  0.00    +0.000 C 
BRANCH  12  19
ATOM     13  C   UNL     1       5.830   3.545  15.508  0.00  0.00    +0.000 C 
ATOM     14  C   UNL     1       6.568   4.700  16.073  0.00  0.00    +0.000 A 
ATOM     15  N   UNL     1       7.298   5.489  15.277  0.00  0.00    +0.000 NA
ATOM     16  O   UNL     1       7.833   6.460  16.100  0.00  0.00    +0.000 OA
ATOM     17  C   UNL     1       7.419   6.253  17.377  0.00  0.00    +0.000 A 
ATOM     18  C   UNL     1       7.892   7.228  18.379  0.00  0.00    +0.000 C 
ATOM     19  C   UNL     1       6.607   5.140  17.424  0.00  0.00    +0.000 A 
ENDBRANCH  12  19
ENDBRANCH  11  12
ENDBRANCH   5  11
ENDBRANCH   1   8
BRANCH   3  20
ATOM     20  C   UNL     1       0.069  10.593  20.518  0.00  0.00    +0.000 C 
BRANCH  20  21
ATOM     21  C   UNL     1       0.845  11.907  20.399  0.00  0.00    +0.000 C 
ATOM     22  O   UNL     1       1.505  12.320  21.352  0.00  0.00    +0.000 OA
ATOM     23  N   UNL     1       0.694  12.547  19.179  0.00  0.00    +0.000 N 
ATOM     24  H   UNL     1      -0.011  12.183  18.546  0.00  0.00    +0.000 HD
BRANCH  23  25
ATOM     25  C   UNL     1       1.336  13.747  18.795  0.00  0.00    +0.000 A 
ATOM     26  C   UNL     1       2.604  13.780  18.200  0.00  0.00    +0.000 A 
ATOM     27  C   UNL     1       3.212  14.993  17.861  0.00  0.00    +0.000 A 
ATOM     28  C   UNL     1       2.547  16.183  18.115  0.00  0.00    +0.000 A 
ATOM     29  F   UNL     1       3.135  17.345  17.804  0.00  0.00    +0.000 F 
ATOM     30  C   UNL     1       1.281  16.164  18.684  0.00  0.00    +0.000 A 
ATOM     31  F   UNL     1       0.638  17.315  18.928  0.00  0.00    +0.000 F 
ATOM     32  C   UNL     1       0.664  14.956  19.014  0.00  0.00    +0.000 A 
ENDBRANCH  23  25
ENDBRANCH  20  21
ENDBRANCH   3  20
TORSDOF 7
ENDMDL
MODEL 5
REMARK VINA RESULT:      -8.2      3.559      4.336
REMARK  Name = 
REMARK  9 active torsions:
REMARK  status: ('A' for Active; 'I' for Inactive)
REMARK    1  A    between atoms: C_1  and  C_2
REMARK    2  A    between atoms: C_5  and  C_6
REMARK    3  A    between atoms: C_7  and  C_8
REMARK    4  A    between atoms: C_8  and  O_9
REMARK    5  A    between atoms: O_9  and  C_10
REMARK    6  A    between atoms: C_13  and  C_14
REMARK    7  A    between atoms: N_16  and  C_17
REMARK    8  A    between atoms: C_17  and  C_18
REMARK    9  A    between atoms: N_20  and  C_21
REMARK                            x       y       z     vdW  Elec       q    Type
REMARK                         _______ _______ _______ _____ _____    ______ ____
ROOT
ATOM      1  C   UNL     1       1.478   8.447  20.465  0.00  0.00    +0.000 C 
ATOM      2  O   UNL     1       1.583   8.446  21.687  0.00  0.00    +0.000 OA
ATOM      3  N   UNL     1       0.817   9.433  19.781  0.00  0.00    +0.000 N 
ATOM      4  H   UNL     1       0.863   9.493  18.768  0.00  0.00    +0.000 HD
ENDROOT
BRANCH   1   8
ATOM      5  C   UNL     1       3.350   5.484  17.972  0.00  0.00    +0.000 A 
ATOM      6  C   UNL     1       2.825   5.104  19.211  0.00  0.00    +0.000 A 
ATOM      7  C   UNL     1       2.211   6.047  20.047  0.00  0.00    +0.000 A 
ATOM      8  C   UNL     1       2.137   7.388  19.648  0.00  0.00    +0.000 A 
ATOM      9  C   UNL     1       2.712   7.773  18.432  0.00  0.00    +0.000 A 
ATOM     10  C   UNL     1       3.319   6.828  17.600  0.00  0.00    +0.000 A 
BRANCH   5  11
ATOM     11  O   UNL     1       3.880   4.475  17.212  0.00  0.00    +0.000 OA
BRANCH  11  12
ATOM     12  C   UNL     1       5.229   4.108  17.534  0.00  0.00    +0.000 C 
BRANCH  12  19
ATOM     13  C   UNL     1       5.659   3.866  14.327  0.00  0.00    +0.000 C 
ATOM     14  C   UNL     1       6.385   4.739  15.281  0.00  0.00    +0.000 A 
ATOM     15  N   UNL     1       7.329   5.580  14.843  0.00  0.00    +0.000 NA
ATOM     16  O   UNL     1       7.789   6.243  15.962  0.00  0.00    +0.000 OA
ATOM     17  C   UNL     1       7.121   5.803  17.060  0.00  0.00    +0.000 A 
ATOM     18  C   UNL     1       7.487   6.437  18.341  0.00  0.00    +0.000 C 
ATOM     19  C   UNL     1       6.209   4.838  16.688  0.00  0.00    +0.000 A 
ENDBRANCH  12  19
ENDBRANCH  11  12
ENDBRANCH   5  11
ENDBRANCH   1   8
BRANCH   3  20
ATOM     20  C   UNL     1       0.248  10.585  20.462  0.00  0.00    +0.000 C 
BRANCH  20  21
ATOM     21  C   UNL     1       0.424  11.807  19.558  0.00  0.00    +0.000 C 
ATOM     22  O   UNL     1      -0.214  11.894  18.510  0.00  0.00    +0.000 OA
ATOM     23  N   UNL     1       1.354  12.725  20.020  0.00  0.00    +0.000 N 
ATOM     24  H   UNL     1       1.929  12.448  20.810  0.00  0.00    +0.000 HD
BRANCH  23  25
ATOM     25  C   UNL     1       1.672  13.956  19.401  0.00  0.00    +0.000 A 
ATOM     26  C   UNL     1       0.926  15.126  19.597  0.00  0.00    +0.000 A 
ATOM     27  C   UNL     1       1.262  16.315  18.942  0.00  0.00    +0.000 A 
ATOM     28  C   UNL     1       2.353  16.337  18.087  0.00  0.00    +0.000 A 
ATOM     29  F   UNL     1       2.666  17.473  17.449  0.00  0.00    +0.000 F 
ATOM     30  C   UNL     1       3.114  15.192  17.901  0.00  0.00    +0.000 A 
ATOM     31  F   UNL     1       4.170  15.214  17.075  0.00  0.00    +0.000 F 
ATOM     32  C   UNL     1       2.791  14.004  18.560  0.00  0.00    +0.000 A 
ENDBRANCH  23  25
ENDBRANCH  20  21
ENDBRANCH   3  20
TORSDOF 7
ENDMDL
MODEL 6
REMARK VINA RESULT:      -8.2      6.802      9.789
REMARK  Name = 
REMARK  9 active torsions:
REMARK  status: ('A' for Active; 'I' for Inactive)
REMARK    1  A    between atoms: C_1  and  C_2
REMARK    2  A    between atoms: C_5  and  C_6
REMARK    3  A    between atoms: C_7  and  C_8
REMARK    4  A    between atoms: C_8  and  O_9
REMARK    5  A    between atoms: O_9  and  C_10
REMARK    6  A    between atoms: C_13  and  C_14
REMARK    7  A    between atoms: N_16  and  C_17
REMARK    8  A    between atoms: C_17  and  C_18
REMARK    9  A    between atoms: N_20  and  C_21
REMARK                            x       y       z     vdW  Elec       q    Type
REMARK                         _______ _______ _______ _____ _____    ______ ____
ROOT
ATOM      1  C   UNL     1       8.023   8.471  18.020  0.00  0.00    +0.000 C 
ATOM      2  O   UNL     1       7.355   8.557  16.995  0.00  0.00    +0.000 OA
ATOM      3  N   UNL     1       8.277   7.275  18.639  0.00  0.00    +0.000 N 
ATOM      4  H   UNL     1       8.946   7.208  19.401  0.00  0.00    +0.000 HD
ENDROOT
BRANCH   1   8
ATOM      5  C   UNL     1       9.904  12.009  19.584  0.00  0.00    +0.000 A 
ATOM      6  C   UNL     1       9.648  10.934  20.440  0.00  0.00    +0.000 A 
ATOM      7  C   UNL     1       9.034   9.768  19.960  0.00  0.00    +0.000 A 
ATOM      8  C   UNL     1       8.657   9.684  18.615  0.00  0.00    +0.000 A 
ATOM      9  C   UNL     1       8.865  10.783  17.774  0.00  0.00    +0.000 A 
ATOM     10  C   UNL     1       9.482  11.941  18.256  0.00  0.00    +0.000 A 
BRANCH   5  11
ATOM     11  O   UNL     1      10.554  13.077  20.142  0.00  0.00    +0.000 OA
BRANCH  11  12
ATOM     12  C   UNL     1      11.916  13.253  19.727  0.00  0.00    +0.000 C 
BRANCH  12  19
ATOM     13  C   UNL     1      12.333  13.518  16.521  0.00  0.00    +0.000 C 
ATOM     14  C   UNL     1      12.257  14.608  17.523  0.00  0.00    +0.000 A 
ATOM     15  N   UNL     1      12.331  15.886  17.136  0.00  0.00    +0.000 NA
ATOM     16  O   UNL     1      12.215  16.635  18.291  0.00  0.00    +0.000 OA
ATOM     17  C   UNL     1      12.067  15.807  19.358  0.00  0.00    +0.000 A 
ATOM     18  C   UNL     1      11.907  16.461  20.670  0.00  0.00    +0.000 C 
ATOM     19  C   UNL     1      12.087  14.496  18.930  0.00  0.00    +0.000 A 
ENDBRANCH  12  19
ENDBRANCH  11  12
ENDBRANCH   5  11
ENDBRANCH   1   8
BRANCH   3  20
ATOM     20  C   UNL     1       7.820   6.014  18.079  0.00  0.00    +0.000 C 
BRANCH  20  21
ATOM     21  C   UNL     1       6.673   5.495  18.949  0.00  0.00    +0.000 C 
ATOM     22  O   UNL     1       6.868   5.245  20.138  0.00  0.00    +0.000 OA
ATOM     23  N   UNL     1       5.478   5.321  18.268  0.00  0.00    +0.000 N 
ATOM     24  H   UNL     1       5.502   5.404  17.257  0.00  0.00    +0.000 HD
BRANCH  23  25
ATOM     25  C   UNL     1       4.258   4.898  18.844  0.00  0.00    +0.000 A 
ATOM     26  C   UNL     1       3.760   3.595  18.709  0.00  0.00    +0.000 A 
ATOM     27  C   UNL     1       2.534   3.229  19.273  0.00  0.00    +0.000 A 
ATOM     28  C   UNL     1       1.801   4.169  19.980  0.00  0.00    +0.000 A 
ATOM     29  F   UNL     1       0.620   3.821  20.508  0.00  0.00    +0.000 F 
ATOM     30  C   UNL     1       2.293   5.457  20.141  0.00  0.00    +0.000 A 
ATOM     31  F   UNL     1       1.584   6.365  20.826  0.00  0.00    +0.000 F 
ATOM     32  C   UNL     1       3.521   5.826  19.589  0.00  0.00    +0.000 A 
ENDBRANCH  23  25
ENDBRANCH  20  21
ENDBRANCH   3  20
TORSDOF 7
ENDMDL
MODEL 7
REMARK VINA RESULT:      -8.2      4.194      9.810
REMARK  Name = 
REMARK  9 active torsions:
REMARK  status: ('A' for Active; 'I' for Inactive)
REMARK    1  A    between atoms: C_1  and  C_2
REMARK    2  A    between atoms: C_5  and  C_6
REMARK    3  A    between atoms: C_7  and  C_8
REMARK    4  A    between atoms: C_8  and  O_9
REMARK    5  A    between atoms: O_9  and  C_10
REMARK    6  A    between atoms: C_13  and  C_14
REMARK    7  A    between atoms: N_16  and  C_17
REMARK    8  A    between atoms: C_17  and  C_18
REMARK    9  A    between atoms: N_20  and  C_21
REMARK                            x       y       z     vdW  Elec       q    Type
REMARK                         _______ _______ _______ _____ _____    ______ ____
ROOT
ATOM      1  C   UNL     1       3.336   5.750  18.536  0.00  0.00    +0.000 C 
ATOM      2  O   UNL     1       2.910   4.920  17.739  0.00  0.00    +0.000 OA
ATOM      3  N   UNL     1       4.545   5.615  19.167  0.00  0.00    +0.000 N 
ATOM      4  H   UNL     1       4.942   6.376  19.710  0.00  0.00    +0.000 HD
ENDROOT
BRANCH   1   8
ATOM      5  C   UNL     1       1.205   9.427  19.199  0.00  0.00    +0.000 A 
ATOM      6  C   UNL     1       1.345   8.517  20.251  0.00  0.00    +0.000 A 
ATOM      7  C   UNL     1       2.032   7.309  20.065  0.00  0.00    +0.000 A 
ATOM      8  C   UNL     1       2.570   7.000  18.810  0.00  0.00    +0.000 A 
ATOM      9  C   UNL     1       2.380   7.888  17.746  0.00  0.00    +0.000 A 
ATOM     10  C   UNL     1       1.699   9.093  17.937  0.00  0.00    +0.000 A 
BRANCH   5  11
ATOM     11  O   UNL     1       0.563  10.598  19.502  0.00  0.00    +0.000 OA
BRANCH  11  12
ATOM     12  C   UNL     1       0.937  11.199  20.749  0.00  0.00    +0.000 C 
BRANCH  12  19
ATOM     13  C   UNL     1      -1.408  13.425  20.488  0.00  0.00    +0.000 C 
ATOM     14  C   UNL     1      -1.272  12.361  21.510  0.00  0.00    +0.000 A 
ATOM     15  N   UNL     1      -2.203  12.214  22.460  0.00  0.00    +0.000 NA
ATOM     16  O   UNL     1      -1.790  11.144  23.228  0.00  0.00    +0.000 OA
ATOM     17  C   UNL     1      -0.623  10.653  22.736  0.00  0.00    +0.000 A 
ATOM     18  C   UNL     1      -0.061   9.485  23.441  0.00  0.00    +0.000 C 
ATOM     19  C   UNL     1      -0.239  11.392  21.636  0.00  0.00    +0.000 A 
ENDBRANCH  12  19
ENDBRANCH  11  12
ENDBRANCH   5  11
ENDBRANCH   1   8
BRANCH   3  20
ATOM     20  C   UNL     1       5.436   4.503  18.880  0.00  0.00    +0.000 C 
BRANCH  20  21
ATOM     21  C   UNL     1       6.172   4.808  17.573  0.00  0.00    +0.000 C 
ATOM     22  O   UNL     1       7.145   5.562  17.577  0.00  0.00    +0.000 OA
ATOM     23  N   UNL     1       5.623   4.197  16.457  0.00  0.00    +0.000 N 
ATOM     24  H   UNL     1       4.725   3.739  16.571  0.00  0.00    +0.000 HD
BRANCH  23  25
ATOM     25  C   UNL     1       6.135   4.277  15.141  0.00  0.00    +0.000 A 
ATOM     26  C   UNL     1       7.257   5.045  14.802  0.00  0.00    +0.000 A 
ATOM     27  C   UNL     1       7.710   5.116  13.481  0.00  0.00    +0.000 A 
ATOM     28  C   UNL     1       7.042   4.412  12.492  0.00  0.00    +0.000 A 
ATOM     29  F   UNL     1       7.469   4.492  11.224  0.00  0.00    +0.000 F 
ATOM     30  C   UNL     1       5.943   3.629  12.817  0.00  0.00    +0.000 A 
ATOM     31  F   UNL     1       5.298   2.947  11.860  0.00  0.00    +0.000 F 
ATOM     32  C   UNL     1       5.491   3.546  14.135  0.00  0.00    +0.000 A 
ENDBRANCH  23  25
ENDBRANCH  20  21
ENDBRANCH   3  20
TORSDOF 7
ENDMDL
MODEL 8
REMARK VINA RESULT:      -8.2      3.680      4.510
REMARK  Name = 
REMARK  9 active torsions:
REMARK  status: ('A' for Active; 'I' for Inactive)
REMARK    1  A    between atoms: C_1  and  C_2
REMARK    2  A    between atoms: C_5  and  C_6
REMARK    3  A    between atoms: C_7  and  C_8
REMARK    4  A    between atoms: C_8  and  O_9
REMARK    5  A    between atoms: O_9  and  C_10
REMARK    6  A    between atoms: C_13  and  C_14
REMARK    7  A    between atoms: N_16  and  C_17
REMARK    8  A    between atoms: C_17  and  C_18
REMARK    9  A    between atoms: N_20  and  C_21
REMARK                            x       y       z     vdW  Elec       q    Type
REMARK                         _______ _______ _______ _____ _____    ______ ____
ROOT
ATOM      1  C   UNL     1       1.370   9.253  18.988  0.00  0.00    +0.000 C 
ATOM      2  O   UNL     1       1.140   9.995  18.040  0.00  0.00    +0.000 OA
ATOM      3  N   UNL     1       0.866   9.479  20.242  0.00  0.00    +0.000 N 
ATOM      4  H   UNL     1       0.949   8.782  20.976  0.00  0.00    +0.000 HD
ENDROOT
BRANCH   1   8
ATOM      5  C   UNL     1       3.686   5.649  18.610  0.00  0.00    +0.000 A 
ATOM      6  C   UNL     1       3.675   6.569  17.558  0.00  0.00    +0.000 A 
ATOM      7  C   UNL     1       2.928   7.751  17.650  0.00  0.00    +0.000 A 
ATOM      8  C   UNL     1       2.171   8.009  18.800  0.00  0.00    +0.000 A 
ATOM      9  C   UNL     1       2.142   7.059  19.827  0.00  0.00    +0.000 A 
ATOM     10  C   UNL     1       2.892   5.884  19.733  0.00  0.00    +0.000 A 
BRANCH   5  11
ATOM     11  O   UNL     1       4.490   4.553  18.438  0.00  0.00    +0.000 OA
BRANCH  11  12
ATOM     12  C   UNL     1       5.882   4.763  18.712  0.00  0.00    +0.000 C 
BRANCH  12  19
ATOM     13  C   UNL     1       5.799   3.549  15.704  0.00  0.00    +0.000 C 
ATOM     14  C   UNL     1       6.556   4.727  16.190  0.00  0.00    +0.000 A 
ATOM     15  N   UNL     1       7.297   5.450  15.343  0.00  0.00    +0.000 NA
ATOM     16  O   UNL     1       7.849   6.465  16.099  0.00  0.00    +0.000 OA
ATOM     17  C   UNL     1       7.435   6.350  17.388  0.00  0.00    +0.000 A 
ATOM     18  C   UNL     1       7.925   7.382  18.322  0.00  0.00    +0.000 C 
ATOM     19  C   UNL     1       6.605   5.255  17.510  0.00  0.00    +0.000 A 
ENDBRANCH  12  19
ENDBRANCH  11  12
ENDBRANCH   5  11
ENDBRANCH   1   8
BRANCH   3  20
ATOM     20  C   UNL     1      -0.033  10.589  20.515  0.00  0.00    +0.000 C 
BRANCH  20  21
ATOM     21  C   UNL     1       0.775  11.886  20.433  0.00  0.00    +0.000 C 
ATOM     22  O   UNL     1       1.490  12.226  21.375  0.00  0.00    +0.000 OA
ATOM     23  N   UNL     1       0.586  12.599  19.259  0.00  0.00    +0.000 N 
ATOM     24  H   UNL     1      -0.158  12.291  18.642  0.00  0.00    +0.000 HD
BRANCH  23  25
ATOM     25  C   UNL     1       1.244  13.802  18.913  0.00  0.00    +0.000 A 
ATOM     26  C   UNL     1       0.678  15.068  19.116  0.00  0.00    +0.000 A 
ATOM     27  C   UNL     1       1.355  16.230  18.732  0.00  0.00    +0.000 A 
ATOM     28  C   UNL     1       2.606  16.129  18.146  0.00  0.00    +0.000 A 
ATOM     29  F   UNL     1       3.247  17.242  17.766  0.00  0.00    +0.000 F 
ATOM     30  C   UNL     1       3.188  14.883  17.960  0.00  0.00    +0.000 A 
ATOM     31  F   UNL     1       4.399  14.785  17.393  0.00  0.00    +0.000 F 
ATOM     32  C   UNL     1       2.523  13.719  18.349  0.00  0.00    +0.000 A 
ENDBRANCH  23  25
ENDBRANCH  20  21
ENDBRANCH   3  20
TORSDOF 7
ENDMDL
MODEL 9
REMARK VINA RESULT:      -8.1      6.823      9.978
REMARK  Name = 
REMARK  9 active torsions:
REMARK  status: ('A' for Active; 'I' for Inactive)
REMARK    1  A    between atoms: C_1  and  C_2
REMARK    2  A    between atoms: C_5  and  C_6
REMARK    3  A    between atoms: C_7  and  C_8
REMARK    4  A    between atoms: C_8  and  O_9
REMARK    5  A    between atoms: O_9  and  C_10
REMARK    6  A    between atoms: C_13  and  C_14
REMARK    7  A    between atoms: N_16  and  C_17
REMARK    8  A    between atoms: C_17  and  C_18
REMARK    9  A    between atoms: N_20  and  C_21
REMARK                            x       y       z     vdW  Elec       q    Type
REMARK                         _______ _______ _______ _____ _____    ______ ____
ROOT
ATOM      1  C   UNL     1       8.174   8.746  18.049  0.00  0.00    +0.000 C 
ATOM      2  O   UNL     1       7.431   8.975  17.101  0.00  0.00    +0.000 OA
ATOM      3  N   UNL     1       8.363   7.485  18.552  0.00  0.00    +0.000 N 
ATOM      4  H   UNL     1       9.086   7.295  19.240  0.00  0.00    +0.000 HD
ENDROOT
BRANCH   1   8
ATOM      5  C   UNL     1      10.372  11.909  19.962  0.00  0.00    +0.000 A 
ATOM      6  C   UNL     1      10.485  11.736  18.579  0.00  0.00    +0.000 A 
ATOM      7  C   UNL     1       9.783  10.712  17.927  0.00  0.00    +0.000 A 
ATOM      8  C   UNL     1       8.973   9.842  18.668  0.00  0.00    +0.000 A 
ATOM      9  C   UNL     1       8.906   9.986  20.058  0.00  0.00    +0.000 A 
ATOM     10  C   UNL     1       9.604  11.011  20.703  0.00  0.00    +0.000 A 
BRANCH   5  11
ATOM     11  O   UNL     1      11.059  12.971  20.490  0.00  0.00    +0.000 OA
BRANCH  11  12
ATOM     12  C   UNL     1      10.256  14.104  20.847  0.00  0.00    +0.000 C 
BRANCH  12  19
ATOM     13  C   UNL     1       7.866  14.421  18.677  0.00  0.00    +0.000 C 
ATOM     14  C   UNL     1       9.107  15.224  18.789  0.00  0.00    +0.000 A 
ATOM     15  N   UNL     1       9.331  16.241  17.949  0.00  0.00    +0.000 NA
ATOM     16  O   UNL     1      10.545  16.778  18.327  0.00  0.00    +0.000 OA
ATOM     17  C   UNL     1      11.038  16.089  19.389  0.00  0.00    +0.000 A 
ATOM     18  C   UNL     1      12.329  16.561  19.926  0.00  0.00    +0.000 C 
ATOM     19  C   UNL     1      10.162  15.080  19.730  0.00  0.00    +0.000 A 
ENDBRANCH  12  19
ENDBRANCH  11  12
ENDBRANCH   5  11
ENDBRANCH   1   8
BRANCH   3  20
ATOM     20  C   UNL     1       7.737   6.320  17.947  0.00  0.00    +0.000 C 
BRANCH  20  21
ATOM     21  C   UNL     1       6.812   5.683  18.986  0.00  0.00    +0.000 C 
ATOM     22  O   UNL     1       7.211   5.504  20.137  0.00  0.00    +0.000 OA
ATOM     23  N   UNL     1       5.566   5.328  18.494  0.00  0.00    +0.000 N 
ATOM     24  H   UNL     1       5.430   5.377  17.490  0.00  0.00    +0.000 HD
BRANCH  23  25
ATOM     25  C   UNL     1       4.512   4.766  19.252  0.00  0.00    +0.000 A 
ATOM     26  C   UNL     1       4.440   3.402  19.569  0.00  0.00    +0.000 A 
ATOM     27  C   UNL     1       3.365   2.886  20.298  0.00  0.00    +0.000 A 
ATOM     28  C   UNL     1       2.355   3.737  20.718  0.00  0.00    +0.000 A 
ATOM     29  F   UNL     1       1.318   3.240  21.404  0.00  0.00    +0.000 F 
ATOM     30  C   UNL     1       2.425   5.094  20.431  0.00  0.00    +0.000 A 
ATOM     31  F   UNL     1       1.448   5.917  20.839  0.00  0.00    +0.000 F 
ATOM     32  C   UNL     1       3.500   5.618  19.712  0.00  0.00    +0.000 A 
ENDBRANCH  23  25
ENDBRANCH  20  21
ENDBRANCH   3  20
TORSDOF 7
ENDMDL
