MODEL 1
REMARK VINA RESULT:      -8.6      0.000      0.000
REMARK  Name = 
REMARK  5 active torsions:
REMARK  status: ('A' for Active; 'I' for Inactive)
REMARK    1  A    between atoms: C_2  and  C_11
REMARK    2  A    between atoms: N_3  and  C_4
REMARK    3  A    between atoms: C_4  and  C_5
REMARK    4  A    between atoms: C_16  and  S_17
REMARK    5  A    between atoms: S_17  and  N_20
REMARK                            x       y       z     vdW  Elec       q    Type
REMARK                         _______ _______ _______ _____ _____    ______ ____
ROOT
ATOM      1  C   UNL     1       2.733   7.523  18.384  0.00  0.00    +0.000 A 
ATOM      2  C   UNL     1       2.411   6.640  19.421  0.00  0.00    +0.000 A 
ATOM      3  C   UNL     1       3.163   5.482  19.622  0.00  0.00    +0.000 A 
ATOM      4  C   UNL     1       4.216   5.188  18.759  0.00  0.00    +0.000 A 
ATOM      5  F   UNL     1       4.942   4.086  18.994  0.00  0.00    +0.000 F 
ATOM      6  C   UNL     1       4.492   6.020  17.679  0.00  0.00    +0.000 A 
ATOM      7  C   UNL     1       3.773   7.211  17.496  0.00  0.00    +0.000 A 
ENDROOT
BRANCH   1   9
ATOM      8  O   UNL     1       2.122   9.523  17.331  0.00  0.00    +0.000 OA
ATOM      9  C   UNL     1       1.941   8.781  18.286  0.00  0.00    +0.000 C 
ATOM     10  N   UNL     1       1.055   9.038  19.299  0.00  0.00    +0.000 N 
ATOM     11  H   UNL     1       1.010   8.453  20.123  0.00  0.00    +0.000 HD
BRANCH  10  12
ATOM     12  C   UNL     1       0.250  10.240  19.297  0.00  0.00    +0.000 C 
BRANCH  12  13
ATOM     13  C   UNL     1      -0.321  10.510  20.663  0.00  0.00    +0.000 A 
ATOM     14  C   UNL     1      -0.097   9.618  21.720  0.00  0.00    +0.000 A 
ATOM     15  C   UNL     1      -0.604   9.888  22.992  0.00  0.00    +0.000 A 
ATOM     16  C   UNL     1      -1.346  11.048  23.216  0.00  0.00    +0.000 A 
ATOM     17  C   UNL     1      -1.595  11.930  22.167  0.00  0.00    +0.000 A 
ATOM     18  C   UNL     1      -1.093  11.658  20.893  0.00  0.00    +0.000 A 
ENDBRANCH  12  13
ENDBRANCH  10  12
ENDBRANCH   1   9
BRANCH   6  19
ATOM     19  S   UNL     1       5.533   5.412  16.386  0.00  0.00    +0.000 S 
ATOM     20  O   UNL     1       5.303   3.988  16.329  0.00  0.00    +0.000 OA
ATOM     21  O   UNL     1       5.305   6.237  15.215  0.00  0.00    +0.000 OA
BRANCH  19  22
ATOM     22  N   UNL     1       7.119   5.689  16.899  0.00  0.00    +0.000 NA
ATOM     23  C   UNL     1       7.726   4.792  17.899  0.00  0.00    +0.000 C 
ATOM     24  C   UNL     1       7.915   5.649  19.141  0.00  0.00    +0.000 C 
ATOM     25  C   UNL     1       8.137   7.052  18.614  0.00  0.00    +0.000 C 
ATOM     26  C   UNL     1       7.455   7.091  17.250  0.00  0.00    +0.000 C 
ENDBRANCH  19  22
ENDBRANCH   6  19
TORSDOF 5
ENDMDL
MODEL 2
REMARK VINA RESULT:      -8.3      1.904      2.511
REMARK  Name = 
REMARK  5 active torsions:
REMARK  status: ('A' for Active; 'I' for Inactive)
REMARK    1  A    between atoms: C_2  and  C_11
REMARK    2  A    between atoms: N_3  and  C_4
REMARK    3  A    between atoms: C_4  and  C_5
REMARK    4  A    between atoms: C_16  and  S_17
REMARK    5  A    between atoms: S_17  and  N_20
REMARK                            x       y       z     vdW  Elec       q    Type
REMARK                         _______ _______ _______ _____ _____    ______ ____
ROOT
ATOM      1  C   UNL     1       2.691   6.669  18.605  0.00  0.00    +0.000 A 
ATOM      2  C   UNL     1       2.119   5.409  18.820  0.00  0.00    +0.000 A 
ATOM      3  C   UNL     1       2.680   4.271  18.240  0.00  0.00    +0.000 A 
ATOM      4  C   UNL     1       3.793   4.397  17.412  0.00  0.00    +0.000 A 
ATOM      5  F   UNL     1       4.330   3.285  16.894  0.00  0.00    +0.000 F 
ATOM      6  C   UNL     1       4.318   5.655  17.131  0.00  0.00    +0.000 A 
ATOM      7  C   UNL     1       3.793   6.800  17.747  0.00  0.00    +0.000 A 
ENDROOT
BRANCH   1   9
ATOM      8  O   UNL     1       1.948   7.757  20.540  0.00  0.00    +0.000 OA
ATOM      9  C   UNL     1       2.090   7.825  19.327  0.00  0.00    +0.000 C 
ATOM     10  N   UNL     1       1.716   8.904  18.570  0.00  0.00    +0.000 N 
ATOM     11  H   UNL     1       1.754   8.879  17.560  0.00  0.00    +0.000 HD
BRANCH  10  12
ATOM     12  C   UNL     1       1.113  10.068  19.181  0.00  0.00    +0.000 C 
BRANCH  12  13
ATOM     13  C   UNL     1      -0.262  10.320  18.624  0.00  0.00    +0.000 A 
ATOM     14  C   UNL     1      -1.106  11.273  19.209  0.00  0.00    +0.000 A 
ATOM     15  C   UNL     1      -2.369  11.523  18.671  0.00  0.00    +0.000 A 
ATOM     16  C   UNL     1      -2.802  10.819  17.548  0.00  0.00    +0.000 A 
ATOM     17  C   UNL     1      -1.980   9.852  16.972  0.00  0.00    +0.000 A 
ATOM     18  C   UNL     1      -0.719   9.596  17.513  0.00  0.00    +0.000 A 
ENDBRANCH  12  13
ENDBRANCH  10  12
ENDBRANCH   1   9
BRANCH   6  19
ATOM     19  S   UNL     1       5.437   5.818  15.772  0.00  0.00    +0.000 S 
ATOM     20  O   UNL     1       5.300   4.609  14.997  0.00  0.00    +0.000 OA
ATOM     21  O   UNL     1       5.194   7.111  15.158  0.00  0.00    +0.000 OA
BRANCH  19  22
ATOM     22  N   UNL     1       6.985   5.863  16.448  0.00  0.00    +0.000 NA
ATOM     23  C   UNL     1       7.469   4.711  17.229  0.00  0.00    +0.000 C 
ATOM     24  C   UNL     1       7.589   5.219  18.657  0.00  0.00    +0.000 C 
ATOM     25  C   UNL     1       7.911   6.693  18.518  0.00  0.00    +0.000 C 
ATOM     26  C   UNL     1       7.348   7.111  17.165  0.00  0.00    +0.000 C 
ENDBRANCH  19  22
ENDBRANCH   6  19
TORSDOF 5
ENDMDL
MODEL 3
REMARK VINA RESULT:      -8.1      4.594      9.187
REMARK  Name = 
REMARK  5 active torsions:
REMARK  status: ('A' for Active; 'I' for Inactive)
REMARK    1  A    between atoms: C_2  and  C_11
REMARK    2  A    between atoms: N_3  and  C_4
REMARK    3  A    between atoms: C_4  and  C_5
REMARK    4  A    between atoms: C_16  and  S_17
REMARK    5  A    between atoms: S_17  and  N_20
REMARK                            x       y       z     vdW  Elec       q    Type
REMARK                         _______ _______ _______ _____ _____    ______ ____
ROOT
ATOM      1  C   UNL     1       5.349   5.428  16.177  0.00  0.00    +0.000 A 
ATOM      2  C   UNL     1       5.217   6.789  16.480  0.00  0.00    +0.000 A 
ATOM      3  C   UNL     1       4.257   7.218  17.397  0.00  0.00    +0.000 A 
ATOM      4  C   UNL     1       3.402   6.288  17.984  0.00  0.00    +0.000 A 
ATOM      5  F   UNL     1       2.511   6.723  18.885  0.00  0.00    +0.000 F 
ATOM      6  C   UNL     1       3.475   4.945  17.627  0.00  0.00    +0.000 A 
ATOM      7  C   UNL     1       4.467   4.496  16.744  0.00  0.00    +0.000 A 
ENDROOT
BRANCH   1   9
ATOM      8  O   UNL     1       7.498   4.614  15.730  0.00  0.00    +0.000 OA
ATOM      9  C   UNL     1       6.452   5.037  15.256  0.00  0.00    +0.000 C 
ATOM     10  N   UNL     1       6.227   5.192  13.914  0.00  0.00    +0.000 N 
ATOM     11  H   UNL     1       5.390   5.643  13.568  0.00  0.00    +0.000 HD
BRANCH  10  12
ATOM     12  C   UNL     1       7.244   4.851  12.943  0.00  0.00    +0.000 C 
BRANCH  12  13
ATOM     13  C   UNL     1       6.882   3.594  12.201  0.00  0.00    +0.000 A 
ATOM     14  C   UNL     1       5.548   3.170  12.122  0.00  0.00    +0.000 A 
ATOM     15  C   UNL     1       5.215   2.018  11.407  0.00  0.00    +0.000 A 
ATOM     16  C   UNL     1       6.211   1.277  10.772  0.00  0.00    +0.000 A 
ATOM     17  C   UNL     1       7.543   1.676  10.864  0.00  0.00    +0.000 A 
ATOM     18  C   UNL     1       7.879   2.824  11.584  0.00  0.00    +0.000 A 
ENDBRANCH  12  13
ENDBRANCH  10  12
ENDBRANCH   1   9
BRANCH   6  19
ATOM     19  S   UNL     1       2.129   3.882  18.056  0.00  0.00    +0.000 S 
ATOM     20  O   UNL     1       0.979   4.393  17.350  0.00  0.00    +0.000 OA
ATOM     21  O   UNL     1       2.567   2.514  17.846  0.00  0.00    +0.000 OA
BRANCH  19  22
ATOM     22  N   UNL     1       1.887   4.086  19.716  0.00  0.00    +0.000 NA
ATOM     23  C   UNL     1       3.029   3.950  20.637  0.00  0.00    +0.000 C 
ATOM     24  C   UNL     1       2.736   2.703  21.456  0.00  0.00    +0.000 C 
ATOM     25  C   UNL     1       1.224   2.633  21.527  0.00  0.00    +0.000 C 
ATOM     26  C   UNL     1       0.719   3.378  20.297  0.00  0.00    +0.000 C 
ENDBRANCH  19  22
ENDBRANCH   6  19
TORSDOF 5
ENDMDL
MODEL 4
REMARK VINA RESULT:      -8.1      1.803      2.564
REMARK  Name = 
REMARK  5 active torsions:
REMARK  status: ('A' for Active; 'I' for Inactive)
REMARK    1  A    between atoms: C_2  and  C_11
REMARK    2  A    between atoms: N_3  and  C_4
REMARK    3  A    between atoms: C_4  and  C_5
REMARK    4  A    between atoms: C_16  and  S_17
REMARK    5  A    between atoms: S_17  and  N_20
REMARK                            x       y       z     vdW  Elec       q    Type
REMARK                         _______ _______ _______ _____ _____    ______ ____
ROOT
ATOM      1  C   UNL     1       2.867   5.125  18.903  0.00  0.00    +0.000 A 
ATOM      2  C   UNL     1       2.594   3.767  18.698  0.00  0.00    +0.000 A 
ATOM      3  C   UNL     1       3.346   3.025  17.788  0.00  0.00    +0.000 A 
ATOM      4  C   UNL     1       4.350   3.651  17.052  0.00  0.00    +0.000 A 
ATOM      5  F   UNL     1       5.077   2.909  16.208  0.00  0.00    +0.000 F 
ATOM      6  C   UNL     1       4.573   5.018  17.193  0.00  0.00    +0.000 A 
ATOM      7  C   UNL     1       3.856   5.763  18.140  0.00  0.00    +0.000 A 
ENDROOT
BRANCH   1   9
ATOM      8  O   UNL     1       1.296   5.188  20.638  0.00  0.00    +0.000 OA
ATOM      9  C   UNL     1       2.081   5.830  19.954  0.00  0.00    +0.000 C 
ATOM     10  N   UNL     1       2.281   7.180  20.080  0.00  0.00    +0.000 N 
ATOM     11  H   UNL     1       2.861   7.690  19.427  0.00  0.00    +0.000 HD
BRANCH  10  12
ATOM     12  C   UNL     1       1.555   7.952  21.064  0.00  0.00    +0.000 C 
BRANCH  12  13
ATOM     13  C   UNL     1       0.855   9.119  20.426  0.00  0.00    +0.000 A 
ATOM     14  C   UNL     1       1.096   9.451  19.086  0.00  0.00    +0.000 A 
ATOM     15  C   UNL     1       0.421  10.518  18.490  0.00  0.00    +0.000 A 
ATOM     16  C   UNL     1      -0.494  11.266  19.230  0.00  0.00    +0.000 A 
ATOM     17  C   UNL     1      -0.724  10.960  20.569  0.00  0.00    +0.000 A 
ATOM     18  C   UNL     1      -0.046   9.897  21.168  0.00  0.00    +0.000 A 
ENDBRANCH  12  13
ENDBRANCH  10  12
ENDBRANCH   1   9
BRANCH   6  19
ATOM     19  S   UNL     1       5.539   5.847  15.966  0.00  0.00    +0.000 S 
ATOM     20  O   UNL     1       5.572   4.965  14.824  0.00  0.00    +0.000 OA
ATOM     21  O   UNL     1       5.018   7.195  15.835  0.00  0.00    +0.000 OA
BRANCH  19  22
ATOM     22  N   UNL     1       7.098   5.969  16.607  0.00  0.00    +0.000 NA
ATOM     23  C   UNL     1       7.605   4.903  17.490  0.00  0.00    +0.000 C 
ATOM     24  C   UNL     1       7.745   5.551  18.858  0.00  0.00    +0.000 C 
ATOM     25  C   UNL     1       8.052   7.006  18.568  0.00  0.00    +0.000 C 
ATOM     26  C   UNL     1       7.463   7.284  17.190  0.00  0.00    +0.000 C 
ENDBRANCH  19  22
ENDBRANCH   6  19
TORSDOF 5
ENDMDL
MODEL 5
REMARK VINA RESULT:      -8.0      4.524      9.092
REMARK  Name = 
REMARK  5 active torsions:
REMARK  status: ('A' for Active; 'I' for Inactive)
REMARK    1  A    between atoms: C_2  and  C_11
REMARK    2  A    between atoms: N_3  and  C_4
REMARK    3  A    between atoms: C_4  and  C_5
REMARK    4  A    between atoms: C_16  and  S_17
REMARK    5  A    between atoms: S_17  and  N_20
REMARK                            x       y       z     vdW  Elec       q    Type
REMARK                         _______ _______ _______ _____ _____    ______ ____
ROOT
ATOM      1  C   UNL     1       5.150   5.685  16.302  0.00  0.00    +0.000 A 
ATOM      2  C   UNL     1       4.871   7.023  16.606  0.00  0.00    +0.000 A 
ATOM      3  C   UNL     1       3.853   7.345  17.503  0.00  0.00    +0.000 A 
ATOM      4  C   UNL     1       3.086   6.329  18.068  0.00  0.00    +0.000 A 
ATOM      5  F   UNL     1       2.136   6.664  18.951  0.00  0.00    +0.000 F 
ATOM      6  C   UNL     1       3.306   5.002  17.709  0.00  0.00    +0.000 A 
ATOM      7  C   UNL     1       4.358   4.663  16.846  0.00  0.00    +0.000 A 
ENDROOT
BRANCH   1   9
ATOM      8  O   UNL     1       7.442   5.557  15.840  0.00  0.00    +0.000 OA
ATOM      9  C   UNL     1       6.308   5.414  15.404  0.00  0.00    +0.000 C 
ATOM     10  N   UNL     1       6.023   5.029  14.120  0.00  0.00    +0.000 N 
ATOM     11  H   UNL     1       5.074   5.024  13.769  0.00  0.00    +0.000 HD
BRANCH  10  12
ATOM     12  C   UNL     1       7.080   4.756  13.172  0.00  0.00    +0.000 C 
BRANCH  12  13
ATOM     13  C   UNL     1       6.746   3.564  12.318  0.00  0.00    +0.000 A 
ATOM     14  C   UNL     1       7.758   2.851  11.661  0.00  0.00    +0.000 A 
ATOM     15  C   UNL     1       7.445   1.728  10.893  0.00  0.00    +0.000 A 
ATOM     16  C   UNL     1       6.120   1.313  10.769  0.00  0.00    +0.000 A 
ATOM     17  C   UNL     1       5.104   2.029  11.399  0.00  0.00    +0.000 A 
ATOM     18  C   UNL     1       5.414   3.155  12.162  0.00  0.00    +0.000 A 
ENDBRANCH  12  13
ENDBRANCH  10  12
ENDBRANCH   1   9
BRANCH   6  19
ATOM     19  S   UNL     1       2.068   3.804  18.105  0.00  0.00    +0.000 S 
ATOM     20  O   UNL     1       0.889   4.193  17.370  0.00  0.00    +0.000 OA
ATOM     21  O   UNL     1       2.652   2.490  17.909  0.00  0.00    +0.000 OA
BRANCH  19  22
ATOM     22  N   UNL     1       1.765   3.979  19.758  0.00  0.00    +0.000 NA
ATOM     23  C   UNL     1       2.894   4.006  20.704  0.00  0.00    +0.000 C 
ATOM     24  C   UNL     1       2.758   2.733  21.525  0.00  0.00    +0.000 C 
ATOM     25  C   UNL     1       1.269   2.456  21.566  0.00  0.00    +0.000 C 
ATOM     26  C   UNL     1       0.693   3.119  20.320  0.00  0.00    +0.000 C 
ENDBRANCH  19  22
ENDBRANCH   6  19
TORSDOF 5
ENDMDL
MODEL 6
REMARK VINA RESULT:      -8.0      2.322      3.026
REMARK  Name = 
REMARK  5 active torsions:
REMARK  status: ('A' for Active; 'I' for Inactive)
REMARK    1  A    between atoms: C_2  and  C_11
REMARK    2  A    between atoms: N_3  and  C_4
REMARK    3  A    between atoms: C_4  and  C_5
REMARK    4  A    between atoms: C_16  and  S_17
REMARK    5  A    between atoms: S_17  and  N_20
REMARK                            x       y       z     vdW  Elec       q    Type
REMARK                         _______ _______ _______ _____ _____    ______ ____
ROOT
ATOM      1  C   UNL     1       2.315   7.304  18.987  0.00  0.00    +0.000 A 
ATOM      2  C   UNL     1       1.534   6.795  20.031  0.00  0.00    +0.000 A 
ATOM      3  C   UNL     1       1.869   5.585  20.639  0.00  0.00    +0.000 A 
ATOM      4  C   UNL     1       2.966   4.862  20.175  0.00  0.00    +0.000 A 
ATOM      5  F   UNL     1       3.284   3.719  20.797  0.00  0.00    +0.000 F 
ATOM      6  C   UNL     1       3.699   5.323  19.085  0.00  0.00    +0.000 A 
ATOM      7  C   UNL     1       3.401   6.562  18.499  0.00  0.00    +0.000 A 
ENDROOT
BRANCH   1   9
ATOM      8  O   UNL     1       2.444   9.013  17.392  0.00  0.00    +0.000 OA
ATOM      9  C   UNL     1       1.947   8.642  18.447  0.00  0.00    +0.000 C 
ATOM     10  N   UNL     1       1.072   9.393  19.187  0.00  0.00    +0.000 N 
ATOM     11  H   UNL     1       0.766   9.094  20.104  0.00  0.00    +0.000 HD
BRANCH  10  12
ATOM     12  C   UNL     1       0.665  10.710  18.751  0.00  0.00    +0.000 C 
BRANCH  12  13
ATOM     13  C   UNL     1      -0.803  10.742  18.423  0.00  0.00    +0.000 A 
ATOM     14  C   UNL     1      -1.344   9.856  17.482  0.00  0.00    +0.000 A 
ATOM     15  C   UNL     1      -2.711   9.871  17.203  0.00  0.00    +0.000 A 
ATOM     16  C   UNL     1      -3.548  10.775  17.857  0.00  0.00    +0.000 A 
ATOM     17  C   UNL     1      -3.017  11.676  18.777  0.00  0.00    +0.000 A 
ATOM     18  C   UNL     1      -1.649  11.667  19.053  0.00  0.00    +0.000 A 
ENDBRANCH  12  13
ENDBRANCH  10  12
ENDBRANCH   1   9
BRANCH   6  19
ATOM     19  S   UNL     1       4.795   4.201  18.269  0.00  0.00    +0.000 S 
ATOM     20  O   UNL     1       5.932   4.050  19.144  0.00  0.00    +0.000 OA
ATOM     21  O   UNL     1       4.018   3.041  17.873  0.00  0.00    +0.000 OA
BRANCH  19  22
ATOM     22  N   UNL     1       5.292   4.983  16.856  0.00  0.00    +0.000 NA
ATOM     23  C   UNL     1       4.844   4.472  15.548  0.00  0.00    +0.000 C 
ATOM     24  C   UNL     1       6.102   3.952  14.871  0.00  0.00    +0.000 C 
ATOM     25  C   UNL     1       7.220   4.820  15.412  0.00  0.00    +0.000 C 
ATOM     26  C   UNL     1       6.735   5.318  16.769  0.00  0.00    +0.000 C 
ENDBRANCH  19  22
ENDBRANCH   6  19
TORSDOF 5
ENDMDL
MODEL 7
REMARK VINA RESULT:      -7.9      2.794      3.930
REMARK  Name = 
REMARK  5 active torsions:
REMARK  status: ('A' for Active; 'I' for Inactive)
REMARK    1  A    between atoms: C_2  and  C_11
REMARK    2  A    between atoms: N_3  and  C_4
REMARK    3  A    between atoms: C_4  and  C_5
REMARK    4  A    between atoms: C_16  and  S_17
REMARK    5  A    between atoms: S_17  and  N_20
REMARK                            x       y       z     vdW  Elec       q    Type
REMARK                         _______ _______ _______ _____ _____    ______ ____
ROOT
ATOM      1  C   UNL     1       2.186   7.728  18.915  0.00  0.00    +0.000 A 
ATOM      2  C   UNL     1       1.613   7.280  20.111  0.00  0.00    +0.000 A 
ATOM      3  C   UNL     1       2.055   6.099  20.707  0.00  0.00    +0.000 A 
ATOM      4  C   UNL     1       3.046   5.344  20.086  0.00  0.00    +0.000 A 
ATOM      5  F   UNL     1       3.474   4.231  20.695  0.00  0.00    +0.000 F 
ATOM      6  C   UNL     1       3.564   5.741  18.856  0.00  0.00    +0.000 A 
ATOM      7  C   UNL     1       3.162   6.952  18.272  0.00  0.00    +0.000 A 
ENDROOT
BRANCH   1   9
ATOM      8  O   UNL     1       2.245   9.488  17.372  0.00  0.00    +0.000 OA
ATOM      9  C   UNL     1       1.724   9.041  18.385  0.00  0.00    +0.000 C 
ATOM     10  N   UNL     1       0.738   9.683  19.087  0.00  0.00    +0.000 N 
ATOM     11  H   UNL     1       0.408   9.331  19.976  0.00  0.00    +0.000 HD
BRANCH  10  12
ATOM     12  C   UNL     1       0.234  10.968  18.656  0.00  0.00    +0.000 C 
BRANCH  12  13
ATOM     13  C   UNL     1      -1.216  10.877  18.264  0.00  0.00    +0.000 A 
ATOM     14  C   UNL     1      -1.641   9.936  17.316  0.00  0.00    +0.000 A 
ATOM     15  C   UNL     1      -2.991   9.836  16.977  0.00  0.00    +0.000 A 
ATOM     16  C   UNL     1      -3.926  10.679  17.577  0.00  0.00    +0.000 A 
ATOM     17  C   UNL     1      -3.512  11.633  18.503  0.00  0.00    +0.000 A 
ATOM     18  C   UNL     1      -2.161  11.739  18.839  0.00  0.00    +0.000 A 
ENDBRANCH  12  13
ENDBRANCH  10  12
ENDBRANCH   1   9
BRANCH   6  19
ATOM     19  S   UNL     1       4.489   4.569  17.910  0.00  0.00    +0.000 S 
ATOM     20  O   UNL     1       4.869   5.251  16.696  0.00  0.00    +0.000 OA
ATOM     21  O   UNL     1       5.503   4.006  18.781  0.00  0.00    +0.000 OA
BRANCH  19  22
ATOM     22  N   UNL     1       3.408   3.328  17.524  0.00  0.00    +0.000 NA
ATOM     23  C   UNL     1       1.984   3.645  17.318  0.00  0.00    +0.000 C 
ATOM     24  C   UNL     1       1.255   2.974  18.472  0.00  0.00    +0.000 C 
ATOM     25  C   UNL     1       2.096   1.759  18.807  0.00  0.00    +0.000 C 
ATOM     26  C   UNL     1       3.509   2.097  18.346  0.00  0.00    +0.000 C 
ENDBRANCH  19  22
ENDBRANCH   6  19
TORSDOF 5
ENDMDL
MODEL 8
REMARK VINA RESULT:      -7.7      4.489      9.031
REMARK  Name = 
REMARK  5 active torsions:
REMARK  status: ('A' for Active; 'I' for Inactive)
REMARK    1  A    between atoms: C_2  and  C_11
REMARK    2  A    between atoms: N_3  and  C_4
REMARK    3  A    between atoms: C_4  and  C_5
REMARK    4  A    between atoms: C_16  and  S_17
REMARK    5  A    between atoms: S_17  and  N_20
REMARK                            x       y       z     vdW  Elec       q    Type
REMARK                         _______ _______ _______ _____ _____    ______ ____
ROOT
ATOM      1  C   UNL     1       0.797   9.464  20.790  0.00  0.00    +0.000 A 
ATOM      2  C   UNL     1       0.309   8.873  21.962  0.00  0.00    +0.000 A 
ATOM      3  C   UNL     1      -0.445   9.620  22.867  0.00  0.00    +0.000 A 
ATOM      4  C   UNL     1      -0.678  10.971  22.619  0.00  0.00    +0.000 A 
ATOM      5  F   UNL     1      -1.431  11.657  23.489  0.00  0.00    +0.000 F 
ATOM      6  C   UNL     1      -0.128  11.583  21.497  0.00  0.00    +0.000 A 
ATOM      7  C   UNL     1       0.590  10.831  20.555  0.00  0.00    +0.000 A 
ENDROOT
BRANCH   1   9
ATOM      8  O   UNL     1       1.529   8.882  18.643  0.00  0.00    +0.000 OA
ATOM      9  C   UNL     1       1.518   8.582  19.829  0.00  0.00    +0.000 C 
ATOM     10  N   UNL     1       2.121   7.464  20.342  0.00  0.00    +0.000 N 
ATOM     11  H   UNL     1       2.000   7.197  21.310  0.00  0.00    +0.000 HD
BRANCH  10  12
ATOM     12  C   UNL     1       2.833   6.542  19.486  0.00  0.00    +0.000 C 
BRANCH  12  13
ATOM     13  C   UNL     1       2.160   5.197  19.460  0.00  0.00    +0.000 A 
ATOM     14  C   UNL     1       1.675   4.619  20.640  0.00  0.00    +0.000 A 
ATOM     15  C   UNL     1       1.026   3.384  20.606  0.00  0.00    +0.000 A 
ATOM     16  C   UNL     1       0.861   2.714  19.394  0.00  0.00    +0.000 A 
ATOM     17  C   UNL     1       1.360   3.269  18.218  0.00  0.00    +0.000 A 
ATOM     18  C   UNL     1       2.015   4.501  18.251  0.00  0.00    +0.000 A 
ENDBRANCH  12  13
ENDBRANCH  10  12
ENDBRANCH   1   9
BRANCH   6  19
ATOM     19  S   UNL     1      -0.084  13.349  21.434  0.00  0.00    +0.000 S 
ATOM     20  O   UNL     1       0.118  13.790  22.793  0.00  0.00    +0.000 OA
ATOM     21  O   UNL     1       0.857  13.727  20.395  0.00  0.00    +0.000 OA
BRANCH  19  22
ATOM     22  N   UNL     1      -1.620  13.834  20.925  0.00  0.00    +0.000 NA
ATOM     23  C   UNL     1      -2.571  14.383  21.908  0.00  0.00    +0.000 C 
ATOM     24  C   UNL     1      -3.689  13.357  21.998  0.00  0.00    +0.000 C 
ATOM     25  C   UNL     1      -3.741  12.719  20.625  0.00  0.00    +0.000 C 
ATOM     26  C   UNL     1      -2.344  12.887  20.041  0.00  0.00    +0.000 C 
ENDBRANCH  19  22
ENDBRANCH   6  19
TORSDOF 5
ENDMDL
MODEL 9
REMARK VINA RESULT:      -7.7      1.771      2.240
REMARK  Name = 
REMARK  5 active torsions:
REMARK  status: ('A' for Active; 'I' for Inactive)
REMARK    1  A    between atoms: C_2  and  C_11
REMARK    2  A    between atoms: N_3  and  C_4
REMARK    3  A    between atoms: C_4  and  C_5
REMARK    4  A    between atoms: C_16  and  S_17
REMARK    5  A    between atoms: S_17  and  N_20
REMARK                            x       y       z     vdW  Elec       q    Type
REMARK                         _______ _______ _______ _____ _____    ______ ____
ROOT
ATOM      1  C   UNL     1       2.322   6.920  19.446  0.00  0.00    +0.000 A 
ATOM      2  C   UNL     1       1.566   6.270  20.429  0.00  0.00    +0.000 A 
ATOM      3  C   UNL     1       1.916   4.990  20.857  0.00  0.00    +0.000 A 
ATOM      4  C   UNL     1       3.003   4.342  20.274  0.00  0.00    +0.000 A 
ATOM      5  F   UNL     1       3.336   3.126  20.726  0.00  0.00    +0.000 F 
ATOM      6  C   UNL     1       3.710   4.950  19.241  0.00  0.00    +0.000 A 
ATOM      7  C   UNL     1       3.397   6.256  18.836  0.00  0.00    +0.000 A 
ENDROOT
BRANCH   1   9
ATOM      8  O   UNL     1       2.325   8.795  18.044  0.00  0.00    +0.000 OA
ATOM      9  C   UNL     1       1.940   8.318  19.102  0.00  0.00    +0.000 C 
ATOM     10  N   UNL     1       1.181   8.999  20.018  0.00  0.00    +0.000 N 
ATOM     11  H   UNL     1       0.972   8.605  20.926  0.00  0.00    +0.000 HD
BRANCH  10  12
ATOM     12  C   UNL     1       0.772  10.365  19.779  0.00  0.00    +0.000 C 
BRANCH  12  13
ATOM     13  C   UNL     1      -0.075  10.882  20.910  0.00  0.00    +0.000 A 
ATOM     14  C   UNL     1      -0.290  10.103  22.055  0.00  0.00    +0.000 A 
ATOM     15  C   UNL     1      -1.052  10.599  23.113  0.00  0.00    +0.000 A 
ATOM     16  C   UNL     1      -1.612  11.874  23.034  0.00  0.00    +0.000 A 
ATOM     17  C   UNL     1      -1.424  12.648  21.891  0.00  0.00    +0.000 A 
ATOM     18  C   UNL     1      -0.667  12.151  20.829  0.00  0.00    +0.000 A 
ENDBRANCH  12  13
ENDBRANCH  10  12
ENDBRANCH   1   9
BRANCH   6  19
ATOM     19  S   UNL     1       4.787   3.955  18.254  0.00  0.00    +0.000 S 
ATOM     20  O   UNL     1       5.983   3.765  19.040  0.00  0.00    +0.000 OA
ATOM     21  O   UNL     1       4.025   2.809  17.794  0.00  0.00    +0.000 OA
BRANCH  19  22
ATOM     22  N   UNL     1       5.167   4.887  16.897  0.00  0.00    +0.000 NA
ATOM     23  C   UNL     1       4.829   4.384  15.554  0.00  0.00    +0.000 C 
ATOM     24  C   UNL     1       6.166   4.118  14.879  0.00  0.00    +0.000 C 
ATOM     25  C   UNL     1       7.116   5.127  15.491  0.00  0.00    +0.000 C 
ATOM     26  C   UNL     1       6.535   5.461  16.861  0.00  0.00    +0.000 C 
ENDBRANCH  19  22
ENDBRANCH   6  19
TORSDOF 5
ENDMDL
