MODEL 1
REMARK VINA RESULT:      -8.5      0.000      0.000
REMARK  Name = 
REMARK  6 active torsions:
REMARK  status: ('A' for Active; 'I' for Inactive)
REMARK    1  A    between atoms: C_2  and  OXT_3
REMARK    2  A    between atoms: C_2  and  CA_4
REMARK    3  A    between atoms: CA_4  and  CB_5
REMARK    4  A    between atoms: CA_4  and  N_15
REMARK    5  A    between atoms: CB_5  and  CG_6
REMARK    6  A    between atoms: C_16  and  C_18
REMARK                            x       y       z     vdW  Elec       q    Type
REMARK                         _______ _______ _______ _____ _____    ______ ____
ROOT
ATOM      1  CA  TRP A   1       4.748   6.421  17.537  0.00  0.00    +0.000 C 
ENDROOT
BRANCH   1   2
ATOM      2  N   TRP A   1       4.457   4.981  17.670  0.00  0.00    +0.000 N 
ATOM      3  C   UNK A   0       5.218   4.120  18.423  0.00  0.00    +0.000 C 
ATOM      4  O   UNK A   0       6.334   4.456  18.821  0.00  0.00    +0.000 OA
ATOM      5  H   TRP A   1       3.491   4.687  17.529  0.00  0.00    +0.000 HD
BRANCH   3   6
ATOM      6  C   UNK A   0       4.659   2.699  18.590  0.00  0.00    +0.000 C 
ATOM      7  C   UNK A   0       4.609   2.282  20.064  0.00  0.00    +0.000 C 
ATOM      8  C   UNK A   0       3.180   2.571  20.327  0.00  0.00    +0.000 A 
ATOM      9  C   UNK A   0       2.498   2.662  21.526  0.00  0.00    +0.000 A 
ATOM     10  C   UNK A   0       1.130   2.938  21.482  0.00  0.00    +0.000 A 
ATOM     11  C   UNK A   0       0.467   3.101  20.252  0.00  0.00    +0.000 A 
ATOM     12  C   UNK A   0       1.163   2.983  19.052  0.00  0.00    +0.000 A 
ATOM     13  C   UNK A   0       2.515   2.722  19.120  0.00  0.00    +0.000 A 
ATOM     14  O   UNK A   0       3.328   2.611  18.024  0.00  0.00    +0.000 OA
ENDBRANCH   3   6
ENDBRANCH   1   2
BRANCH   1  16
ATOM     15  O   TRP A   1       5.267   6.744  15.166  0.00  0.00    +0.000 OA
ATOM     16  C   TRP A   1       5.657   6.728  16.326  0.00  0.00    +0.000 C 
BRANCH  16  17
ATOM     17  OXT TRP A   1       6.923   7.103  16.628  0.00  0.00    +0.000 OA
ATOM     18  HXT TRP A   1       6.950   7.811  17.314  0.00  0.00    +0.000 HD
ENDBRANCH  16  17
ENDBRANCH   1  16
BRANCH   1  19
ATOM     19  CB  TRP A   1       3.457   7.260  17.396  0.00  0.00    +0.000 C 
BRANCH  19  20
ATOM     20  CG  TRP A   1       2.697   7.434  18.681  0.00  0.00    +0.000 A 
ATOM     21  CD1 TRP A   1       2.694   6.557  19.750  0.00  0.00    +0.000 A 
ATOM     22  NE1 TRP A   1       1.855   7.049  20.713  0.00  0.00    +0.000 N 
ATOM     23  CE2 TRP A   1       1.308   8.241  20.302  0.00  0.00    +0.000 A 
ATOM     24  CZ2 TRP A   1       0.376   9.069  20.942  0.00  0.00    +0.000 A 
ATOM     25  CH2 TRP A   1       0.005  10.249  20.294  0.00  0.00    +0.000 A 
ATOM     26  CZ3 TRP A   1       0.573  10.601  19.073  0.00  0.00    +0.000 A 
ATOM     27  CE3 TRP A   1       1.500   9.759  18.445  0.00  0.00    +0.000 A 
ATOM     28  CD2 TRP A   1       1.858   8.538  19.055  0.00  0.00    +0.000 A 
ATOM     29  HE1 TRP A   1       1.660   6.606  21.600  0.00  0.00    +0.000 HD
ENDBRANCH  19  20
ENDBRANCH   1  19
TORSDOF 6
ENDMDL
MODEL 2
REMARK VINA RESULT:      -8.1      2.639      5.412
REMARK  Name = 
REMARK  6 active torsions:
REMARK  status: ('A' for Active; 'I' for Inactive)
REMARK    1  A    between atoms: C_2  and  OXT_3
REMARK    2  A    between atoms: C_2  and  CA_4
REMARK    3  A    between atoms: CA_4  and  CB_5
REMARK    4  A    between atoms: CA_4  and  N_15
REMARK    5  A    between atoms: CB_5  and  CG_6
REMARK    6  A    between atoms: C_16  and  C_18
REMARK                            x       y       z     vdW  Elec       q    Type
REMARK                         _______ _______ _______ _____ _____    ______ ____
ROOT
ATOM      1  CA  TRP A   1       2.877   5.656  17.734  0.00  0.00    +0.000 C 
ENDROOT
BRANCH   1   2
ATOM      2  N   TRP A   1       4.104   4.967  17.292  0.00  0.00    +0.000 N 
ATOM      3  C   UNK A   0       5.107   5.585  16.585  0.00  0.00    +0.000 C 
ATOM      4  O   UNK A   0       4.919   6.682  16.060  0.00  0.00    +0.000 OA
ATOM      5  H   TRP A   1       4.397   4.150  17.828  0.00  0.00    +0.000 HD
BRANCH   3   6
ATOM      6  C   UNK A   0       6.385   4.759  16.372  0.00  0.00    +0.000 C 
ATOM      7  C   UNK A   0       6.087   3.433  15.662  0.00  0.00    +0.000 C 
ATOM      8  C   UNK A   0       6.453   3.834  14.282  0.00  0.00    +0.000 A 
ATOM      9  C   UNK A   0       6.199   3.206  13.078  0.00  0.00    +0.000 A 
ATOM     10  C   UNK A   0       6.679   3.807  11.912  0.00  0.00    +0.000 A 
ATOM     11  C   UNK A   0       7.411   5.005  11.969  0.00  0.00    +0.000 A 
ATOM     12  C   UNK A   0       7.680   5.613  13.192  0.00  0.00    +0.000 A 
ATOM     13  C   UNK A   0       7.187   5.010  14.329  0.00  0.00    +0.000 A 
ATOM     14  O   UNK A   0       7.347   5.511  15.593  0.00  0.00    +0.000 OA
ENDBRANCH   3   6
ENDBRANCH   1   2
BRANCH   1  16
ATOM     15  O   TRP A   1       1.503   4.579  19.450  0.00  0.00    +0.000 OA
ATOM     16  C   TRP A   1       1.811   4.674  18.270  0.00  0.00    +0.000 C 
BRANCH  16  17
ATOM     17  OXT TRP A   1       1.131   3.981  17.326  0.00  0.00    +0.000 OA
ATOM     18  HXT TRP A   1       1.343   3.019  17.341  0.00  0.00    +0.000 HD
ENDBRANCH  16  17
ENDBRANCH   1  16
BRANCH   1  19
ATOM     19  CB  TRP A   1       3.167   6.701  18.835  0.00  0.00    +0.000 C 
BRANCH  19  20
ATOM     20  CG  TRP A   1       2.310   7.934  18.751  0.00  0.00    +0.000 A 
ATOM     21  CD1 TRP A   1       2.147   8.737  17.638  0.00  0.00    +0.000 A 
ATOM     22  NE1 TRP A   1       1.320   9.776  17.970  0.00  0.00    +0.000 N 
ATOM     23  CE2 TRP A   1       0.929   9.671  19.283  0.00  0.00    +0.000 A 
ATOM     24  CZ2 TRP A   1       0.125  10.523  20.052  0.00  0.00    +0.000 A 
ATOM     25  CH2 TRP A   1      -0.131  10.155  21.374  0.00  0.00    +0.000 A 
ATOM     26  CZ3 TRP A   1       0.369   8.964  21.893  0.00  0.00    +0.000 A 
ATOM     27  CE3 TRP A   1       1.175   8.125  21.111  0.00  0.00    +0.000 A 
ATOM     28  CD2 TRP A   1       1.488   8.496  19.786  0.00  0.00    +0.000 A 
ATOM     29  HE1 TRP A   1       1.036  10.519  17.347  0.00  0.00    +0.000 HD
ENDBRANCH  19  20
ENDBRANCH   1  19
TORSDOF 6
ENDMDL
MODEL 3
REMARK VINA RESULT:      -8.1      2.840      6.147
REMARK  Name = 
REMARK  6 active torsions:
REMARK  status: ('A' for Active; 'I' for Inactive)
REMARK    1  A    between atoms: C_2  and  OXT_3
REMARK    2  A    between atoms: C_2  and  CA_4
REMARK    3  A    between atoms: CA_4  and  CB_5
REMARK    4  A    between atoms: CA_4  and  N_15
REMARK    5  A    between atoms: CB_5  and  CG_6
REMARK    6  A    between atoms: C_16  and  C_18
REMARK                            x       y       z     vdW  Elec       q    Type
REMARK                         _______ _______ _______ _____ _____    ______ ____
ROOT
ATOM      1  CA  TRP A   1       6.726   6.750  17.293  0.00  0.00    +0.000 C 
ENDROOT
BRANCH   1   2
ATOM      2  N   TRP A   1       5.570   6.451  18.160  0.00  0.00    +0.000 N 
ATOM      3  C   UNK A   0       4.273   6.757  17.824  0.00  0.00    +0.000 C 
ATOM      4  O   UNK A   0       4.032   7.528  16.895  0.00  0.00    +0.000 OA
ATOM      5  H   TRP A   1       5.671   5.683  18.823  0.00  0.00    +0.000 HD
BRANCH   3   6
ATOM      6  C   UNK A   0       3.189   6.208  18.764  0.00  0.00    +0.000 C 
ATOM      7  C   UNK A   0       2.123   5.418  17.996  0.00  0.00    +0.000 C 
ATOM      8  C   UNK A   0       2.637   4.051  18.249  0.00  0.00    +0.000 A 
ATOM      9  C   UNK A   0       2.304   2.852  17.648  0.00  0.00    +0.000 A 
ATOM     10  C   UNK A   0       2.943   1.694  18.098  0.00  0.00    +0.000 A 
ATOM     11  C   UNK A   0       3.882   1.750  19.143  0.00  0.00    +0.000 A 
ATOM     12  C   UNK A   0       4.189   2.963  19.755  0.00  0.00    +0.000 A 
ATOM     13  C   UNK A   0       3.555   4.094  19.287  0.00  0.00    +0.000 A 
ATOM     14  O   UNK A   0       3.781   5.354  19.773  0.00  0.00    +0.000 OA
ENDBRANCH   3   6
ENDBRANCH   1   2
BRANCH   1  16
ATOM     15  O   TRP A   1       7.809   8.908  17.699  0.00  0.00    +0.000 OA
ATOM     16  C   TRP A   1       7.729   7.716  17.963  0.00  0.00    +0.000 C 
BRANCH  16  17
ATOM     17  OXT TRP A   1       8.461   7.187  18.972  0.00  0.00    +0.000 OA
ATOM     18  HXT TRP A   1       8.309   6.219  19.080  0.00  0.00    +0.000 HD
ENDBRANCH  16  17
ENDBRANCH   1  16
BRANCH   1  19
ATOM     19  CB  TRP A   1       7.489   5.468  16.888  0.00  0.00    +0.000 C 
BRANCH  19  20
ATOM     20  CG  TRP A   1       6.796   4.652  15.832  0.00  0.00    +0.000 A 
ATOM     21  CD1 TRP A   1       5.813   3.704  16.051  0.00  0.00    +0.000 A 
ATOM     22  NE1 TRP A   1       5.462   3.157  14.846  0.00  0.00    +0.000 N 
ATOM     23  CE2 TRP A   1       6.192   3.732  13.833  0.00  0.00    +0.000 A 
ATOM     24  CZ2 TRP A   1       6.192   3.456  12.459  0.00  0.00    +0.000 A 
ATOM     25  CH2 TRP A   1       7.033   4.219  11.645  0.00  0.00    +0.000 A 
ATOM     26  CZ3 TRP A   1       7.812   5.240  12.183  0.00  0.00    +0.000 A 
ATOM     27  CE3 TRP A   1       7.803   5.498  13.560  0.00  0.00    +0.000 A 
ATOM     28  CD2 TRP A   1       6.999   4.712  14.411  0.00  0.00    +0.000 A 
ATOM     29  HE1 TRP A   1       4.769   2.434  14.712  0.00  0.00    +0.000 HD
ENDBRANCH  19  20
ENDBRANCH   1  19
TORSDOF 6
ENDMDL
MODEL 4
REMARK VINA RESULT:      -8.0      1.176      1.846
REMARK  Name = 
REMARK  6 active torsions:
REMARK  status: ('A' for Active; 'I' for Inactive)
REMARK    1  A    between atoms: C_2  and  OXT_3
REMARK    2  A    between atoms: C_2  and  CA_4
REMARK    3  A    between atoms: CA_4  and  CB_5
REMARK    4  A    between atoms: CA_4  and  N_15
REMARK    5  A    between atoms: CB_5  and  CG_6
REMARK    6  A    between atoms: C_16  and  C_18
REMARK                            x       y       z     vdW  Elec       q    Type
REMARK                         _______ _______ _______ _____ _____    ______ ____
ROOT
ATOM      1  CA  TRP A   1       5.263   6.463  17.628  0.00  0.00    +0.000 C 
ENDROOT
BRANCH   1   2
ATOM      2  N   TRP A   1       5.037   5.013  17.783  0.00  0.00    +0.000 N 
ATOM      3  C   UNK A   0       5.417   4.301  18.895  0.00  0.00    +0.000 C 
ATOM      4  O   UNK A   0       6.197   4.789  19.714  0.00  0.00    +0.000 OA
ATOM      5  H   TRP A   1       4.268   4.603  17.254  0.00  0.00    +0.000 HD
BRANCH   3   6
ATOM      6  C   UNK A   0       4.938   2.843  18.955  0.00  0.00    +0.000 C 
ATOM      7  C   UNK A   0       4.649   2.403  20.395  0.00  0.00    +0.000 C 
ATOM      8  C   UNK A   0       3.179   2.590  20.393  0.00  0.00    +0.000 A 
ATOM      9  C   UNK A   0       2.286   2.617  21.448  0.00  0.00    +0.000 A 
ATOM     10  C   UNK A   0       0.933   2.798  21.155  0.00  0.00    +0.000 A 
ATOM     11  C   UNK A   0       0.496   2.933  19.825  0.00  0.00    +0.000 A 
ATOM     12  C   UNK A   0       1.405   2.879  18.772  0.00  0.00    +0.000 A 
ATOM     13  C   UNK A   0       2.737   2.711  19.085  0.00  0.00    +0.000 A 
ATOM     14  O   UNK A   0       3.741   2.672  18.156  0.00  0.00    +0.000 OA
ENDBRANCH   3   6
ENDBRANCH   1   2
BRANCH   1  16
ATOM     15  O   TRP A   1       7.145   6.045  16.119  0.00  0.00    +0.000 OA
ATOM     16  C   TRP A   1       6.609   6.779  16.940  0.00  0.00    +0.000 C 
BRANCH  16  17
ATOM     17  OXT TRP A   1       7.130   7.999  17.211  0.00  0.00    +0.000 OA
ATOM     18  HXT TRP A   1       7.790   8.284  16.537  0.00  0.00    +0.000 HD
ENDBRANCH  16  17
ENDBRANCH   1  16
BRANCH   1  19
ATOM     19  CB  TRP A   1       4.135   7.138  16.816  0.00  0.00    +0.000 C 
BRANCH  19  20
ATOM     20  CG  TRP A   1       3.170   7.934  17.651  0.00  0.00    +0.000 A 
ATOM     21  CD1 TRP A   1       2.735   9.220  17.387  0.00  0.00    +0.000 A 
ATOM     22  NE1 TRP A   1       1.894   9.608  18.395  0.00  0.00    +0.000 N 
ATOM     23  CE2 TRP A   1       1.760   8.598  19.317  0.00  0.00    +0.000 A 
ATOM     24  CZ2 TRP A   1       1.037   8.568  20.517  0.00  0.00    +0.000 A 
ATOM     25  CH2 TRP A   1       1.062   7.385  21.259  0.00  0.00    +0.000 A 
ATOM     26  CZ3 TRP A   1       1.752   6.268  20.798  0.00  0.00    +0.000 A 
ATOM     27  CE3 TRP A   1       2.473   6.317  19.598  0.00  0.00    +0.000 A 
ATOM     28  CD2 TRP A   1       2.504   7.514  18.851  0.00  0.00    +0.000 A 
ATOM     29  HE1 TRP A   1       1.435  10.506  18.460  0.00  0.00    +0.000 HD
ENDBRANCH  19  20
ENDBRANCH   1  19
TORSDOF 6
ENDMDL
MODEL 5
REMARK VINA RESULT:      -7.9      1.956      4.961
REMARK  Name = 
REMARK  6 active torsions:
REMARK  status: ('A' for Active; 'I' for Inactive)
REMARK    1  A    between atoms: C_2  and  OXT_3
REMARK    2  A    between atoms: C_2  and  CA_4
REMARK    3  A    between atoms: CA_4  and  CB_5
REMARK    4  A    between atoms: CA_4  and  N_15
REMARK    5  A    between atoms: CB_5  and  CG_6
REMARK    6  A    between atoms: C_16  and  C_18
REMARK                            x       y       z     vdW  Elec       q    Type
REMARK                         _______ _______ _______ _____ _____    ______ ____
ROOT
ATOM      1  CA  TRP A   1       1.978   4.366  20.063  0.00  0.00    +0.000 C 
ENDROOT
BRANCH   1   2
ATOM      2  N   TRP A   1       3.151   3.862  19.324  0.00  0.00    +0.000 N 
ATOM      3  C   UNK A   0       3.285   3.956  17.960  0.00  0.00    +0.000 C 
ATOM      4  O   UNK A   0       2.316   4.236  17.253  0.00  0.00    +0.000 OA
ATOM      5  H   TRP A   1       4.030   3.793  19.837  0.00  0.00    +0.000 HD
BRANCH   3   6
ATOM      6  C   UNK A   0       4.650   3.542  17.389  0.00  0.00    +0.000 C 
ATOM      7  C   UNK A   0       5.052   4.417  16.196  0.00  0.00    +0.000 C 
ATOM      8  C   UNK A   0       5.950   5.359  16.906  0.00  0.00    +0.000 A 
ATOM      9  C   UNK A   0       6.475   6.569  16.491  0.00  0.00    +0.000 A 
ATOM     10  C   UNK A   0       7.318   7.252  17.370  0.00  0.00    +0.000 A 
ATOM     11  C   UNK A   0       7.633   6.714  18.630  0.00  0.00    +0.000 A 
ATOM     12  C   UNK A   0       7.115   5.482  19.024  0.00  0.00    +0.000 A 
ATOM     13  C   UNK A   0       6.276   4.831  18.145  0.00  0.00    +0.000 A 
ATOM     14  O   UNK A   0       5.673   3.632  18.411  0.00  0.00    +0.000 OA
ENDBRANCH   3   6
ENDBRANCH   1   2
BRANCH   1  16
ATOM     15  O   TRP A   1       1.473   2.901  21.959  0.00  0.00    +0.000 OA
ATOM     16  C   TRP A   1       1.225   3.242  20.810  0.00  0.00    +0.000 C 
BRANCH  16  17
ATOM     17  OXT TRP A   1       0.168   2.712  20.150  0.00  0.00    +0.000 OA
ATOM     18  HXT TRP A   1       0.237   2.830  19.174  0.00  0.00    +0.000 HD
ENDBRANCH  16  17
ENDBRANCH   1  16
BRANCH   1  19
ATOM     19  CB  TRP A   1       2.368   5.452  21.092  0.00  0.00    +0.000 C 
BRANCH  19  20
ATOM     20  CG  TRP A   1       1.812   6.815  20.785  0.00  0.00    +0.000 A 
ATOM     21  CD1 TRP A   1       0.958   7.545  21.590  0.00  0.00    +0.000 A 
ATOM     22  NE1 TRP A   1       0.651   8.715  20.949  0.00  0.00    +0.000 N 
ATOM     23  CE2 TRP A   1       1.294   8.774  19.735  0.00  0.00    +0.000 A 
ATOM     24  CZ2 TRP A   1       1.241   9.757  18.738  0.00  0.00    +0.000 A 
ATOM     25  CH2 TRP A   1       2.025   9.565  17.598  0.00  0.00    +0.000 A 
ATOM     26  CZ3 TRP A   1       2.853   8.453  17.479  0.00  0.00    +0.000 A 
ATOM     27  CE3 TRP A   1       2.890   7.477  18.484  0.00  0.00    +0.000 A 
ATOM     28  CD2 TRP A   1       2.073   7.622  19.626  0.00  0.00    +0.000 A 
ATOM     29  HE1 TRP A   1       0.041   9.435  21.308  0.00  0.00    +0.000 HD
ENDBRANCH  19  20
ENDBRANCH   1  19
TORSDOF 6
ENDMDL
MODEL 6
REMARK VINA RESULT:      -7.9      2.917      6.076
REMARK  Name = 
REMARK  6 active torsions:
REMARK  status: ('A' for Active; 'I' for Inactive)
REMARK    1  A    between atoms: C_2  and  OXT_3
REMARK    2  A    between atoms: C_2  and  CA_4
REMARK    3  A    between atoms: CA_4  and  CB_5
REMARK    4  A    between atoms: CA_4  and  N_15
REMARK    5  A    between atoms: CB_5  and  CG_6
REMARK    6  A    between atoms: C_16  and  C_18
REMARK                            x       y       z     vdW  Elec       q    Type
REMARK                         _______ _______ _______ _____ _____    ______ ____
ROOT
ATOM      1  CA  TRP A   1       7.064   6.399  17.327  0.00  0.00    +0.000 C 
ENDROOT
BRANCH   1   2
ATOM      2  N   TRP A   1       5.627   6.581  17.604  0.00  0.00    +0.000 N 
ATOM      3  C   UNK A   0       4.967   5.948  18.630  0.00  0.00    +0.000 C 
ATOM      4  O   UNK A   0       5.484   4.996  19.214  0.00  0.00    +0.000 OA
ATOM      5  H   TRP A   1       5.201   7.454  17.294  0.00  0.00    +0.000 HD
BRANCH   3   6
ATOM      6  C   UNK A   0       3.519   6.400  18.876  0.00  0.00    +0.000 C 
ATOM      7  C   UNK A   0       2.561   5.816  17.831  0.00  0.00    +0.000 C 
ATOM      8  C   UNK A   0       2.042   4.674  18.620  0.00  0.00    +0.000 A 
ATOM      9  C   UNK A   0       1.316   3.570  18.213  0.00  0.00    +0.000 A 
ATOM     10  C   UNK A   0       0.939   2.641  19.185  0.00  0.00    +0.000 A 
ATOM     11  C   UNK A   0       1.275   2.835  20.536  0.00  0.00    +0.000 A 
ATOM     12  C   UNK A   0       1.985   3.965  20.934  0.00  0.00    +0.000 A 
ATOM     13  C   UNK A   0       2.358   4.863  19.957  0.00  0.00    +0.000 A 
ATOM     14  O   UNK A   0       3.083   5.998  20.198  0.00  0.00    +0.000 OA
ENDBRANCH   3   6
ENDBRANCH   1   2
BRANCH   1  16
ATOM     15  O   TRP A   1       8.371   8.078  18.538  0.00  0.00    +0.000 OA
ATOM     16  C   TRP A   1       7.956   6.929  18.472  0.00  0.00    +0.000 C 
BRANCH  16  17
ATOM     17  OXT TRP A   1       8.168   6.064  19.492  0.00  0.00    +0.000 OA
ATOM     18  HXT TRP A   1       7.804   5.167  19.306  0.00  0.00    +0.000 HD
ENDBRANCH  16  17
ENDBRANCH   1  16
BRANCH   1  19
ATOM     19  CB  TRP A   1       7.421   4.915  17.085  0.00  0.00    +0.000 C 
BRANCH  19  20
ATOM     20  CG  TRP A   1       6.757   4.314  15.877  0.00  0.00    +0.000 A 
ATOM     21  CD1 TRP A   1       5.721   3.398  15.890  0.00  0.00    +0.000 A 
ATOM     22  NE1 TRP A   1       5.418   3.068  14.597  0.00  0.00    +0.000 N 
ATOM     23  CE2 TRP A   1       6.231   3.755  13.728  0.00  0.00    +0.000 A 
ATOM     24  CZ2 TRP A   1       6.301   3.701  12.329  0.00  0.00    +0.000 A 
ATOM     25  CH2 TRP A   1       7.221   4.537  11.693  0.00  0.00    +0.000 A 
ATOM     26  CZ3 TRP A   1       8.013   5.416  12.427  0.00  0.00    +0.000 A 
ATOM     27  CE3 TRP A   1       7.933   5.454  13.825  0.00  0.00    +0.000 A 
ATOM     28  CD2 TRP A   1       7.045   4.587  14.497  0.00  0.00    +0.000 A 
ATOM     29  HE1 TRP A   1       4.702   2.413  14.313  0.00  0.00    +0.000 HD
ENDBRANCH  19  20
ENDBRANCH   1  19
TORSDOF 6
ENDMDL
MODEL 7
REMARK VINA RESULT:      -7.8      1.939      5.178
REMARK  Name = 
REMARK  6 active torsions:
REMARK  status: ('A' for Active; 'I' for Inactive)
REMARK    1  A    between atoms: C_2  and  OXT_3
REMARK    2  A    between atoms: C_2  and  CA_4
REMARK    3  A    between atoms: CA_4  and  CB_5
REMARK    4  A    between atoms: CA_4  and  N_15
REMARK    5  A    between atoms: CB_5  and  CG_6
REMARK    6  A    between atoms: C_16  and  C_18
REMARK                            x       y       z     vdW  Elec       q    Type
REMARK                         _______ _______ _______ _____ _____    ______ ____
ROOT
ATOM      1  CA  TRP A   1       3.487   3.227  18.588  0.00  0.00    +0.000 C 
ENDROOT
BRANCH   1   2
ATOM      2  N   TRP A   1       4.811   3.336  17.946  0.00  0.00    +0.000 N 
ATOM      3  C   UNK A   0       5.003   3.853  16.688  0.00  0.00    +0.000 C 
ATOM      4  O   UNK A   0       4.049   4.016  15.926  0.00  0.00    +0.000 OA
ATOM      5  H   TRP A   1       5.623   3.393  18.561  0.00  0.00    +0.000 HD
BRANCH   3   6
ATOM      6  C   UNK A   0       6.464   4.054  16.259  0.00  0.00    +0.000 C 
ATOM      7  C   UNK A   0       6.660   5.389  15.533  0.00  0.00    +0.000 C 
ATOM      8  C   UNK A   0       7.179   6.186  16.670  0.00  0.00    +0.000 A 
ATOM      9  C   UNK A   0       7.337   7.554  16.797  0.00  0.00    +0.000 A 
ATOM     10  C   UNK A   0       7.870   8.042  17.992  0.00  0.00    +0.000 A 
ATOM     11  C   UNK A   0       8.247   7.165  19.024  0.00  0.00    +0.000 A 
ATOM     12  C   UNK A   0       8.104   5.788  18.871  0.00  0.00    +0.000 A 
ATOM     13  C   UNK A   0       7.565   5.329  17.688  0.00  0.00    +0.000 A 
ATOM     14  O   UNK A   0       7.339   4.007  17.413  0.00  0.00    +0.000 OA
ENDBRANCH   3   6
ENDBRANCH   1   2
BRANCH   1  16
ATOM     15  O   TRP A   1       1.855   1.445  18.983  0.00  0.00    +0.000 OA
ATOM     16  C   TRP A   1       2.998   1.764  18.682  0.00  0.00    +0.000 C 
BRANCH  16  17
ATOM     17  OXT TRP A   1       3.892   0.825  18.291  0.00  0.00    +0.000 OA
ATOM     18  HXT TRP A   1       4.605   1.199  17.723  0.00  0.00    +0.000 HD
ENDBRANCH  16  17
ENDBRANCH   1  16
BRANCH   1  19
ATOM     19  CB  TRP A   1       3.486   3.828  20.012  0.00  0.00    +0.000 C 
BRANCH  19  20
ATOM     20  CG  TRP A   1       2.780   5.152  20.117  0.00  0.00    +0.000 A 
ATOM     21  CD1 TRP A   1       1.884   5.520  21.104  0.00  0.00    +0.000 A 
ATOM     22  NE1 TRP A   1       1.433   6.783  20.832  0.00  0.00    +0.000 N 
ATOM     23  CE2 TRP A   1       2.021   7.260  19.685  0.00  0.00    +0.000 A 
ATOM     24  CZ2 TRP A   1       1.830   8.477  19.018  0.00  0.00    +0.000 A 
ATOM     25  CH2 TRP A   1       2.587   8.711  17.868  0.00  0.00    +0.000 A 
ATOM     26  CZ3 TRP A   1       3.522   7.779  17.427  0.00  0.00    +0.000 A 
ATOM     27  CE3 TRP A   1       3.697   6.566  18.104  0.00  0.00    +0.000 A 
ATOM     28  CD2 TRP A   1       2.913   6.283  19.242  0.00  0.00    +0.000 A 
ATOM     29  HE1 TRP A   1       0.765   7.297  21.388  0.00  0.00    +0.000 HD
ENDBRANCH  19  20
ENDBRANCH   1  19
TORSDOF 6
ENDMDL
MODEL 8
REMARK VINA RESULT:      -7.7      2.038      4.742
REMARK  Name = 
REMARK  6 active torsions:
REMARK  status: ('A' for Active; 'I' for Inactive)
REMARK    1  A    between atoms: C_2  and  OXT_3
REMARK    2  A    between atoms: C_2  and  CA_4
REMARK    3  A    between atoms: CA_4  and  CB_5
REMARK    4  A    between atoms: CA_4  and  N_15
REMARK    5  A    between atoms: CB_5  and  CG_6
REMARK    6  A    between atoms: C_16  and  C_18
REMARK                            x       y       z     vdW  Elec       q    Type
REMARK                         _______ _______ _______ _____ _____    ______ ____
ROOT
ATOM      1  CA  TRP A   1       2.178   5.436  19.327  0.00  0.00    +0.000 C 
ENDROOT
BRANCH   1   2
ATOM      2  N   TRP A   1       3.345   4.910  18.592  0.00  0.00    +0.000 N 
ATOM      3  C   UNK A   0       3.243   4.152  17.451  0.00  0.00    +0.000 C 
ATOM      4  O   UNK A   0       2.166   3.654  17.125  0.00  0.00    +0.000 OA
ATOM      5  H   TRP A   1       4.224   5.416  18.694  0.00  0.00    +0.000 HD
BRANCH   3   6
ATOM      6  C   UNK A   0       4.564   3.849  16.726  0.00  0.00    +0.000 C 
ATOM      7  C   UNK A   0       4.975   4.999  15.800  0.00  0.00    +0.000 C 
ATOM      8  C   UNK A   0       5.947   5.669  16.696  0.00  0.00    +0.000 A 
ATOM      9  C   UNK A   0       6.525   6.921  16.602  0.00  0.00    +0.000 A 
ATOM     10  C   UNK A   0       7.433   7.298  17.594  0.00  0.00    +0.000 A 
ATOM     11  C   UNK A   0       7.758   6.421  18.644  0.00  0.00    +0.000 A 
ATOM     12  C   UNK A   0       7.186   5.153  18.711  0.00  0.00    +0.000 A 
ATOM     13  C   UNK A   0       6.283   4.806  17.729  0.00  0.00    +0.000 A 
ATOM     14  O   UNK A   0       5.622   3.609  17.686  0.00  0.00    +0.000 OA
ENDBRANCH   3   6
ENDBRANCH   1   2
BRANCH   1  16
ATOM     15  O   TRP A   1       2.134   4.363  21.527  0.00  0.00    +0.000 OA
ATOM     16  C   TRP A   1       1.665   4.450  20.400  0.00  0.00    +0.000 C 
BRANCH  16  17
ATOM     17  OXT TRP A   1       0.562   3.742  20.060  0.00  0.00    +0.000 OA
ATOM     18  HXT TRP A   1      -0.065   4.266  19.508  0.00  0.00    +0.000 HD
ENDBRANCH  16  17
ENDBRANCH   1  16
BRANCH   1  19
ATOM     19  CB  TRP A   1       2.491   6.782  20.018  0.00  0.00    +0.000 C 
BRANCH  19  20
ATOM     20  CG  TRP A   1       1.978   7.986  19.277  0.00  0.00    +0.000 A 
ATOM     21  CD1 TRP A   1       2.266   8.317  17.966  0.00  0.00    +0.000 A 
ATOM     22  NE1 TRP A   1       1.642   9.498  17.669  0.00  0.00    +0.000 N 
ATOM     23  CE2 TRP A   1       0.939   9.951  18.760  0.00  0.00    +0.000 A 
ATOM     24  CZ2 TRP A   1       0.191  11.125  18.923  0.00  0.00    +0.000 A 
ATOM     25  CH2 TRP A   1      -0.444  11.323  20.151  0.00  0.00    +0.000 A 
ATOM     26  CZ3 TRP A   1      -0.362  10.368  21.160  0.00  0.00    +0.000 A 
ATOM     27  CE3 TRP A   1       0.394   9.202  20.982  0.00  0.00    +0.000 A 
ATOM     28  CD2 TRP A   1       1.085   8.997  19.768  0.00  0.00    +0.000 A 
ATOM     29  HE1 TRP A   1       1.686   9.976  16.780  0.00  0.00    +0.000 HD
ENDBRANCH  19  20
ENDBRANCH   1  19
TORSDOF 6
ENDMDL
MODEL 9
REMARK VINA RESULT:      -7.6      1.921      4.992
REMARK  Name = 
REMARK  6 active torsions:
REMARK  status: ('A' for Active; 'I' for Inactive)
REMARK    1  A    between atoms: C_2  and  OXT_3
REMARK    2  A    between atoms: C_2  and  CA_4
REMARK    3  A    between atoms: CA_4  and  CB_5
REMARK    4  A    between atoms: CA_4  and  N_15
REMARK    5  A    between atoms: CB_5  and  CG_6
REMARK    6  A    between atoms: C_16  and  C_18
REMARK                            x       y       z     vdW  Elec       q    Type
REMARK                         _______ _______ _______ _____ _____    ______ ____
ROOT
ATOM      1  CA  TRP A   1       3.039   4.117  19.095  0.00  0.00    +0.000 C 
ENDROOT
BRANCH   1   2
ATOM      2  N   TRP A   1       4.383   3.917  18.522  0.00  0.00    +0.000 N 
ATOM      3  C   UNK A   0       4.661   4.041  17.182  0.00  0.00    +0.000 C 
ATOM      4  O   UNK A   0       3.751   4.074  16.354  0.00  0.00    +0.000 OA
ATOM      5  H   TRP A   1       5.180   4.066  19.141  0.00  0.00    +0.000 HD
BRANCH   3   6
ATOM      6  C   UNK A   0       6.147   3.976  16.796  0.00  0.00    +0.000 C 
ATOM      7  C   UNK A   0       6.528   5.100  15.826  0.00  0.00    +0.000 C 
ATOM      8  C   UNK A   0       7.114   6.047  16.804  0.00  0.00    +0.000 A 
ATOM      9  C   UNK A   0       7.440   7.383  16.662  0.00  0.00    +0.000 A 
ATOM     10  C   UNK A   0       8.000   8.040  17.759  0.00  0.00    +0.000 A 
ATOM     11  C   UNK A   0       8.238   7.356  18.964  0.00  0.00    +0.000 A 
ATOM     12  C   UNK A   0       7.927   6.004  19.084  0.00  0.00    +0.000 A 
ATOM     13  C   UNK A   0       7.364   5.378  17.993  0.00  0.00    +0.000 A 
ATOM     14  O   UNK A   0       6.980   4.064  17.978  0.00  0.00    +0.000 OA
ENDBRANCH   3   6
ENDBRANCH   1   2
BRANCH   1  16
ATOM     15  O   TRP A   1       2.287   2.851  21.052  0.00  0.00    +0.000 OA
ATOM     16  C   TRP A   1       2.531   2.870  19.853  0.00  0.00    +0.000 C 
BRANCH  16  17
ATOM     17  OXT TRP A   1       2.250   1.794  19.080  0.00  0.00    +0.000 OA
ATOM     18  HXT TRP A   1       1.283   1.687  18.923  0.00  0.00    +0.000 HD
ENDBRANCH  16  17
ENDBRANCH   1  16
BRANCH   1  19
ATOM     19  CB  TRP A   1       2.999   5.320  20.065  0.00  0.00    +0.000 C 
BRANCH  19  20
ATOM     20  CG  TRP A   1       2.579   6.612  19.421  0.00  0.00    +0.000 A 
ATOM     21  CD1 TRP A   1       2.870   7.010  18.129  0.00  0.00    +0.000 A 
ATOM     22  NE1 TRP A   1       2.345   8.258  17.930  0.00  0.00    +0.000 N 
ATOM     23  CE2 TRP A   1       1.705   8.690  19.066  0.00  0.00    +0.000 A 
ATOM     24  CZ2 TRP A   1       1.064   9.909  19.328  0.00  0.00    +0.000 A 
ATOM     25  CH2 TRP A   1       0.472  10.074  20.581  0.00  0.00    +0.000 A 
ATOM     26  CZ3 TRP A   1       0.489   9.046  21.520  0.00  0.00    +0.000 A 
ATOM     27  CE3 TRP A   1       1.138   7.835  21.243  0.00  0.00    +0.000 A 
ATOM     28  CD2 TRP A   1       1.786   7.659  20.002  0.00  0.00    +0.000 A 
ATOM     29  HE1 TRP A   1       2.415   8.791  17.075  0.00  0.00    +0.000 HD
ENDBRANCH  19  20
ENDBRANCH   1  19
TORSDOF 6
ENDMDL
