MODEL 1
REMARK VINA RESULT:      -9.9      0.000      0.000
REMARK  Name = 
REMARK  5 active torsions:
REMARK  status: ('A' for Active; 'I' for Inactive)
REMARK    1  A    between atoms: C_1  and  N_2
REMARK    2  A    between atoms: C_6  and  C_7
REMARK    3  A    between atoms: C_9  and  N_10
REMARK    4  A    between atoms: C_17  and  C_18
REMARK    5  A    between atoms: C_25  and  C_26
REMARK                            x       y       z     vdW  Elec       q    Type
REMARK                         _______ _______ _______ _____ _____    ______ ____
ROOT
ATOM      1  C   UNL     1       4.654   5.046  18.509  0.00  0.00    +0.000 A 
ATOM      2  C   UNL     1       3.990   6.250  18.586  0.00  0.00    +0.000 A 
ATOM      3  C   UNL     1       2.862   6.283  19.373  0.00  0.00    +0.000 A 
ATOM      4  N   UNL     1       2.425   5.182  20.003  0.00  0.00    +0.000 NA
ATOM      5  C   UNL     1       3.095   4.030  19.848  0.00  0.00    +0.000 A 
ATOM      6  N   UNL     1       4.217   3.934  19.120  0.00  0.00    +0.000 NA
ENDROOT
BRANCH   3   7
ATOM      7  N   UNL     1       2.133   7.480  19.520  0.00  0.00    +0.000 N 
ATOM      8  C   UNL     1       1.417   7.827  20.735  0.00  0.00    +0.000 C 
ATOM      9  C   UNL     1       0.903   9.203  20.455  0.00  0.00    +0.000 A 
ATOM     10  C   UNL     1       1.258   9.568  19.156  0.00  0.00    +0.000 A 
ATOM     11  C   UNL     1       0.903  10.781  18.598  0.00  0.00    +0.000 A 
ATOM     12  C   UNL     1       0.167  11.662  19.389  0.00  0.00    +0.000 A 
ATOM     13  C   UNL     1      -0.182  11.318  20.707  0.00  0.00    +0.000 A 
ATOM     14  C   UNL     1       0.184  10.077  21.267  0.00  0.00    +0.000 A 
ATOM     15  C   UNL     1       2.048   8.485  18.558  0.00  0.00    +0.000 C 
ATOM     16  O   UNL     1       2.487   8.561  17.425  0.00  0.00    +0.000 OA
BRANCH  14  17
ATOM     17  C   UNL     1      -0.184   9.755  22.692  0.00  0.00    +0.000 C 
ATOM     18  F   UNL     1       0.892   9.487  23.483  0.00  0.00    +0.000 F 
ATOM     19  F   UNL     1      -0.844  10.779  23.298  0.00  0.00    +0.000 F 
ATOM     20  F   UNL     1      -0.998   8.670  22.788  0.00  0.00    +0.000 F 
ENDBRANCH  14  17
ENDBRANCH   3   7
BRANCH   1  26
ATOM     21  C   UNL     1       5.187   5.785  15.493  0.00  0.00    +0.000 C 
ATOM     22  N   UNL     1       6.120   5.235  16.443  0.00  0.00    +0.000 N 
ATOM     23  C   UNL     1       7.414   4.913  16.174  0.00  0.00    +0.000 A 
ATOM     24  N   UNL     1       7.991   4.460  17.260  0.00  0.00    +0.000 NA
ATOM     25  N   UNL     1       7.050   4.473  18.260  0.00  0.00    +0.000 NA
ATOM     26  C   UNL     1       5.908   4.929  17.768  0.00  0.00    +0.000 A 
ENDBRANCH   1  26
BRANCH   5  27
ATOM     27  C   UNL     1       2.566   2.770  20.484  0.00  0.00    +0.000 C 
ATOM     28  C   UNL     1       1.130   2.366  20.222  0.00  0.00    +0.000 C 
ATOM     29  C   UNL     1       1.536   2.830  21.588  0.00  0.00    +0.000 C 
ENDBRANCH   5  27
TORSDOF 4
ENDMDL
MODEL 2
REMARK VINA RESULT:      -9.8      0.827      1.215
REMARK  Name = 
REMARK  5 active torsions:
REMARK  status: ('A' for Active; 'I' for Inactive)
REMARK    1  A    between atoms: C_1  and  N_2
REMARK    2  A    between atoms: C_6  and  C_7
REMARK    3  A    between atoms: C_9  and  N_10
REMARK    4  A    between atoms: C_17  and  C_18
REMARK    5  A    between atoms: C_25  and  C_26
REMARK                            x       y       z     vdW  Elec       q    Type
REMARK                         _______ _______ _______ _____ _____    ______ ____
ROOT
ATOM      1  C   UNL     1       4.572   5.082  19.122  0.00  0.00    +0.000 A 
ATOM      2  C   UNL     1       3.951   6.308  19.215  0.00  0.00    +0.000 A 
ATOM      3  C   UNL     1       2.628   6.302  19.591  0.00  0.00    +0.000 A 
ATOM      4  N   UNL     1       1.978   5.150  19.820  0.00  0.00    +0.000 NA
ATOM      5  C   UNL     1       2.632   3.989  19.666  0.00  0.00    +0.000 A 
ATOM      6  N   UNL     1       3.929   3.923  19.331  0.00  0.00    +0.000 NA
ENDROOT
BRANCH   3   7
ATOM      7  N   UNL     1       1.922   7.514  19.728  0.00  0.00    +0.000 N 
ATOM      8  C   UNL     1       1.206   7.881  20.936  0.00  0.00    +0.000 C 
ATOM      9  C   UNL     1       0.722   9.266  20.648  0.00  0.00    +0.000 A 
ATOM     10  C   UNL     1       1.092   9.617  19.349  0.00  0.00    +0.000 A 
ATOM     11  C   UNL     1       0.766  10.835  18.784  0.00  0.00    +0.000 A 
ATOM     12  C   UNL     1       0.043  11.735  19.565  0.00  0.00    +0.000 A 
ATOM     13  C   UNL     1      -0.322  11.403  20.883  0.00  0.00    +0.000 A 
ATOM     14  C   UNL     1       0.016  10.158  21.450  0.00  0.00    +0.000 A 
ATOM     15  C   UNL     1       1.864   8.516  18.761  0.00  0.00    +0.000 C 
ATOM     16  O   UNL     1       2.312   8.578  17.630  0.00  0.00    +0.000 OA
BRANCH  14  17
ATOM     17  C   UNL     1      -0.367   9.850  22.874  0.00  0.00    +0.000 C 
ATOM     18  F   UNL     1      -1.057  10.856  23.481  0.00  0.00    +0.000 F 
ATOM     19  F   UNL     1      -1.160   8.748  22.968  0.00  0.00    +0.000 F 
ATOM     20  F   UNL     1       0.712   9.609  23.665  0.00  0.00    +0.000 F 
ENDBRANCH  14  17
ENDBRANCH   3   7
BRANCH   1  26
ATOM     21  C   UNL     1       5.900   4.243  16.391  0.00  0.00    +0.000 C 
ATOM     22  N   UNL     1       6.562   4.596  17.620  0.00  0.00    +0.000 N 
ATOM     23  C   UNL     1       7.910   4.599  17.812  0.00  0.00    +0.000 A 
ATOM     24  N   UNL     1       8.181   4.991  19.032  0.00  0.00    +0.000 NA
ATOM     25  N   UNL     1       6.985   5.237  19.660  0.00  0.00    +0.000 NA
ATOM     26  C   UNL     1       5.997   4.987  18.813  0.00  0.00    +0.000 A 
ENDBRANCH   1  26
BRANCH   5  27
ATOM     27  C   UNL     1       1.890   2.688  19.841  0.00  0.00    +0.000 C 
ATOM     28  C   UNL     1       1.584   1.851  18.616  0.00  0.00    +0.000 C 
ATOM     29  C   UNL     1       0.469   2.532  19.351  0.00  0.00    +0.000 C 
ENDBRANCH   5  27
TORSDOF 4
ENDMDL
MODEL 3
REMARK VINA RESULT:      -9.7      0.697      1.343
REMARK  Name = 
REMARK  5 active torsions:
REMARK  status: ('A' for Active; 'I' for Inactive)
REMARK    1  A    between atoms: C_1  and  N_2
REMARK    2  A    between atoms: C_6  and  C_7
REMARK    3  A    between atoms: C_9  and  N_10
REMARK    4  A    between atoms: C_17  and  C_18
REMARK    5  A    between atoms: C_25  and  C_26
REMARK                            x       y       z     vdW  Elec       q    Type
REMARK                         _______ _______ _______ _____ _____    ______ ____
ROOT
ATOM      1  C   UNL     1       4.287   5.021  17.812  0.00  0.00    +0.000 A 
ATOM      2  C   UNL     1       3.641   6.227  17.962  0.00  0.00    +0.000 A 
ATOM      3  C   UNL     1       2.796   6.344  19.041  0.00  0.00    +0.000 A 
ATOM      4  N   UNL     1       2.596   5.315  19.879  0.00  0.00    +0.000 NA
ATOM      5  C   UNL     1       3.224   4.151  19.647  0.00  0.00    +0.000 A 
ATOM      6  N   UNL     1       4.083   3.978  18.632  0.00  0.00    +0.000 NA
ENDROOT
BRANCH   3   7
ATOM      7  N   UNL     1       2.108   7.551  19.279  0.00  0.00    +0.000 N 
ATOM      8  C   UNL     1       1.420   7.839  20.525  0.00  0.00    +0.000 C 
ATOM      9  C   UNL     1       0.948   9.246  20.346  0.00  0.00    +0.000 A 
ATOM     10  C   UNL     1       1.296   9.684  19.068  0.00  0.00    +0.000 A 
ATOM     11  C   UNL     1       0.974  10.943  18.597  0.00  0.00    +0.000 A 
ATOM     12  C   UNL     1       0.278  11.793  19.456  0.00  0.00    +0.000 A 
ATOM     13  C   UNL     1      -0.064  11.372  20.754  0.00  0.00    +0.000 A 
ATOM     14  C   UNL     1       0.270  10.086  21.225  0.00  0.00    +0.000 A 
ATOM     15  C   UNL     1       2.042   8.620  18.387  0.00  0.00    +0.000 C 
ATOM     16  O   UNL     1       2.468   8.757  17.255  0.00  0.00    +0.000 OA
BRANCH  14  17
ATOM     17  C   UNL     1      -0.089   9.682  22.631  0.00  0.00    +0.000 C 
ATOM     18  F   UNL     1      -0.734  10.657  23.329  0.00  0.00    +0.000 F 
ATOM     19  F   UNL     1      -0.911   8.597  22.662  0.00  0.00    +0.000 F 
ATOM     20  F   UNL     1       1.002   9.351  23.373  0.00  0.00    +0.000 F 
ENDBRANCH  14  17
ENDBRANCH   3   7
BRANCH   1  26
ATOM     21  C   UNL     1       7.418   5.315  18.000  0.00  0.00    +0.000 C 
ATOM     22  N   UNL     1       6.634   4.980  16.840  0.00  0.00    +0.000 N 
ATOM     23  C   UNL     1       7.133   4.755  15.594  0.00  0.00    +0.000 A 
ATOM     24  N   UNL     1       6.157   4.452  14.775  0.00  0.00    +0.000 NA
ATOM     25  N   UNL     1       4.989   4.492  15.496  0.00  0.00    +0.000 NA
ATOM     26  C   UNL     1       5.269   4.826  16.747  0.00  0.00    +0.000 A 
ENDBRANCH   1  26
BRANCH   5  27
ATOM     27  C   UNL     1       2.944   2.965  20.533  0.00  0.00    +0.000 C 
ATOM     28  C   UNL     1       1.529   2.428  20.611  0.00  0.00    +0.000 C 
ATOM     29  C   UNL     1       2.133   3.114  21.800  0.00  0.00    +0.000 C 
ENDBRANCH   5  27
TORSDOF 4
ENDMDL
MODEL 4
REMARK VINA RESULT:      -9.4      0.868      1.150
REMARK  Name = 
REMARK  5 active torsions:
REMARK  status: ('A' for Active; 'I' for Inactive)
REMARK    1  A    between atoms: C_1  and  N_2
REMARK    2  A    between atoms: C_6  and  C_7
REMARK    3  A    between atoms: C_9  and  N_10
REMARK    4  A    between atoms: C_17  and  C_18
REMARK    5  A    between atoms: C_25  and  C_26
REMARK                            x       y       z     vdW  Elec       q    Type
REMARK                         _______ _______ _______ _____ _____    ______ ____
ROOT
ATOM      1  C   UNL     1       4.461   5.700  18.082  0.00  0.00    +0.000 A 
ATOM      2  C   UNL     1       3.714   6.843  18.258  0.00  0.00    +0.000 A 
ATOM      3  C   UNL     1       2.707   6.784  19.193  0.00  0.00    +0.000 A 
ATOM      4  N   UNL     1       2.455   5.653  19.869  0.00  0.00    +0.000 NA
ATOM      5  C   UNL     1       3.193   4.561  19.615  0.00  0.00    +0.000 A 
ATOM      6  N   UNL     1       4.209   4.557  18.739  0.00  0.00    +0.000 NA
ENDROOT
BRANCH   3   7
ATOM      7  N   UNL     1       1.906   7.916  19.448  0.00  0.00    +0.000 N 
ATOM      8  C   UNL     1       1.218   8.132  20.708  0.00  0.00    +0.000 C 
ATOM      9  C   UNL     1       0.603   9.484  20.542  0.00  0.00    +0.000 A 
ATOM     10  C   UNL     1       0.879   9.957  19.259  0.00  0.00    +0.000 A 
ATOM     11  C   UNL     1       0.422  11.176  18.799  0.00  0.00    +0.000 A 
ATOM     12  C   UNL     1      -0.338  11.951  19.673  0.00  0.00    +0.000 A 
ATOM     13  C   UNL     1      -0.610  11.497  20.977  0.00  0.00    +0.000 A 
ATOM     14  C   UNL     1      -0.139  10.251  21.437  0.00  0.00    +0.000 A 
ATOM     15  C   UNL     1       1.715   8.973  18.561  0.00  0.00    +0.000 C 
ATOM     16  O   UNL     1       2.102   9.154  17.420  0.00  0.00    +0.000 OA
BRANCH  14  17
ATOM     17  C   UNL     1      -0.426   9.811  22.849  0.00  0.00    +0.000 C 
ATOM     18  F   UNL     1      -1.200  10.689  23.545  0.00  0.00    +0.000 F 
ATOM     19  F   UNL     1      -1.084   8.621  22.895  0.00  0.00    +0.000 F 
ATOM     20  F   UNL     1       0.705   9.647  23.585  0.00  0.00    +0.000 F 
ENDBRANCH  14  17
ENDBRANCH   3   7
BRANCH   1  26
ATOM     21  C   UNL     1       5.049   3.665  15.750  0.00  0.00    +0.000 C 
ATOM     22  N   UNL     1       5.861   4.776  16.174  0.00  0.00    +0.000 N 
ATOM     23  C   UNL     1       7.063   5.120  15.636  0.00  0.00    +0.000 A 
ATOM     24  N   UNL     1       7.525   6.190  16.234  0.00  0.00    +0.000 NA
ATOM     25  N   UNL     1       6.613   6.549  17.196  0.00  0.00    +0.000 NA
ATOM     26  C   UNL     1       5.607   5.687  17.175  0.00  0.00    +0.000 A 
ENDBRANCH   1  26
BRANCH   5  27
ATOM     27  C   UNL     1       2.865   3.263  20.308  0.00  0.00    +0.000 C 
ATOM     28  C   UNL     1       1.692   2.444  19.811  0.00  0.00    +0.000 C 
ATOM     29  C   UNL     1       1.614   3.123  21.145  0.00  0.00    +0.000 C 
ENDBRANCH   5  27
TORSDOF 4
ENDMDL
MODEL 5
REMARK VINA RESULT:      -9.2      0.932      1.567
REMARK  Name = 
REMARK  5 active torsions:
REMARK  status: ('A' for Active; 'I' for Inactive)
REMARK    1  A    between atoms: C_1  and  N_2
REMARK    2  A    between atoms: C_6  and  C_7
REMARK    3  A    between atoms: C_9  and  N_10
REMARK    4  A    between atoms: C_17  and  C_18
REMARK    5  A    between atoms: C_25  and  C_26
REMARK                            x       y       z     vdW  Elec       q    Type
REMARK                         _______ _______ _______ _____ _____    ______ ____
ROOT
ATOM      1  C   UNL     1       4.160   5.512  17.568  0.00  0.00    +0.000 A 
ATOM      2  C   UNL     1       3.572   6.722  17.859  0.00  0.00    +0.000 A 
ATOM      3  C   UNL     1       2.562   6.708  18.794  0.00  0.00    +0.000 A 
ATOM      4  N   UNL     1       2.160   5.561  19.361  0.00  0.00    +0.000 NA
ATOM      5  C   UNL     1       2.746   4.410  18.997  0.00  0.00    +0.000 A 
ATOM      6  N   UNL     1       3.755   4.355  18.115  0.00  0.00    +0.000 NA
ENDROOT
BRANCH   3   7
ATOM      7  N   UNL     1       1.919   7.906  19.163  0.00  0.00    +0.000 N 
ATOM      8  C   UNL     1       1.266   8.092  20.447  0.00  0.00    +0.000 C 
ATOM      9  C   UNL     1       0.835   9.523  20.415  0.00  0.00    +0.000 A 
ATOM     10  C   UNL     1       1.172  10.074  19.178  0.00  0.00    +0.000 A 
ATOM     11  C   UNL     1       0.880  11.381  18.839  0.00  0.00    +0.000 A 
ATOM     12  C   UNL     1       0.230  12.163  19.792  0.00  0.00    +0.000 A 
ATOM     13  C   UNL     1      -0.100  11.629  21.051  0.00  0.00    +0.000 A 
ATOM     14  C   UNL     1       0.202  10.294  21.387  0.00  0.00    +0.000 A 
ATOM     15  C   UNL     1       1.869   9.058  18.380  0.00  0.00    +0.000 C 
ATOM     16  O   UNL     1       2.276   9.293  17.257  0.00  0.00    +0.000 OA
BRANCH  14  17
ATOM     17  C   UNL     1      -0.141   9.765  22.755  0.00  0.00    +0.000 C 
ATOM     18  F   UNL     1      -0.929   8.655  22.727  0.00  0.00    +0.000 F 
ATOM     19  F   UNL     1       0.966   9.416  23.466  0.00  0.00    +0.000 F 
ATOM     20  F   UNL     1      -0.806  10.676  23.515  0.00  0.00    +0.000 F 
ENDBRANCH  14  17
ENDBRANCH   3   7
BRANCH   1  26
ATOM     21  C   UNL     1       7.204   5.165  18.301  0.00  0.00    +0.000 C 
ATOM     22  N   UNL     1       6.625   5.303  16.990  0.00  0.00    +0.000 N 
ATOM     23  C   UNL     1       7.324   5.334  15.823  0.00  0.00    +0.000 A 
ATOM     24  N   UNL     1       6.496   5.446  14.814  0.00  0.00    +0.000 NA
ATOM     25  N   UNL     1       5.225   5.505  15.331  0.00  0.00    +0.000 NA
ATOM     26  C   UNL     1       5.297   5.433  16.652  0.00  0.00    +0.000 A 
ENDBRANCH   1  26
BRANCH   5  27
ATOM     27  C   UNL     1       2.246   3.107  19.567  0.00  0.00    +0.000 C 
ATOM     28  C   UNL     1       2.079   1.920  18.640  0.00  0.00    +0.000 C 
ATOM     29  C   UNL     1       0.869   2.586  19.224  0.00  0.00    +0.000 C 
ENDBRANCH   5  27
TORSDOF 4
ENDMDL
MODEL 6
REMARK VINA RESULT:      -9.1      1.199      1.771
REMARK  Name = 
REMARK  5 active torsions:
REMARK  status: ('A' for Active; 'I' for Inactive)
REMARK    1  A    between atoms: C_1  and  N_2
REMARK    2  A    between atoms: C_6  and  C_7
REMARK    3  A    between atoms: C_9  and  N_10
REMARK    4  A    between atoms: C_17  and  C_18
REMARK    5  A    between atoms: C_25  and  C_26
REMARK                            x       y       z     vdW  Elec       q    Type
REMARK                         _______ _______ _______ _____ _____    ______ ____
ROOT
ATOM      1  C   UNL     1       4.111   5.867  17.575  0.00  0.00    +0.000 A 
ATOM      2  C   UNL     1       3.585   7.063  18.008  0.00  0.00    +0.000 A 
ATOM      3  C   UNL     1       2.333   7.016  18.576  0.00  0.00    +0.000 A 
ATOM      4  N   UNL     1       1.657   5.861  18.668  0.00  0.00    +0.000 NA
ATOM      5  C   UNL     1       2.210   4.739  18.183  0.00  0.00    +0.000 A 
ATOM      6  N   UNL     1       3.438   4.707  17.645  0.00  0.00    +0.000 NA
ENDROOT
BRANCH   3   7
ATOM      7  N   UNL     1       1.728   8.193  19.062  0.00  0.00    +0.000 N 
ATOM      8  C   UNL     1       1.082   8.274  20.360  0.00  0.00    +0.000 C 
ATOM      9  C   UNL     1       0.698   9.715  20.468  0.00  0.00    +0.000 A 
ATOM     10  C   UNL     1       1.052  10.372  19.290  0.00  0.00    +0.000 A 
ATOM     11  C   UNL     1       0.803  11.714  19.080  0.00  0.00    +0.000 A 
ATOM     12  C   UNL     1       0.178  12.421  20.106  0.00  0.00    +0.000 A 
ATOM     13  C   UNL     1      -0.169  11.778  21.308  0.00  0.00    +0.000 A 
ATOM     14  C   UNL     1       0.090  10.408  21.512  0.00  0.00    +0.000 A 
ATOM     15  C   UNL     1       1.716   9.417  18.395  0.00  0.00    +0.000 C 
ATOM     16  O   UNL     1       2.131   9.746  17.298  0.00  0.00    +0.000 OA
BRANCH  14  17
ATOM     17  C   UNL     1      -0.270   9.760  22.824  0.00  0.00    +0.000 C 
ATOM     18  F   UNL     1      -1.055  10.539  23.618  0.00  0.00    +0.000 F 
ATOM     19  F   UNL     1      -0.954   8.596  22.654  0.00  0.00    +0.000 F 
ATOM     20  F   UNL     1       0.824   9.450  23.570  0.00  0.00    +0.000 F 
ENDBRANCH  14  17
ENDBRANCH   3   7
BRANCH   1  26
ATOM     21  C   UNL     1       6.800   5.467  19.167  0.00  0.00    +0.000 C 
ATOM     22  N   UNL     1       6.636   5.644  17.747  0.00  0.00    +0.000 N 
ATOM     23  C   UNL     1       7.650   5.695  16.841  0.00  0.00    +0.000 A 
ATOM     24  N   UNL     1       7.158   5.841  15.636  0.00  0.00    +0.000 NA
ATOM     25  N   UNL     1       5.791   5.902  15.755  0.00  0.00    +0.000 NA
ATOM     26  C   UNL     1       5.468   5.797  17.035  0.00  0.00    +0.000 A 
ENDBRANCH   1  26
BRANCH   5  27
ATOM     27  C   UNL     1       1.426   3.452  18.206  0.00  0.00    +0.000 C 
ATOM     28  C   UNL     1       1.174   2.773  19.537  0.00  0.00    +0.000 C 
ATOM     29  C   UNL     1       2.097   2.139  18.540  0.00  0.00    +0.000 C 
ENDBRANCH   5  27
TORSDOF 4
ENDMDL
MODEL 7
REMARK VINA RESULT:      -8.9      1.343      3.584
REMARK  Name = 
REMARK  5 active torsions:
REMARK  status: ('A' for Active; 'I' for Inactive)
REMARK    1  A    between atoms: C_1  and  N_2
REMARK    2  A    between atoms: C_6  and  C_7
REMARK    3  A    between atoms: C_9  and  N_10
REMARK    4  A    between atoms: C_17  and  C_18
REMARK    5  A    between atoms: C_25  and  C_26
REMARK                            x       y       z     vdW  Elec       q    Type
REMARK                         _______ _______ _______ _____ _____    ______ ____
ROOT
ATOM      1  C   UNL     1       3.784   5.062  19.090  0.00  0.00    +0.000 A 
ATOM      2  C   UNL     1       2.924   6.040  19.534  0.00  0.00    +0.000 A 
ATOM      3  C   UNL     1       2.836   7.179  18.768  0.00  0.00    +0.000 A 
ATOM      4  N   UNL     1       3.582   7.329  17.662  0.00  0.00    +0.000 NA
ATOM      5  C   UNL     1       4.435   6.354  17.311  0.00  0.00    +0.000 A 
ATOM      6  N   UNL     1       4.548   5.206  17.996  0.00  0.00    +0.000 NA
ENDROOT
BRANCH   3   7
ATOM      7  N   UNL     1       1.966   8.223  19.142  0.00  0.00    +0.000 N 
ATOM      8  C   UNL     1       1.309   8.280  20.436  0.00  0.00    +0.000 C 
ATOM      9  C   UNL     1       0.593   9.592  20.405  0.00  0.00    +0.000 A 
ATOM     10  C   UNL     1       0.790  10.190  19.160  0.00  0.00    +0.000 A 
ATOM     11  C   UNL     1       0.230  11.407  18.820  0.00  0.00    +0.000 A 
ATOM     12  C   UNL     1      -0.552  12.047  19.780  0.00  0.00    +0.000 A 
ATOM     13  C   UNL     1      -0.745  11.465  21.047  0.00  0.00    +0.000 A 
ATOM     14  C   UNL     1      -0.170  10.224  21.384  0.00  0.00    +0.000 A 
ATOM     15  C   UNL     1       1.669   9.334  18.355  0.00  0.00    +0.000 C 
ATOM     16  O   UNL     1       2.002   9.638  17.224  0.00  0.00    +0.000 OA
BRANCH  14  17
ATOM     17  C   UNL     1      -0.376   9.646  22.760  0.00  0.00    +0.000 C 
ATOM     18  F   UNL     1       0.783   9.455  23.447  0.00  0.00    +0.000 F 
ATOM     19  F   UNL     1      -1.145  10.448  23.546  0.00  0.00    +0.000 F 
ATOM     20  F   UNL     1      -0.997   8.437  22.731  0.00  0.00    +0.000 F 
ENDBRANCH  14  17
ENDBRANCH   3   7
BRANCH   1  26
ATOM     21  C   UNL     1       1.593   3.653  20.862  0.00  0.00    +0.000 C 
ATOM     22  N   UNL     1       2.925   3.189  20.576  0.00  0.00    +0.000 N 
ATOM     23  C   UNL     1       3.478   2.043  21.062  0.00  0.00    +0.000 A 
ATOM     24  N   UNL     1       4.692   1.905  20.590  0.00  0.00    +0.000 NA
ATOM     25  N   UNL     1       4.948   2.990  19.789  0.00  0.00    +0.000 NA
ATOM     26  C   UNL     1       3.885   3.780  19.786  0.00  0.00    +0.000 A 
ENDBRANCH   1  26
BRANCH   5  27
ATOM     27  C   UNL     1       5.336   6.547  16.119  0.00  0.00    +0.000 C 
ATOM     28  C   UNL     1       5.337   5.497  15.026  0.00  0.00    +0.000 C 
ATOM     29  C   UNL     1       6.541   5.660  15.904  0.00  0.00    +0.000 C 
ENDBRANCH   5  27
TORSDOF 4
ENDMDL
MODEL 8
REMARK VINA RESULT:      -8.8      1.728      3.819
REMARK  Name = 
REMARK  5 active torsions:
REMARK  status: ('A' for Active; 'I' for Inactive)
REMARK    1  A    between atoms: C_1  and  N_2
REMARK    2  A    between atoms: C_6  and  C_7
REMARK    3  A    between atoms: C_9  and  N_10
REMARK    4  A    between atoms: C_17  and  C_18
REMARK    5  A    between atoms: C_25  and  C_26
REMARK                            x       y       z     vdW  Elec       q    Type
REMARK                         _______ _______ _______ _____ _____    ______ ____
ROOT
ATOM      1  C   UNL     1       2.932   5.116  18.232  0.00  0.00    +0.000 A 
ATOM      2  C   UNL     1       2.178   6.133  18.772  0.00  0.00    +0.000 A 
ATOM      3  C   UNL     1       2.610   7.417  18.532  0.00  0.00    +0.000 A 
ATOM      4  N   UNL     1       3.730   7.650  17.831  0.00  0.00    +0.000 NA
ATOM      5  C   UNL     1       4.443   6.611  17.371  0.00  0.00    +0.000 A 
ATOM      6  N   UNL     1       4.064   5.336  17.544  0.00  0.00    +0.000 NA
ENDROOT
BRANCH   3   7
ATOM      7  N   UNL     1       1.886   8.517  19.034  0.00  0.00    +0.000 N 
ATOM      8  C   UNL     1       1.196   8.493  20.312  0.00  0.00    +0.000 C 
ATOM      9  C   UNL     1       0.678   9.888  20.453  0.00  0.00    +0.000 A 
ATOM     10  C   UNL     1       1.005  10.615  19.308  0.00  0.00    +0.000 A 
ATOM     11  C   UNL     1       0.640  11.936  19.133  0.00  0.00    +0.000 A 
ATOM     12  C   UNL     1      -0.078  12.547  20.160  0.00  0.00    +0.000 A 
ATOM     13  C   UNL     1      -0.399  11.834  21.329  0.00  0.00    +0.000 A 
ATOM     14  C   UNL     1      -0.022  10.487  21.498  0.00  0.00    +0.000 A 
ATOM     15  C   UNL     1       1.781   9.756  18.406  0.00  0.00    +0.000 C 
ATOM     16  O   UNL     1       2.196  10.159  17.335  0.00  0.00    +0.000 OA
BRANCH  14  17
ATOM     17  C   UNL     1      -0.359   9.764  22.776  0.00  0.00    +0.000 C 
ATOM     18  F   UNL     1      -0.960   8.558  22.577  0.00  0.00    +0.000 F 
ATOM     19  F   UNL     1       0.744   9.509  23.531  0.00  0.00    +0.000 F 
ATOM     20  F   UNL     1      -1.205  10.475  23.570  0.00  0.00    +0.000 F 
ENDBRANCH  14  17
ENDBRANCH   3   7
BRANCH   1  26
ATOM     21  C   UNL     1       4.416   2.784  19.742  0.00  0.00    +0.000 C 
ATOM     22  N   UNL     1       3.183   2.709  19.003  0.00  0.00    +0.000 N 
ATOM     23  C   UNL     1       2.450   1.578  18.811  0.00  0.00    +0.000 A 
ATOM     24  N   UNL     1       1.376   1.860  18.118  0.00  0.00    +0.000 NA
ATOM     25  N   UNL     1       1.410   3.203  17.836  0.00  0.00    +0.000 NA
ATOM     26  C   UNL     1       2.511   3.722  18.358  0.00  0.00    +0.000 A 
ENDBRANCH   1  26
BRANCH   5  27
ATOM     27  C   UNL     1       5.746   6.859  16.654  0.00  0.00    +0.000 C 
ATOM     28  C   UNL     1       6.949   6.010  17.009  0.00  0.00    +0.000 C 
ATOM     29  C   UNL     1       6.928   7.464  17.377  0.00  0.00    +0.000 C 
ENDBRANCH   5  27
TORSDOF 4
ENDMDL
MODEL 9
REMARK VINA RESULT:      -8.7      1.522      3.799
REMARK  Name = 
REMARK  5 active torsions:
REMARK  status: ('A' for Active; 'I' for Inactive)
REMARK    1  A    between atoms: C_1  and  N_2
REMARK    2  A    between atoms: C_6  and  C_7
REMARK    3  A    between atoms: C_9  and  N_10
REMARK    4  A    between atoms: C_17  and  C_18
REMARK    5  A    between atoms: C_25  and  C_26
REMARK                            x       y       z     vdW  Elec       q    Type
REMARK                         _______ _______ _______ _____ _____    ______ ____
ROOT
ATOM      1  C   UNL     1       3.325   4.967  18.403  0.00  0.00    +0.000 A 
ATOM      2  C   UNL     1       2.480   5.948  18.871  0.00  0.00    +0.000 A 
ATOM      3  C   UNL     1       2.836   7.249  18.600  0.00  0.00    +0.000 A 
ATOM      4  N   UNL     1       3.969   7.533  17.939  0.00  0.00    +0.000 NA
ATOM      5  C   UNL     1       4.770   6.529  17.552  0.00  0.00    +0.000 A 
ATOM      6  N   UNL     1       4.470   5.238  17.757  0.00  0.00    +0.000 NA
ENDROOT
BRANCH   3   7
ATOM      7  N   UNL     1       2.018   8.314  19.027  0.00  0.00    +0.000 N 
ATOM      8  C   UNL     1       1.348   8.330  20.316  0.00  0.00    +0.000 C 
ATOM      9  C   UNL     1       0.704   9.677  20.357  0.00  0.00    +0.000 A 
ATOM     10  C   UNL     1       0.947  10.337  19.152  0.00  0.00    +0.000 A 
ATOM     11  C   UNL     1       0.458  11.600  18.880  0.00  0.00    +0.000 A 
ATOM     12  C   UNL     1      -0.302  12.223  19.869  0.00  0.00    +0.000 A 
ATOM     13  C   UNL     1      -0.541  11.579  21.097  0.00  0.00    +0.000 A 
ATOM     14  C   UNL     1      -0.037  10.291  21.364  0.00  0.00    +0.000 A 
ATOM     15  C   UNL     1       1.790   9.483  18.306  0.00  0.00    +0.000 C 
ATOM     16  O   UNL     1       2.152   9.836  17.198  0.00  0.00    +0.000 OA
BRANCH  14  17
ATOM     17  C   UNL     1      -0.290   9.645  22.702  0.00  0.00    +0.000 C 
ATOM     18  F   UNL     1      -1.046  10.408  23.539  0.00  0.00    +0.000 F 
ATOM     19  F   UNL     1      -0.948   8.459  22.586  0.00  0.00    +0.000 F 
ATOM     20  F   UNL     1       0.859   9.376  23.377  0.00  0.00    +0.000 F 
ENDBRANCH  14  17
ENDBRANCH   3   7
BRANCH   1  26
ATOM     21  C   UNL     1       0.964   3.722  20.077  0.00  0.00    +0.000 C 
ATOM     22  N   UNL     1       1.969   3.023  19.319  0.00  0.00    +0.000 N 
ATOM     23  C   UNL     1       2.080   1.670  19.223  0.00  0.00    +0.000 A 
ATOM     24  N   UNL     1       3.085   1.363  18.440  0.00  0.00    +0.000 NA
ATOM     25  N   UNL     1       3.656   2.541  18.025  0.00  0.00    +0.000 NA
ATOM     26  C   UNL     1       2.992   3.552  18.565  0.00  0.00    +0.000 A 
ENDBRANCH   1  26
BRANCH   5  27
ATOM     27  C   UNL     1       6.084   6.841  16.882  0.00  0.00    +0.000 C 
ATOM     28  C   UNL     1       7.370   6.432  17.570  0.00  0.00    +0.000 C 
ATOM     29  C   UNL     1       7.018   7.884  17.451  0.00  0.00    +0.000 C 
ENDBRANCH   5  27
TORSDOF 4
ENDMDL
