MODEL 1
REMARK VINA RESULT:      -8.1      0.000      0.000
REMARK  Name = 
REMARK  5 active torsions:
REMARK  status: ('A' for Active; 'I' for Inactive)
REMARK    1  A    between atoms: C_1  and  C_2
REMARK    2  A    between atoms: N_4  and  S_5
REMARK    3  A    between atoms: S_5  and  C_8
REMARK    4  A    between atoms: C_12  and  C_13
REMARK    5  A    between atoms: C_24  and  C_25
REMARK                            x       y       z     vdW  Elec       q    Type
REMARK                         _______ _______ _______ _____ _____    ______ ____
ROOT
ATOM      1  C   UNL     1       2.834   3.941  19.015  0.00  0.00    +0.000 A 
ATOM      2  C   UNL     1       2.723   3.238  20.218  0.00  0.00    +0.000 A 
ATOM      3  C   UNL     1       2.245   3.890  21.352  0.00  0.00    +0.000 A 
ATOM      4  C   UNL     1       1.899   5.240  21.285  0.00  0.00    +0.000 A 
ATOM      5  C   UNL     1       2.005   5.952  20.080  0.00  0.00    +0.000 A 
ATOM      6  C   UNL     1       2.440   5.281  18.930  0.00  0.00    +0.000 A 
ENDROOT
BRANCH   5   7
ATOM      7  C   UNL     1       1.733   7.378  20.021  0.00  0.00    +0.000 A 
ATOM      8  C   UNL     1       1.907   8.192  18.921  0.00  0.00    +0.000 A 
ATOM      9  N   UNL     1       1.469   9.432  19.306  0.00  0.00    +0.000 N 
ATOM     10  C   UNL     1       1.418  10.615  18.576  0.00  0.00    +0.000 A 
ATOM     11  C   UNL     1       0.941  11.726  19.163  0.00  0.00    +0.000 A 
ATOM     12  C   UNL     1       0.488  11.651  20.546  0.00  0.00    +0.000 A 
ATOM     13  C   UNL     1       0.538  10.497  21.243  0.00  0.00    +0.000 A 
ATOM     14  C   UNL     1       1.051   9.319  20.628  0.00  0.00    +0.000 A 
ATOM     15  N   UNL     1       1.211   8.091  21.078  0.00  0.00    +0.000 NA
ENDBRANCH   5   7
BRANCH   1  16
ATOM     16  S   UNL     1       3.414   3.097  17.567  0.00  0.00    +0.000 S 
ATOM     17  O   UNL     1       2.392   3.186  16.548  0.00  0.00    +0.000 OA
ATOM     18  O   UNL     1       3.924   1.808  17.990  0.00  0.00    +0.000 OA
BRANCH  16  22
ATOM     19  C   UNL     1       6.424   5.462  14.767  0.00  0.00    +0.000 C 
ATOM     20  C   UNL     1       6.810   4.246  15.607  0.00  0.00    +0.000 C 
ATOM     21  C   UNL     1       5.605   3.374  15.999  0.00  0.00    +0.000 C 
ATOM     22  N   UNL     1       4.763   4.036  17.054  0.00  0.00    +0.000 NA
ATOM     23  C   UNL     1       5.630   4.422  18.219  0.00  0.00    +0.000 C 
ATOM     24  C   UNL     1       6.814   5.289  17.759  0.00  0.00    +0.000 C 
ATOM     25  C   UNL     1       7.747   5.580  18.928  0.00  0.00    +0.000 C 
ATOM     26  O   UNL     1       7.590   4.623  16.752  0.00  0.00    +0.000 OA
ENDBRANCH  16  22
ENDBRANCH   1  16
TORSDOF 3
ENDMDL
MODEL 2
REMARK VINA RESULT:      -8.1      0.531      1.159
REMARK  Name = 
REMARK  5 active torsions:
REMARK  status: ('A' for Active; 'I' for Inactive)
REMARK    1  A    between atoms: C_1  and  C_2
REMARK    2  A    between atoms: N_4  and  S_5
REMARK    3  A    between atoms: S_5  and  C_8
REMARK    4  A    between atoms: C_12  and  C_13
REMARK    5  A    between atoms: C_24  and  C_25
REMARK                            x       y       z     vdW  Elec       q    Type
REMARK                         _______ _______ _______ _____ _____    ______ ____
ROOT
ATOM      1  C   UNL     1       2.828   4.002  18.991  0.00  0.00    +0.000 A 
ATOM      2  C   UNL     1       2.719   3.321  20.208  0.00  0.00    +0.000 A 
ATOM      3  C   UNL     1       2.233   3.990  21.327  0.00  0.00    +0.000 A 
ATOM      4  C   UNL     1       1.877   5.336  21.235  0.00  0.00    +0.000 A 
ATOM      5  C   UNL     1       1.981   6.026  20.017  0.00  0.00    +0.000 A 
ATOM      6  C   UNL     1       2.423   5.337  18.881  0.00  0.00    +0.000 A 
ENDROOT
BRANCH   5   7
ATOM      7  C   UNL     1       1.697   7.449  19.931  0.00  0.00    +0.000 A 
ATOM      8  C   UNL     1       1.236   8.247  20.956  0.00  0.00    +0.000 A 
ATOM      9  N   UNL     1       1.173   9.514  20.438  0.00  0.00    +0.000 N 
ATOM     10  C   UNL     1       0.780  10.699  21.051  0.00  0.00    +0.000 A 
ATOM     11  C   UNL     1       0.800  11.841  20.342  0.00  0.00    +0.000 A 
ATOM     12  C   UNL     1       1.240  11.798  18.954  0.00  0.00    +0.000 A 
ATOM     13  C   UNL     1       1.624  10.644  18.370  0.00  0.00    +0.000 A 
ATOM     14  C   UNL     1       1.596   9.430  19.115  0.00  0.00    +0.000 A 
ATOM     15  N   UNL     1       1.907   8.192  18.790  0.00  0.00    +0.000 NA
ENDBRANCH   5   7
BRANCH   1  16
ATOM     16  S   UNL     1       3.417   3.136  17.561  0.00  0.00    +0.000 S 
ATOM     17  O   UNL     1       2.406   3.216  16.531  0.00  0.00    +0.000 OA
ATOM     18  O   UNL     1       3.917   1.850  18.006  0.00  0.00    +0.000 OA
BRANCH  16  22
ATOM     19  C   UNL     1       6.462   5.455  14.760  0.00  0.00    +0.000 C 
ATOM     20  C   UNL     1       6.835   4.245  15.614  0.00  0.00    +0.000 C 
ATOM     21  C   UNL     1       5.621   3.385  16.006  0.00  0.00    +0.000 C 
ATOM     22  N   UNL     1       4.776   4.062  17.048  0.00  0.00    +0.000 NA
ATOM     23  C   UNL     1       5.637   4.454  18.216  0.00  0.00    +0.000 C 
ATOM     24  C   UNL     1       6.830   5.308  17.756  0.00  0.00    +0.000 C 
ATOM     25  C   UNL     1       7.757   5.605  18.929  0.00  0.00    +0.000 C 
ATOM     26  O   UNL     1       7.609   4.628  16.761  0.00  0.00    +0.000 OA
ENDBRANCH  16  22
ENDBRANCH   1  16
TORSDOF 3
ENDMDL
MODEL 3
REMARK VINA RESULT:      -7.9      0.970      1.072
REMARK  Name = 
REMARK  5 active torsions:
REMARK  status: ('A' for Active; 'I' for Inactive)
REMARK    1  A    between atoms: C_1  and  C_2
REMARK    2  A    between atoms: N_4  and  S_5
REMARK    3  A    between atoms: S_5  and  C_8
REMARK    4  A    between atoms: C_12  and  C_13
REMARK    5  A    between atoms: C_24  and  C_25
REMARK                            x       y       z     vdW  Elec       q    Type
REMARK                         _______ _______ _______ _____ _____    ______ ____
ROOT
ATOM      1  C   UNL     1       3.130   4.048  19.446  0.00  0.00    +0.000 A 
ATOM      2  C   UNL     1       2.264   3.244  20.192  0.00  0.00    +0.000 A 
ATOM      3  C   UNL     1       1.165   3.821  20.823  0.00  0.00    +0.000 A 
ATOM      4  C   UNL     1       0.946   5.196  20.723  0.00  0.00    +0.000 A 
ATOM      5  C   UNL     1       1.810   6.009  19.973  0.00  0.00    +0.000 A 
ATOM      6  C   UNL     1       2.887   5.418  19.300  0.00  0.00    +0.000 A 
ENDROOT
BRANCH   5   7
ATOM      7  C   UNL     1       1.643   7.452  19.935  0.00  0.00    +0.000 A 
ATOM      8  C   UNL     1       1.873   8.267  18.846  0.00  0.00    +0.000 A 
ATOM      9  N   UNL     1       1.528   9.530  19.251  0.00  0.00    +0.000 N 
ATOM     10  C   UNL     1       1.562  10.724  18.538  0.00  0.00    +0.000 A 
ATOM     11  C   UNL     1       1.170  11.858  19.143  0.00  0.00    +0.000 A 
ATOM     12  C   UNL     1       0.716  11.796  20.526  0.00  0.00    +0.000 A 
ATOM     13  C   UNL     1       0.683  10.632  21.206  0.00  0.00    +0.000 A 
ATOM     14  C   UNL     1       1.106   9.428  20.572  0.00  0.00    +0.000 A 
ATOM     15  N   UNL     1       1.176   8.186  21.004  0.00  0.00    +0.000 NA
ENDBRANCH   5   7
BRANCH   1  16
ATOM     16  S   UNL     1       4.510   3.303  18.619  0.00  0.00    +0.000 S 
ATOM     17  O   UNL     1       4.005   2.330  17.675  0.00  0.00    +0.000 OA
ATOM     18  O   UNL     1       5.469   2.916  19.634  0.00  0.00    +0.000 OA
BRANCH  16  22
ATOM     19  C   UNL     1       5.332   6.414  15.135  0.00  0.00    +0.000 C 
ATOM     20  C   UNL     1       6.356   5.398  15.635  0.00  0.00    +0.000 C 
ATOM     21  C   UNL     1       5.717   4.206  16.368  0.00  0.00    +0.000 C 
ATOM     22  N   UNL     1       5.207   4.600  17.726  0.00  0.00    +0.000 NA
ATOM     23  C   UNL     1       6.310   5.263  18.503  0.00  0.00    +0.000 C 
ATOM     24  C   UNL     1       6.905   6.441  17.716  0.00  0.00    +0.000 C 
ATOM     25  C   UNL     1       8.094   7.035  18.461  0.00  0.00    +0.000 C 
ATOM     26  O   UNL     1       7.377   6.024  16.426  0.00  0.00    +0.000 OA
ENDBRANCH  16  22
ENDBRANCH   1  16
TORSDOF 3
ENDMDL
MODEL 4
REMARK VINA RESULT:      -7.9      5.225      9.001
REMARK  Name = 
REMARK  5 active torsions:
REMARK  status: ('A' for Active; 'I' for Inactive)
REMARK    1  A    between atoms: C_1  and  C_2
REMARK    2  A    between atoms: N_4  and  S_5
REMARK    3  A    between atoms: S_5  and  C_8
REMARK    4  A    between atoms: C_12  and  C_13
REMARK    5  A    between atoms: C_24  and  C_25
REMARK                            x       y       z     vdW  Elec       q    Type
REMARK                         _______ _______ _______ _____ _____    ______ ____
ROOT
ATOM      1  C   UNL     1      -0.819  11.116  21.040  0.00  0.00    +0.000 A 
ATOM      2  C   UNL     1      -1.028  11.027  22.419  0.00  0.00    +0.000 A 
ATOM      3  C   UNL     1      -0.394  10.023  23.145  0.00  0.00    +0.000 A 
ATOM      4  C   UNL     1       0.427   9.102  22.492  0.00  0.00    +0.000 A 
ATOM      5  C   UNL     1       0.643   9.186  21.108  0.00  0.00    +0.000 A 
ATOM      6  C   UNL     1       0.043  10.228  20.388  0.00  0.00    +0.000 A 
ENDROOT
BRANCH   5   7
ATOM      7  C   UNL     1       1.423   8.182  20.405  0.00  0.00    +0.000 A 
ATOM      8  C   UNL     1       1.637   6.884  20.820  0.00  0.00    +0.000 A 
ATOM      9  N   UNL     1       2.370   6.294  19.824  0.00  0.00    +0.000 N 
ATOM     10  C   UNL     1       2.848   4.990  19.735  0.00  0.00    +0.000 A 
ATOM     11  C   UNL     1       3.552   4.624  18.650  0.00  0.00    +0.000 A 
ATOM     12  C   UNL     1       3.784   5.606  17.599  0.00  0.00    +0.000 A 
ATOM     13  C   UNL     1       3.313   6.866  17.694  0.00  0.00    +0.000 A 
ATOM     14  C   UNL     1       2.573   7.262  18.846  0.00  0.00    +0.000 A 
ATOM     15  N   UNL     1       2.018   8.408  19.183  0.00  0.00    +0.000 NA
ENDBRANCH   5   7
BRANCH   1  16
ATOM     16  S   UNL     1      -1.604  12.417  20.125  0.00  0.00    +0.000 S 
ATOM     17  O   UNL     1      -0.576  13.208  19.484  0.00  0.00    +0.000 OA
ATOM     18  O   UNL     1      -2.575  13.041  21.002  0.00  0.00    +0.000 OA
BRANCH  16  22
ATOM     19  C   UNL     1      -2.578   9.594  16.440  0.00  0.00    +0.000 C 
ATOM     20  C   UNL     1      -2.821  11.102  16.452  0.00  0.00    +0.000 C 
ATOM     21  C   UNL     1      -1.977  11.842  17.505  0.00  0.00    +0.000 C 
ATOM     22  N   UNL     1      -2.482  11.588  18.898  0.00  0.00    +0.000 NA
ATOM     23  C   UNL     1      -3.948  11.910  18.967  0.00  0.00    +0.000 C 
ATOM     24  C   UNL     1      -4.732  11.142  17.891  0.00  0.00    +0.000 C 
ATOM     25  C   UNL     1      -6.197  11.560  17.896  0.00  0.00    +0.000 C 
ATOM     26  O   UNL     1      -4.218  11.410  16.577  0.00  0.00    +0.000 OA
ENDBRANCH  16  22
ENDBRANCH   1  16
TORSDOF 3
ENDMDL
MODEL 5
REMARK VINA RESULT:      -7.8      5.266      8.982
REMARK  Name = 
REMARK  5 active torsions:
REMARK  status: ('A' for Active; 'I' for Inactive)
REMARK    1  A    between atoms: C_1  and  C_2
REMARK    2  A    between atoms: N_4  and  S_5
REMARK    3  A    between atoms: S_5  and  C_8
REMARK    4  A    between atoms: C_12  and  C_13
REMARK    5  A    between atoms: C_24  and  C_25
REMARK                            x       y       z     vdW  Elec       q    Type
REMARK                         _______ _______ _______ _____ _____    ______ ____
ROOT
ATOM      1  C   UNL     1      -0.893  11.138  21.158  0.00  0.00    +0.000 A 
ATOM      2  C   UNL     1      -1.037  11.009  22.542  0.00  0.00    +0.000 A 
ATOM      3  C   UNL     1      -0.355   9.998  23.212  0.00  0.00    +0.000 A 
ATOM      4  C   UNL     1       0.451   9.109  22.498  0.00  0.00    +0.000 A 
ATOM      5  C   UNL     1       0.603   9.234  21.108  0.00  0.00    +0.000 A 
ATOM      6  C   UNL     1      -0.047  10.282  20.445  0.00  0.00    +0.000 A 
ENDROOT
BRANCH   5   7
ATOM      7  C   UNL     1       1.367   8.262  20.344  0.00  0.00    +0.000 A 
ATOM      8  C   UNL     1       1.982   8.488  19.131  0.00  0.00    +0.000 A 
ATOM      9  N   UNL     1       2.628   7.320  18.821  0.00  0.00    +0.000 N 
ATOM     10  C   UNL     1       3.406   7.010  17.710  0.00  0.00    +0.000 A 
ATOM     11  C   UNL     1       3.952   5.785  17.615  0.00  0.00    +0.000 A 
ATOM     12  C   UNL     1       3.714   4.825  18.684  0.00  0.00    +0.000 A 
ATOM     13  C   UNL     1       2.961   5.137  19.759  0.00  0.00    +0.000 A 
ATOM     14  C   UNL     1       2.373   6.431  19.861  0.00  0.00    +0.000 A 
ATOM     15  N   UNL     1       1.608   6.978  20.783  0.00  0.00    +0.000 NA
ENDBRANCH   5   7
BRANCH   1  16
ATOM     16  S   UNL     1      -1.740  12.448  20.314  0.00  0.00    +0.000 S 
ATOM     17  O   UNL     1      -0.753  13.332  19.738  0.00  0.00    +0.000 OA
ATOM     18  O   UNL     1      -2.754  12.961  21.215  0.00  0.00    +0.000 OA
BRANCH  16  22
ATOM     19  C   UNL     1      -2.551   9.655  16.568  0.00  0.00    +0.000 C 
ATOM     20  C   UNL     1      -2.738  11.170  16.563  0.00  0.00    +0.000 C 
ATOM     21  C   UNL     1      -1.945  11.881  17.674  0.00  0.00    +0.000 C 
ATOM     22  N   UNL     1      -2.558  11.649  19.027  0.00  0.00    +0.000 NA
ATOM     23  C   UNL     1      -4.013  12.027  18.990  0.00  0.00    +0.000 C 
ATOM     24  C   UNL     1      -4.744  11.286  17.859  0.00  0.00    +0.000 C 
ATOM     25  C   UNL     1      -6.189  11.759  17.759  0.00  0.00    +0.000 C 
ATOM     26  O   UNL     1      -4.127  11.531  16.587  0.00  0.00    +0.000 OA
ENDBRANCH  16  22
ENDBRANCH   1  16
TORSDOF 3
ENDMDL
MODEL 6
REMARK VINA RESULT:      -7.8      4.332      6.418
REMARK  Name = 
REMARK  5 active torsions:
REMARK  status: ('A' for Active; 'I' for Inactive)
REMARK    1  A    between atoms: C_1  and  C_2
REMARK    2  A    between atoms: N_4  and  S_5
REMARK    3  A    between atoms: S_5  and  C_8
REMARK    4  A    between atoms: C_12  and  C_13
REMARK    5  A    between atoms: C_24  and  C_25
REMARK                            x       y       z     vdW  Elec       q    Type
REMARK                         _______ _______ _______ _____ _____    ______ ____
ROOT
ATOM      1  C   UNL     1       6.772   6.089  17.126  0.00  0.00    +0.000 A 
ATOM      2  C   UNL     1       7.237   5.129  18.029  0.00  0.00    +0.000 A 
ATOM      3  C   UNL     1       8.076   5.516  19.070  0.00  0.00    +0.000 A 
ATOM      4  C   UNL     1       8.463   6.852  19.194  0.00  0.00    +0.000 A 
ATOM      5  C   UNL     1       7.998   7.822  18.293  0.00  0.00    +0.000 A 
ATOM      6  C   UNL     1       7.114   7.438  17.276  0.00  0.00    +0.000 A 
ENDROOT
BRANCH   5   7
ATOM      7  C   UNL     1       8.463   9.197  18.360  0.00  0.00    +0.000 A 
ATOM      8  C   UNL     1       8.065  10.229  17.536  0.00  0.00    +0.000 A 
ATOM      9  N   UNL     1       8.711  11.344  18.002  0.00  0.00    +0.000 N 
ATOM     10  C   UNL     1       8.657  12.654  17.537  0.00  0.00    +0.000 A 
ATOM     11  C   UNL     1       9.383  13.599  18.158  0.00  0.00    +0.000 A 
ATOM     12  C   UNL     1      10.199  13.219  19.303  0.00  0.00    +0.000 A 
ATOM     13  C   UNL     1      10.241  11.947  19.749  0.00  0.00    +0.000 A 
ATOM     14  C   UNL     1       9.480  10.939  19.089  0.00  0.00    +0.000 A 
ATOM     15  N   UNL     1       9.350   9.648  19.313  0.00  0.00    +0.000 NA
ENDBRANCH   5   7
BRANCH   1  16
ATOM     16  S   UNL     1       5.678   5.596  15.820  0.00  0.00    +0.000 S 
ATOM     17  O   UNL     1       6.316   4.542  15.064  0.00  0.00    +0.000 OA
ATOM     18  O   UNL     1       5.216   6.801  15.161  0.00  0.00    +0.000 OA
BRANCH  16  22
ATOM     19  C   UNL     1       1.392   5.164  17.806  0.00  0.00    +0.000 C 
ATOM     20  C   UNL     1       2.708   5.027  18.569  0.00  0.00    +0.000 C 
ATOM     21  C   UNL     1       3.894   5.699  17.856  0.00  0.00    +0.000 C 
ATOM     22  N   UNL     1       4.328   4.918  16.647  0.00  0.00    +0.000 NA
ATOM     23  C   UNL     1       4.593   3.491  17.040  0.00  0.00    +0.000 C 
ATOM     24  C   UNL     1       3.372   2.881  17.748  0.00  0.00    +0.000 C 
ATOM     25  C   UNL     1       3.690   1.474  18.241  0.00  0.00    +0.000 C 
ATOM     26  O   UNL     1       2.989   3.657  18.893  0.00  0.00    +0.000 OA
ENDBRANCH  16  22
ENDBRANCH   1  16
TORSDOF 3
ENDMDL
MODEL 7
REMARK VINA RESULT:      -7.8      0.540      1.620
REMARK  Name = 
REMARK  5 active torsions:
REMARK  status: ('A' for Active; 'I' for Inactive)
REMARK    1  A    between atoms: C_1  and  C_2
REMARK    2  A    between atoms: N_4  and  S_5
REMARK    3  A    between atoms: S_5  and  C_8
REMARK    4  A    between atoms: C_12  and  C_13
REMARK    5  A    between atoms: C_24  and  C_25
REMARK                            x       y       z     vdW  Elec       q    Type
REMARK                         _______ _______ _______ _____ _____    ______ ____
ROOT
ATOM      1  C   UNL     1       2.895   3.994  18.991  0.00  0.00    +0.000 A 
ATOM      2  C   UNL     1       2.791   3.275  20.186  0.00  0.00    +0.000 A 
ATOM      3  C   UNL     1       2.292   3.903  21.323  0.00  0.00    +0.000 A 
ATOM      4  C   UNL     1       1.917   5.247  21.271  0.00  0.00    +0.000 A 
ATOM      5  C   UNL     1       2.016   5.975  20.074  0.00  0.00    +0.000 A 
ATOM      6  C   UNL     1       2.473   5.326  18.920  0.00  0.00    +0.000 A 
ENDROOT
BRANCH   5   7
ATOM      7  C   UNL     1       1.714   7.395  20.029  0.00  0.00    +0.000 A 
ATOM      8  C   UNL     1       1.871   8.223  18.937  0.00  0.00    +0.000 A 
ATOM      9  N   UNL     1       1.407   9.450  19.336  0.00  0.00    +0.000 N 
ATOM     10  C   UNL     1       1.330  10.639  18.617  0.00  0.00    +0.000 A 
ATOM     11  C   UNL     1       0.831  11.734  19.216  0.00  0.00    +0.000 A 
ATOM     12  C   UNL     1       0.380  11.635  20.598  0.00  0.00    +0.000 A 
ATOM     13  C   UNL     1       0.455  10.476  21.284  0.00  0.00    +0.000 A 
ATOM     14  C   UNL     1       0.991   9.314  20.656  0.00  0.00    +0.000 A 
ATOM     15  N   UNL     1       1.177   8.086  21.094  0.00  0.00    +0.000 NA
ENDBRANCH   5   7
BRANCH   1  16
ATOM     16  S   UNL     1       3.501   3.179  17.538  0.00  0.00    +0.000 S 
ATOM     17  O   UNL     1       2.620   3.496  16.436  0.00  0.00    +0.000 OA
ATOM     18  O   UNL     1       3.772   1.800  17.893  0.00  0.00    +0.000 OA
BRANCH  16  22
ATOM     19  C   UNL     1       7.645   5.359  18.292  0.00  0.00    +0.000 C 
ATOM     20  C   UNL     1       6.495   5.960  17.488  0.00  0.00    +0.000 C 
ATOM     21  C   UNL     1       5.132   5.324  17.813  0.00  0.00    +0.000 C 
ATOM     22  N   UNL     1       5.019   3.938  17.242  0.00  0.00    +0.000 NA
ATOM     23  C   UNL     1       5.331   3.973  15.772  0.00  0.00    +0.000 C 
ATOM     24  C   UNL     1       6.701   4.621  15.517  0.00  0.00    +0.000 C 
ATOM     25  C   UNL     1       6.959   4.754  14.021  0.00  0.00    +0.000 C 
ATOM     26  O   UNL     1       6.770   5.940  16.079  0.00  0.00    +0.000 OA
ENDBRANCH  16  22
ENDBRANCH   1  16
TORSDOF 3
ENDMDL
MODEL 8
REMARK VINA RESULT:      -7.8      1.114      1.603
REMARK  Name = 
REMARK  5 active torsions:
REMARK  status: ('A' for Active; 'I' for Inactive)
REMARK    1  A    between atoms: C_1  and  C_2
REMARK    2  A    between atoms: N_4  and  S_5
REMARK    3  A    between atoms: S_5  and  C_8
REMARK    4  A    between atoms: C_12  and  C_13
REMARK    5  A    between atoms: C_24  and  C_25
REMARK                            x       y       z     vdW  Elec       q    Type
REMARK                         _______ _______ _______ _____ _____    ______ ____
ROOT
ATOM      1  C   UNL     1       3.180   4.129  19.461  0.00  0.00    +0.000 A 
ATOM      2  C   UNL     1       2.359   3.336  20.269  0.00  0.00    +0.000 A 
ATOM      3  C   UNL     1       1.270   3.912  20.915  0.00  0.00    +0.000 A 
ATOM      4  C   UNL     1       1.013   5.277  20.770  0.00  0.00    +0.000 A 
ATOM      5  C   UNL     1       1.831   6.079  19.958  0.00  0.00    +0.000 A 
ATOM      6  C   UNL     1       2.898   5.487  19.271  0.00  0.00    +0.000 A 
ENDROOT
BRANCH   5   7
ATOM      7  C   UNL     1       1.627   7.515  19.870  0.00  0.00    +0.000 A 
ATOM      8  C   UNL     1       1.196   8.337  20.891  0.00  0.00    +0.000 A 
ATOM      9  N   UNL     1       1.210   9.606  20.373  0.00  0.00    +0.000 N 
ATOM     10  C   UNL     1       0.874  10.810  20.983  0.00  0.00    +0.000 A 
ATOM     11  C   UNL     1       0.966  11.950  20.276  0.00  0.00    +0.000 A 
ATOM     12  C   UNL     1       1.422  11.884  18.894  0.00  0.00    +0.000 A 
ATOM     13  C   UNL     1       1.749  10.711  18.314  0.00  0.00    +0.000 A 
ATOM     14  C   UNL     1       1.645   9.499  19.056  0.00  0.00    +0.000 A 
ATOM     15  N   UNL     1       1.892   8.247  18.733  0.00  0.00    +0.000 NA
ENDBRANCH   5   7
BRANCH   1  16
ATOM     16  S   UNL     1       4.548   3.384  18.615  0.00  0.00    +0.000 S 
ATOM     17  O   UNL     1       4.030   2.408  17.683  0.00  0.00    +0.000 OA
ATOM     18  O   UNL     1       5.523   3.002  19.617  0.00  0.00    +0.000 OA
BRANCH  16  22
ATOM     19  C   UNL     1       5.323   6.475  15.103  0.00  0.00    +0.000 C 
ATOM     20  C   UNL     1       6.358   5.471  15.604  0.00  0.00    +0.000 C 
ATOM     21  C   UNL     1       5.733   4.279  16.350  0.00  0.00    +0.000 C 
ATOM     22  N   UNL     1       5.229   4.680  17.709  0.00  0.00    +0.000 NA
ATOM     23  C   UNL     1       6.332   5.357  18.473  0.00  0.00    +0.000 C 
ATOM     24  C   UNL     1       6.913   6.534  17.673  0.00  0.00    +0.000 C 
ATOM     25  C   UNL     1       8.103   7.142  18.406  0.00  0.00    +0.000 C 
ATOM     26  O   UNL     1       7.380   6.110  16.383  0.00  0.00    +0.000 OA
ENDBRANCH  16  22
ENDBRANCH   1  16
TORSDOF 3
ENDMDL
MODEL 9
REMARK VINA RESULT:      -7.7      0.736      1.982
REMARK  Name = 
REMARK  5 active torsions:
REMARK  status: ('A' for Active; 'I' for Inactive)
REMARK    1  A    between atoms: C_1  and  C_2
REMARK    2  A    between atoms: N_4  and  S_5
REMARK    3  A    between atoms: S_5  and  C_8
REMARK    4  A    between atoms: C_12  and  C_13
REMARK    5  A    between atoms: C_24  and  C_25
REMARK                            x       y       z     vdW  Elec       q    Type
REMARK                         _______ _______ _______ _____ _____    ______ ____
ROOT
ATOM      1  C   UNL     1       2.890   3.971  19.008  0.00  0.00    +0.000 A 
ATOM      2  C   UNL     1       2.809   3.265  20.212  0.00  0.00    +0.000 A 
ATOM      3  C   UNL     1       2.314   3.899  21.348  0.00  0.00    +0.000 A 
ATOM      4  C   UNL     1       1.920   5.236  21.284  0.00  0.00    +0.000 A 
ATOM      5  C   UNL     1       1.995   5.951  20.078  0.00  0.00    +0.000 A 
ATOM      6  C   UNL     1       2.448   5.296  18.926  0.00  0.00    +0.000 A 
ENDROOT
BRANCH   5   7
ATOM      7  C   UNL     1       1.672   7.367  20.020  0.00  0.00    +0.000 A 
ATOM      8  C   UNL     1       1.203   8.134  21.065  0.00  0.00    +0.000 A 
ATOM      9  N   UNL     1       1.098   9.408  20.570  0.00  0.00    +0.000 N 
ATOM     10  C   UNL     1       0.680  10.571  21.209  0.00  0.00    +0.000 A 
ATOM     11  C   UNL     1       0.660  11.725  20.520  0.00  0.00    +0.000 A 
ATOM     12  C   UNL     1       1.082  11.718  19.126  0.00  0.00    +0.000 A 
ATOM     13  C   UNL     1       1.489  10.585  18.517  0.00  0.00    +0.000 A 
ATOM     14  C   UNL     1       1.505   9.358  19.241  0.00  0.00    +0.000 A 
ATOM     15  N   UNL     1       1.845   8.135  18.890  0.00  0.00    +0.000 NA
ENDBRANCH   5   7
BRANCH   1  16
ATOM     16  S   UNL     1       3.492   3.148  17.557  0.00  0.00    +0.000 S 
ATOM     17  O   UNL     1       2.613   3.468  16.454  0.00  0.00    +0.000 OA
ATOM     18  O   UNL     1       3.753   1.768  17.916  0.00  0.00    +0.000 OA
BRANCH  16  22
ATOM     19  C   UNL     1       7.664   5.274  18.310  0.00  0.00    +0.000 C 
ATOM     20  C   UNL     1       6.513   5.899  17.524  0.00  0.00    +0.000 C 
ATOM     21  C   UNL     1       5.147   5.272  17.851  0.00  0.00    +0.000 C 
ATOM     22  N   UNL     1       5.014   3.896  17.260  0.00  0.00    +0.000 NA
ATOM     23  C   UNL     1       5.315   3.950  15.789  0.00  0.00    +0.000 C 
ATOM     24  C   UNL     1       6.690   4.588  15.532  0.00  0.00    +0.000 C 
ATOM     25  C   UNL     1       6.936   4.741  14.036  0.00  0.00    +0.000 C 
ATOM     26  O   UNL     1       6.776   5.898  16.113  0.00  0.00    +0.000 OA
ENDBRANCH  16  22
ENDBRANCH   1  16
TORSDOF 3
ENDMDL
