MODEL 1
REMARK VINA RESULT:      -7.9      0.000      0.000
REMARK  Name = 
REMARK  6 active torsions:
REMARK  status: ('A' for Active; 'I' for Inactive)
REMARK    1  A    between atoms: C_2  and  C_3
REMARK    2  A    between atoms: C_3  and  C_4
REMARK    3  A    between atoms: C_4  and  C_5
REMARK    4  A    between atoms: C_5  and  N_6
REMARK    5  A    between atoms: C_7  and  C_9
REMARK    6  A    between atoms: C_9  and  C_10
REMARK                            x       y       z     vdW  Elec       q    Type
REMARK                         _______ _______ _______ _____ _____    ______ ____
ROOT
ATOM      1  C   UNL     1       4.801   3.392  19.310  0.00  0.00    +0.000 C 
ENDROOT
BRANCH   1   2
ATOM      2  N   UNL     1       5.093   4.406  18.327  0.00  0.00    +0.000 N 
ATOM      3  C   UNL     1       6.383   4.753  17.997  0.00  0.00    +0.000 C 
ATOM      4  O   UNL     1       7.386   4.316  18.548  0.00  0.00    +0.000 OA
ATOM      5  H   UNL     1       4.327   4.832  17.826  0.00  0.00    +0.000 HD
BRANCH   3   6
ATOM      6  C   UNL     1       6.487   5.745  16.870  0.00  0.00    +0.000 C 
ATOM      7  C   UNL     1       7.409   6.946  17.085  0.00  0.00    +0.000 C 
ATOM      8  C   UNL     1       5.929   7.152  17.092  0.00  0.00    +0.000 C 
BRANCH   6   9
ATOM      9  C   UNL     1       6.419   5.184  15.449  0.00  0.00    +0.000 A 
ATOM     10  C   UNL     1       7.463   5.387  14.529  0.00  0.00    +0.000 A 
ATOM     11  C   UNL     1       7.470   4.751  13.284  0.00  0.00    +0.000 A 
ATOM     12  C   UNL     1       6.419   3.912  12.925  0.00  0.00    +0.000 A 
ATOM     13  C   UNL     1       5.343   3.744  13.791  0.00  0.00    +0.000 A 
ATOM     14  C   UNL     1       5.339   4.385  15.032  0.00  0.00    +0.000 A 
ENDBRANCH   6   9
ENDBRANCH   3   6
ENDBRANCH   1   2
BRANCH   1  15
ATOM     15  C   UNL     1       3.440   2.740  19.080  0.00  0.00    +0.000 C 
BRANCH  15  16
ATOM     16  C   UNL     1       2.417   3.758  18.589  0.00  0.00    +0.000 C 
BRANCH  16  18
ATOM     17  O   UNL     1       0.990   4.048  20.514  0.00  0.00    +0.000 OA
ATOM     18  C   UNL     1       1.764   4.561  19.707  0.00  0.00    +0.000 C 
ATOM     19  N   UNL     1       2.107   5.892  19.744  0.00  0.00    +0.000 N 
ATOM     20  C   UNL     1       1.620   6.806  20.782  0.00  0.00    +0.000 C 
ATOM     21  C   UNL     1       1.541   8.113  20.051  0.00  0.00    +0.000 A 
ATOM     22  C   UNL     1       0.983   9.314  20.450  0.00  0.00    +0.000 A 
ATOM     23  C   UNL     1       0.938  10.360  19.522  0.00  0.00    +0.000 A 
ATOM     24  C   UNL     1       1.453  10.199  18.224  0.00  0.00    +0.000 A 
ATOM     25  C   UNL     1       2.059   9.003  17.847  0.00  0.00    +0.000 A 
ATOM     26  C   UNL     1       2.106   7.981  18.775  0.00  0.00    +0.000 A 
ATOM     27  C   UNL     1       2.684   6.617  18.617  0.00  0.00    +0.000 C 
ENDBRANCH  16  18
ENDBRANCH  15  16
ENDBRANCH   1  15
TORSDOF 6
ENDMDL
MODEL 2
REMARK VINA RESULT:      -7.9      3.733      7.327
REMARK  Name = 
REMARK  6 active torsions:
REMARK  status: ('A' for Active; 'I' for Inactive)
REMARK    1  A    between atoms: C_2  and  C_3
REMARK    2  A    between atoms: C_3  and  C_4
REMARK    3  A    between atoms: C_4  and  C_5
REMARK    4  A    between atoms: C_5  and  N_6
REMARK    5  A    between atoms: C_7  and  C_9
REMARK    6  A    between atoms: C_9  and  C_10
REMARK                            x       y       z     vdW  Elec       q    Type
REMARK                         _______ _______ _______ _____ _____    ______ ____
ROOT
ATOM      1  C   UNL     1       6.565   5.388  19.429  0.00  0.00    +0.000 C 
ENDROOT
BRANCH   1   2
ATOM      2  N   UNL     1       5.201   5.562  18.997  0.00  0.00    +0.000 N 
ATOM      3  C   UNL     1       4.245   4.593  19.190  0.00  0.00    +0.000 C 
ATOM      4  O   UNL     1       4.462   3.480  19.654  0.00  0.00    +0.000 OA
ATOM      5  H   UNL     1       4.928   6.447  18.592  0.00  0.00    +0.000 HD
BRANCH   3   6
ATOM      6  C   UNL     1       2.856   5.004  18.778  0.00  0.00    +0.000 C 
ATOM      7  C   UNL     1       1.740   3.977  18.979  0.00  0.00    +0.000 C 
ATOM      8  C   UNL     1       2.210   4.281  17.594  0.00  0.00    +0.000 C 
BRANCH   6   9
ATOM      9  C   UNL     1       2.479   6.470  18.990  0.00  0.00    +0.000 A 
ATOM     10  C   UNL     1       2.511   7.397  17.933  0.00  0.00    +0.000 A 
ATOM     11  C   UNL     1       2.025   8.698  18.091  0.00  0.00    +0.000 A 
ATOM     12  C   UNL     1       1.513   9.106  19.319  0.00  0.00    +0.000 A 
ATOM     13  C   UNL     1       1.528   8.228  20.399  0.00  0.00    +0.000 A 
ATOM     14  C   UNL     1       2.019   6.931  20.237  0.00  0.00    +0.000 A 
ENDBRANCH   6   9
ENDBRANCH   3   6
ENDBRANCH   1   2
BRANCH   1  15
ATOM     15  C   UNL     1       7.569   5.847  18.374  0.00  0.00    +0.000 C 
BRANCH  15  16
ATOM     16  C   UNL     1       8.247   7.148  18.788  0.00  0.00    +0.000 C 
BRANCH  16  18
ATOM     17  O   UNL     1       7.301   8.192  16.827  0.00  0.00    +0.000 OA
ATOM     18  C   UNL     1       7.907   8.331  17.889  0.00  0.00    +0.000 C 
ATOM     19  N   UNL     1       8.326   9.555  18.354  0.00  0.00    +0.000 N 
ATOM     20  C   UNL     1       8.041  10.809  17.651  0.00  0.00    +0.000 C 
ATOM     21  C   UNL     1       9.237  11.648  17.986  0.00  0.00    +0.000 A 
ATOM     22  C   UNL     1       9.629  12.871  17.472  0.00  0.00    +0.000 A 
ATOM     23  C   UNL     1      10.863  13.391  17.877  0.00  0.00    +0.000 A 
ATOM     24  C   UNL     1      11.678  12.697  18.787  0.00  0.00    +0.000 A 
ATOM     25  C   UNL     1      11.253  11.490  19.339  0.00  0.00    +0.000 A 
ATOM     26  C   UNL     1      10.029  10.991  18.939  0.00  0.00    +0.000 A 
ATOM     27  C   UNL     1       9.360   9.731  19.368  0.00  0.00    +0.000 C 
ENDBRANCH  16  18
ENDBRANCH  15  16
ENDBRANCH   1  15
TORSDOF 6
ENDMDL
MODEL 3
REMARK VINA RESULT:      -7.8      1.655      3.090
REMARK  Name = 
REMARK  6 active torsions:
REMARK  status: ('A' for Active; 'I' for Inactive)
REMARK    1  A    between atoms: C_2  and  C_3
REMARK    2  A    between atoms: C_3  and  C_4
REMARK    3  A    between atoms: C_4  and  C_5
REMARK    4  A    between atoms: C_5  and  N_6
REMARK    5  A    between atoms: C_7  and  C_9
REMARK    6  A    between atoms: C_9  and  C_10
REMARK                            x       y       z     vdW  Elec       q    Type
REMARK                         _______ _______ _______ _____ _____    ______ ____
ROOT
ATOM      1  C   UNL     1       3.322   1.991  17.932  0.00  0.00    +0.000 C 
ENDROOT
BRANCH   1   2
ATOM      2  N   UNL     1       4.428   2.638  17.270  0.00  0.00    +0.000 N 
ATOM      3  C   UNL     1       4.295   3.857  16.650  0.00  0.00    +0.000 C 
ATOM      4  O   UNL     1       3.239   4.464  16.519  0.00  0.00    +0.000 OA
ATOM      5  H   UNL     1       5.340   2.206  17.316  0.00  0.00    +0.000 HD
BRANCH   3   6
ATOM      6  C   UNL     1       5.584   4.424  16.118  0.00  0.00    +0.000 C 
ATOM      7  C   UNL     1       5.621   4.794  14.634  0.00  0.00    +0.000 C 
ATOM      8  C   UNL     1       6.375   3.593  15.105  0.00  0.00    +0.000 C 
BRANCH   6   9
ATOM      9  C   UNL     1       6.386   5.320  17.063  0.00  0.00    +0.000 A 
ATOM     10  C   UNL     1       6.980   4.809  18.231  0.00  0.00    +0.000 A 
ATOM     11  C   UNL     1       7.835   5.590  19.014  0.00  0.00    +0.000 A 
ATOM     12  C   UNL     1       8.098   6.908  18.654  0.00  0.00    +0.000 A 
ATOM     13  C   UNL     1       7.474   7.457  17.538  0.00  0.00    +0.000 A 
ATOM     14  C   UNL     1       6.617   6.674  16.762  0.00  0.00    +0.000 A 
ENDBRANCH   6   9
ENDBRANCH   3   6
ENDBRANCH   1   2
BRANCH   1  15
ATOM     15  C   UNL     1       3.676   1.545  19.348  0.00  0.00    +0.000 C 
BRANCH  15  16
ATOM     16  C   UNL     1       3.996   2.740  20.239  0.00  0.00    +0.000 C 
BRANCH  16  18
ATOM     17  O   UNL     1       1.755   3.017  21.093  0.00  0.00    +0.000 OA
ATOM     18  C   UNL     1       2.771   3.549  20.646  0.00  0.00    +0.000 C 
ATOM     19  N   UNL     1       2.888   4.908  20.478  0.00  0.00    +0.000 N 
ATOM     20  C   UNL     1       1.832   5.848  20.865  0.00  0.00    +0.000 C 
ATOM     21  C   UNL     1       1.993   6.949  19.861  0.00  0.00    +0.000 A 
ATOM     22  C   UNL     1       1.175   8.034  19.602  0.00  0.00    +0.000 A 
ATOM     23  C   UNL     1       1.497   8.859  18.520  0.00  0.00    +0.000 A 
ATOM     24  C   UNL     1       2.625   8.600  17.722  0.00  0.00    +0.000 A 
ATOM     25  C   UNL     1       3.472   7.535  18.020  0.00  0.00    +0.000 A 
ATOM     26  C   UNL     1       3.149   6.733  19.097  0.00  0.00    +0.000 A 
ATOM     27  C   UNL     1       3.878   5.540  19.611  0.00  0.00    +0.000 C 
ENDBRANCH  16  18
ENDBRANCH  15  16
ENDBRANCH   1  15
TORSDOF 6
ENDMDL
MODEL 4
REMARK VINA RESULT:      -7.8      5.127      7.789
REMARK  Name = 
REMARK  6 active torsions:
REMARK  status: ('A' for Active; 'I' for Inactive)
REMARK    1  A    between atoms: C_2  and  C_3
REMARK    2  A    between atoms: C_3  and  C_4
REMARK    3  A    between atoms: C_4  and  C_5
REMARK    4  A    between atoms: C_5  and  N_6
REMARK    5  A    between atoms: C_7  and  C_9
REMARK    6  A    between atoms: C_9  and  C_10
REMARK                            x       y       z     vdW  Elec       q    Type
REMARK                         _______ _______ _______ _____ _____    ______ ____
ROOT
ATOM      1  C   UNL     1       8.390   8.843  18.802  0.00  0.00    +0.000 C 
ENDROOT
BRANCH   1   2
ATOM      2  N   UNL     1       9.086  10.063  18.480  0.00  0.00    +0.000 N 
ATOM      3  C   UNL     1       9.621  10.877  19.451  0.00  0.00    +0.000 C 
ATOM      4  O   UNL     1       9.490  10.705  20.656  0.00  0.00    +0.000 OA
ATOM      5  H   UNL     1       9.235  10.295  17.508  0.00  0.00    +0.000 HD
BRANCH   3   6
ATOM      6  C   UNL     1      10.410  12.042  18.915  0.00  0.00    +0.000 C 
ATOM      7  C   UNL     1      11.338  11.766  17.731  0.00  0.00    +0.000 C 
ATOM      8  C   UNL     1      11.932  12.020  19.079  0.00  0.00    +0.000 C 
BRANCH   6   9
ATOM      9  C   UNL     1       9.726  13.409  18.940  0.00  0.00    +0.000 A 
ATOM     10  C   UNL     1       9.917  14.345  17.908  0.00  0.00    +0.000 A 
ATOM     11  C   UNL     1       9.179  15.530  17.853  0.00  0.00    +0.000 A 
ATOM     12  C   UNL     1       8.244  15.814  18.845  0.00  0.00    +0.000 A 
ATOM     13  C   UNL     1       8.080  14.934  19.912  0.00  0.00    +0.000 A 
ATOM     14  C   UNL     1       8.824  13.754  19.962  0.00  0.00    +0.000 A 
ENDBRANCH   6   9
ENDBRANCH   3   6
ENDBRANCH   1   2
BRANCH   1  15
ATOM     15  C   UNL     1       7.875   8.124  17.558  0.00  0.00    +0.000 C 
BRANCH  15  16
ATOM     16  C   UNL     1       7.669   6.637  17.826  0.00  0.00    +0.000 C 
BRANCH  16  18
ATOM     17  O   UNL     1       6.693   6.182  15.665  0.00  0.00    +0.000 OA
ATOM     18  C   UNL     1       6.678   5.974  16.878  0.00  0.00    +0.000 C 
ATOM     19  N   UNL     1       5.774   5.129  17.478  0.00  0.00    +0.000 N 
ATOM     20  C   UNL     1       4.782   4.362  16.719  0.00  0.00    +0.000 C 
ATOM     21  C   UNL     1       3.633   4.279  17.678  0.00  0.00    +0.000 A 
ATOM     22  C   UNL     1       2.341   3.830  17.470  0.00  0.00    +0.000 A 
ATOM     23  C   UNL     1       1.420   3.969  18.514  0.00  0.00    +0.000 A 
ATOM     24  C   UNL     1       1.797   4.540  19.742  0.00  0.00    +0.000 A 
ATOM     25  C   UNL     1       3.112   4.943  19.960  0.00  0.00    +0.000 A 
ATOM     26  C   UNL     1       4.015   4.792  18.925  0.00  0.00    +0.000 A 
ATOM     27  C   UNL     1       5.461   5.150  18.903  0.00  0.00    +0.000 C 
ENDBRANCH  16  18
ENDBRANCH  15  16
ENDBRANCH   1  15
TORSDOF 6
ENDMDL
MODEL 5
REMARK VINA RESULT:      -7.8      5.266      8.103
REMARK  Name = 
REMARK  6 active torsions:
REMARK  status: ('A' for Active; 'I' for Inactive)
REMARK    1  A    between atoms: C_2  and  C_3
REMARK    2  A    between atoms: C_3  and  C_4
REMARK    3  A    between atoms: C_4  and  C_5
REMARK    4  A    between atoms: C_5  and  N_6
REMARK    5  A    between atoms: C_7  and  C_9
REMARK    6  A    between atoms: C_9  and  C_10
REMARK                            x       y       z     vdW  Elec       q    Type
REMARK                         _______ _______ _______ _____ _____    ______ ____
ROOT
ATOM      1  C   UNL     1       7.916   9.607  17.837  0.00  0.00    +0.000 C 
ENDROOT
BRANCH   1   2
ATOM      2  N   UNL     1       8.985  10.269  18.544  0.00  0.00    +0.000 N 
ATOM      3  C   UNL     1       9.239  11.611  18.391  0.00  0.00    +0.000 C 
ATOM      4  O   UNL     1       8.663  12.346  17.598  0.00  0.00    +0.000 OA
ATOM      5  H   UNL     1       9.524   9.740  19.214  0.00  0.00    +0.000 HD
BRANCH   3   6
ATOM      6  C   UNL     1      10.317  12.143  19.298  0.00  0.00    +0.000 C 
ATOM      7  C   UNL     1      11.493  12.859  18.632  0.00  0.00    +0.000 C 
ATOM      8  C   UNL     1      11.705  11.503  19.223  0.00  0.00    +0.000 C 
BRANCH   6   9
ATOM      9  C   UNL     1       9.870  12.685  20.656  0.00  0.00    +0.000 A 
ATOM     10  C   UNL     1      10.110  14.019  21.030  0.00  0.00    +0.000 A 
ATOM     11  C   UNL     1       9.573  14.554  22.204  0.00  0.00    +0.000 A 
ATOM     12  C   UNL     1       8.798  13.757  23.042  0.00  0.00    +0.000 A 
ATOM     13  C   UNL     1       8.598  12.415  22.727  0.00  0.00    +0.000 A 
ATOM     14  C   UNL     1       9.141  11.886  21.555  0.00  0.00    +0.000 A 
ENDBRANCH   6   9
ENDBRANCH   3   6
ENDBRANCH   1   2
BRANCH   1  15
ATOM     15  C   UNL     1       8.110   8.094  17.779  0.00  0.00    +0.000 C 
BRANCH  15  16
ATOM     16  C   UNL     1       6.873   7.401  17.221  0.00  0.00    +0.000 C 
BRANCH  16  18
ATOM     17  O   UNL     1       7.765   5.159  17.141  0.00  0.00    +0.000 OA
ATOM     18  C   UNL     1       6.842   5.899  17.478  0.00  0.00    +0.000 C 
ATOM     19  N   UNL     1       5.712   5.440  18.113  0.00  0.00    +0.000 N 
ATOM     20  C   UNL     1       5.531   4.035  18.490  0.00  0.00    +0.000 C 
ATOM     21  C   UNL     1       4.047   3.855  18.372  0.00  0.00    +0.000 A 
ATOM     22  C   UNL     1       3.291   2.699  18.430  0.00  0.00    +0.000 A 
ATOM     23  C   UNL     1       1.920   2.795  18.171  0.00  0.00    +0.000 A 
ATOM     24  C   UNL     1       1.324   4.031  17.871  0.00  0.00    +0.000 A 
ATOM     25  C   UNL     1       2.084   5.199  17.865  0.00  0.00    +0.000 A 
ATOM     26  C   UNL     1       3.435   5.093  18.131  0.00  0.00    +0.000 A 
ATOM     27  C   UNL     1       4.455   6.178  18.175  0.00  0.00    +0.000 C 
ENDBRANCH  16  18
ENDBRANCH  15  16
ENDBRANCH   1  15
TORSDOF 6
ENDMDL
MODEL 6
REMARK VINA RESULT:      -7.8      5.178      8.049
REMARK  Name = 
REMARK  6 active torsions:
REMARK  status: ('A' for Active; 'I' for Inactive)
REMARK    1  A    between atoms: C_2  and  C_3
REMARK    2  A    between atoms: C_3  and  C_4
REMARK    3  A    between atoms: C_4  and  C_5
REMARK    4  A    between atoms: C_5  and  N_6
REMARK    5  A    between atoms: C_7  and  C_9
REMARK    6  A    between atoms: C_9  and  C_10
REMARK                            x       y       z     vdW  Elec       q    Type
REMARK                         _______ _______ _______ _____ _____    ______ ____
ROOT
ATOM      1  C   UNL     1       8.231   9.408  18.061  0.00  0.00    +0.000 C 
ENDROOT
BRANCH   1   2
ATOM      2  N   UNL     1       9.058  10.117  19.006  0.00  0.00    +0.000 N 
ATOM      3  C   UNL     1       9.673  11.305  18.689  0.00  0.00    +0.000 C 
ATOM      4  O   UNL     1       9.658  11.826  17.581  0.00  0.00    +0.000 OA
ATOM      5  H   UNL     1       9.139   9.756  19.946  0.00  0.00    +0.000 HD
BRANCH   3   6
ATOM      6  C   UNL     1      10.397  11.952  19.840  0.00  0.00    +0.000 C 
ATOM      7  C   UNL     1      11.551  12.893  19.493  0.00  0.00    +0.000 C 
ATOM      8  C   UNL     1      11.855  11.558  20.089  0.00  0.00    +0.000 C 
BRANCH   6   9
ATOM      9  C   UNL     1       9.557  12.325  21.062  0.00  0.00    +0.000 A 
ATOM     10  C   UNL     1       8.816  11.360  21.766  0.00  0.00    +0.000 A 
ATOM     11  C   UNL     1       8.170  11.672  22.966  0.00  0.00    +0.000 A 
ATOM     12  C   UNL     1       8.236  12.965  23.477  0.00  0.00    +0.000 A 
ATOM     13  C   UNL     1       8.909  13.954  22.766  0.00  0.00    +0.000 A 
ATOM     14  C   UNL     1       9.549  13.638  21.566  0.00  0.00    +0.000 A 
ENDBRANCH   6   9
ENDBRANCH   3   6
ENDBRANCH   1   2
BRANCH   1  15
ATOM     15  C   UNL     1       8.267   7.898  18.280  0.00  0.00    +0.000 C 
BRANCH  15  16
ATOM     16  C   UNL     1       7.150   7.202  17.509  0.00  0.00    +0.000 C 
BRANCH  16  18
ATOM     17  O   UNL     1       7.923   4.917  17.606  0.00  0.00    +0.000 OA
ATOM     18  C   UNL     1       7.015   5.718  17.827  0.00  0.00    +0.000 C 
ATOM     19  N   UNL     1       5.811   5.348  18.378  0.00  0.00    +0.000 N 
ATOM     20  C   UNL     1       5.522   3.973  18.798  0.00  0.00    +0.000 C 
ATOM     21  C   UNL     1       4.047   3.864  18.557  0.00  0.00    +0.000 A 
ATOM     22  C   UNL     1       3.227   2.751  18.597  0.00  0.00    +0.000 A 
ATOM     23  C   UNL     1       1.890   2.903  18.214  0.00  0.00    +0.000 A 
ATOM     24  C   UNL     1       1.391   4.153  17.808  0.00  0.00    +0.000 A 
ATOM     25  C   UNL     1       2.211   5.279  17.819  0.00  0.00    +0.000 A 
ATOM     26  C   UNL     1       3.526   5.118  18.208  0.00  0.00    +0.000 A 
ATOM     27  C   UNL     1       4.596   6.151  18.296  0.00  0.00    +0.000 C 
ENDBRANCH  16  18
ENDBRANCH  15  16
ENDBRANCH   1  15
TORSDOF 6
ENDMDL
MODEL 7
REMARK VINA RESULT:      -7.7      5.397      8.220
REMARK  Name = 
REMARK  6 active torsions:
REMARK  status: ('A' for Active; 'I' for Inactive)
REMARK    1  A    between atoms: C_2  and  C_3
REMARK    2  A    between atoms: C_3  and  C_4
REMARK    3  A    between atoms: C_4  and  C_5
REMARK    4  A    between atoms: C_5  and  N_6
REMARK    5  A    between atoms: C_7  and  C_9
REMARK    6  A    between atoms: C_9  and  C_10
REMARK                            x       y       z     vdW  Elec       q    Type
REMARK                         _______ _______ _______ _____ _____    ______ ____
ROOT
ATOM      1  C   UNL     1       7.921   9.494  18.192  0.00  0.00    +0.000 C 
ENDROOT
BRANCH   1   2
ATOM      2  N   UNL     1       9.110  10.216  18.568  0.00  0.00    +0.000 N 
ATOM      3  C   UNL     1       9.298  11.537  18.233  0.00  0.00    +0.000 C 
ATOM      4  O   UNL     1       8.542  12.193  17.528  0.00  0.00    +0.000 OA
ATOM      5  H   UNL     1       9.799   9.753  19.144  0.00  0.00    +0.000 HD
BRANCH   3   6
ATOM      6  C   UNL     1      10.545  12.150  18.813  0.00  0.00    +0.000 C 
ATOM      7  C   UNL     1      11.643  12.553  17.828  0.00  0.00    +0.000 C 
ATOM      8  C   UNL     1      11.854  11.363  18.706  0.00  0.00    +0.000 C 
BRANCH   6   9
ATOM      9  C   UNL     1      10.368  13.045  20.040  0.00  0.00    +0.000 A 
ATOM     10  C   UNL     1      10.899  14.346  20.082  0.00  0.00    +0.000 A 
ATOM     11  C   UNL     1      10.611  15.216  21.137  0.00  0.00    +0.000 A 
ATOM     12  C   UNL     1       9.799  14.794  22.186  0.00  0.00    +0.000 A 
ATOM     13  C   UNL     1       9.311  13.490  22.200  0.00  0.00    +0.000 A 
ATOM     14  C   UNL     1       9.606  12.624  21.145  0.00  0.00    +0.000 A 
ENDBRANCH   6   9
ENDBRANCH   3   6
ENDBRANCH   1   2
BRANCH   1  15
ATOM     15  C   UNL     1       8.239   8.223  17.408  0.00  0.00    +0.000 C 
BRANCH  15  16
ATOM     16  C   UNL     1       7.659   6.991  18.096  0.00  0.00    +0.000 C 
BRANCH  16  18
ATOM     17  O   UNL     1       7.315   5.947  15.947  0.00  0.00    +0.000 OA
ATOM     18  C   UNL     1       7.009   6.001  17.138  0.00  0.00    +0.000 C 
ATOM     19  N   UNL     1       6.063   5.180  17.703  0.00  0.00    +0.000 N 
ATOM     20  C   UNL     1       5.372   4.130  16.948  0.00  0.00    +0.000 C 
ATOM     21  C   UNL     1       4.028   4.083  17.611  0.00  0.00    +0.000 A 
ATOM     22  C   UNL     1       2.880   3.414  17.230  0.00  0.00    +0.000 A 
ATOM     23  C   UNL     1       1.714   3.633  17.971  0.00  0.00    +0.000 A 
ATOM     24  C   UNL     1       1.710   4.502  19.076  0.00  0.00    +0.000 A 
ATOM     25  C   UNL     1       2.883   5.133  19.483  0.00  0.00    +0.000 A 
ATOM     26  C   UNL     1       4.030   4.901  18.750  0.00  0.00    +0.000 A 
ATOM     27  C   UNL     1       5.395   5.457  18.971  0.00  0.00    +0.000 C 
ENDBRANCH  16  18
ENDBRANCH  15  16
ENDBRANCH   1  15
TORSDOF 6
ENDMDL
MODEL 8
REMARK VINA RESULT:      -7.7      5.191      8.077
REMARK  Name = 
REMARK  6 active torsions:
REMARK  status: ('A' for Active; 'I' for Inactive)
REMARK    1  A    between atoms: C_2  and  C_3
REMARK    2  A    between atoms: C_3  and  C_4
REMARK    3  A    between atoms: C_4  and  C_5
REMARK    4  A    between atoms: C_5  and  N_6
REMARK    5  A    between atoms: C_7  and  C_9
REMARK    6  A    between atoms: C_9  and  C_10
REMARK                            x       y       z     vdW  Elec       q    Type
REMARK                         _______ _______ _______ _____ _____    ______ ____
ROOT
ATOM      1  C   UNL     1       8.486   8.703  18.752  0.00  0.00    +0.000 C 
ENDROOT
BRANCH   1   2
ATOM      2  N   UNL     1       9.150   9.947  18.454  0.00  0.00    +0.000 N 
ATOM      3  C   UNL     1       9.575  10.803  19.443  0.00  0.00    +0.000 C 
ATOM      4  O   UNL     1       9.363  10.648  20.640  0.00  0.00    +0.000 OA
ATOM      5  H   UNL     1       9.360  10.167  17.491  0.00  0.00    +0.000 HD
BRANCH   3   6
ATOM      6  C   UNL     1      10.350  11.992  18.941  0.00  0.00    +0.000 C 
ATOM      7  C   UNL     1      11.208  11.784  17.692  0.00  0.00    +0.000 C 
ATOM      8  C   UNL     1      11.877  11.943  19.018  0.00  0.00    +0.000 C 
BRANCH   6   9
ATOM      9  C   UNL     1       9.687  13.362  19.092  0.00  0.00    +0.000 A 
ATOM     10  C   UNL     1       9.917  14.168  20.221  0.00  0.00    +0.000 A 
ATOM     11  C   UNL     1       9.433  15.477  20.291  0.00  0.00    +0.000 A 
ATOM     12  C   UNL     1       8.689  16.002  19.238  0.00  0.00    +0.000 A 
ATOM     13  C   UNL     1       8.394  15.203  18.136  0.00  0.00    +0.000 A 
ATOM     14  C   UNL     1       8.876  13.895  18.074  0.00  0.00    +0.000 A 
ENDBRANCH   6   9
ENDBRANCH   3   6
ENDBRANCH   1   2
BRANCH   1  15
ATOM     15  C   UNL     1       7.780   8.117  17.532  0.00  0.00    +0.000 C 
BRANCH  15  16
ATOM     16  C   UNL     1       7.343   6.679  17.786  0.00  0.00    +0.000 C 
BRANCH  16  18
ATOM     17  O   UNL     1       5.887   6.848  15.867  0.00  0.00    +0.000 OA
ATOM     18  C   UNL     1       6.241   6.197  16.850  0.00  0.00    +0.000 C 
ATOM     19  N   UNL     1       5.679   4.988  17.185  0.00  0.00    +0.000 N 
ATOM     20  C   UNL     1       4.644   4.343  16.372  0.00  0.00    +0.000 C 
ATOM     21  C   UNL     1       3.833   3.612  17.398  0.00  0.00    +0.000 A 
ATOM     22  C   UNL     1       2.618   2.963  17.265  0.00  0.00    +0.000 A 
ATOM     23  C   UNL     1       2.013   2.455  18.419  0.00  0.00    +0.000 A 
ATOM     24  C   UNL     1       2.623   2.591  19.677  0.00  0.00    +0.000 A 
ATOM     25  C   UNL     1       3.870   3.201  19.796  0.00  0.00    +0.000 A 
ATOM     26  C   UNL     1       4.463   3.690  18.648  0.00  0.00    +0.000 A 
ATOM     27  C   UNL     1       5.774   4.385  18.510  0.00  0.00    +0.000 C 
ENDBRANCH  16  18
ENDBRANCH  15  16
ENDBRANCH   1  15
TORSDOF 6
ENDMDL
MODEL 9
REMARK VINA RESULT:      -7.7      0.813      1.291
REMARK  Name = 
REMARK  6 active torsions:
REMARK  status: ('A' for Active; 'I' for Inactive)
REMARK    1  A    between atoms: C_2  and  C_3
REMARK    2  A    between atoms: C_3  and  C_4
REMARK    3  A    between atoms: C_4  and  C_5
REMARK    4  A    between atoms: C_5  and  N_6
REMARK    5  A    between atoms: C_7  and  C_9
REMARK    6  A    between atoms: C_9  and  C_10
REMARK                            x       y       z     vdW  Elec       q    Type
REMARK                         _______ _______ _______ _____ _____    ______ ____
ROOT
ATOM      1  C   UNL     1       4.290   2.366  17.761  0.00  0.00    +0.000 C 
ENDROOT
BRANCH   1   2
ATOM      2  N   UNL     1       4.607   3.492  16.917  0.00  0.00    +0.000 N 
ATOM      3  C   UNL     1       5.715   4.276  17.134  0.00  0.00    +0.000 C 
ATOM      4  O   UNL     1       6.477   4.162  18.087  0.00  0.00    +0.000 OA
ATOM      5  H   UNL     1       4.028   3.672  16.109  0.00  0.00    +0.000 HD
BRANCH   3   6
ATOM      6  C   UNL     1       5.943   5.329  16.083  0.00  0.00    +0.000 C 
ATOM      7  C   UNL     1       6.498   6.674  16.555  0.00  0.00    +0.000 C 
ATOM      8  C   UNL     1       5.071   6.587  16.119  0.00  0.00    +0.000 C 
BRANCH   6   9
ATOM      9  C   UNL     1       6.410   4.844  14.710  0.00  0.00    +0.000 A 
ATOM     10  C   UNL     1       5.723   3.832  14.016  0.00  0.00    +0.000 A 
ATOM     11  C   UNL     1       6.058   3.493  12.703  0.00  0.00    +0.000 A 
ATOM     12  C   UNL     1       7.105   4.148  12.060  0.00  0.00    +0.000 A 
ATOM     13  C   UNL     1       7.842   5.110  12.746  0.00  0.00    +0.000 A 
ATOM     14  C   UNL     1       7.505   5.441  14.060  0.00  0.00    +0.000 A 
ENDBRANCH   6   9
ENDBRANCH   3   6
ENDBRANCH   1   2
BRANCH   1  15
ATOM     15  C   UNL     1       3.605   2.790  19.058  0.00  0.00    +0.000 C 
BRANCH  15  16
ATOM     16  C   UNL     1       2.196   3.310  18.793  0.00  0.00    +0.000 C 
BRANCH  16  18
ATOM     17  O   UNL     1       0.909   3.830  20.768  0.00  0.00    +0.000 OA
ATOM     18  C   UNL     1       1.666   4.231  19.885  0.00  0.00    +0.000 C 
ATOM     19  N   UNL     1       2.100   5.534  19.809  0.00  0.00    +0.000 N 
ATOM     20  C   UNL     1       1.737   6.548  20.803  0.00  0.00    +0.000 C 
ATOM     21  C   UNL     1       1.702   7.805  19.987  0.00  0.00    +0.000 A 
ATOM     22  C   UNL     1       1.250   9.067  20.329  0.00  0.00    +0.000 A 
ATOM     23  C   UNL     1       1.221  10.048  19.333  0.00  0.00    +0.000 A 
ATOM     24  C   UNL     1       1.646   9.765  18.023  0.00  0.00    +0.000 A 
ATOM     25  C   UNL     1       2.147   8.506  17.700  0.00  0.00    +0.000 A 
ATOM     26  C   UNL     1       2.180   7.548  18.694  0.00  0.00    +0.000 A 
ATOM     27  C   UNL     1       2.656   6.139  18.603  0.00  0.00    +0.000 C 
ENDBRANCH  16  18
ENDBRANCH  15  16
ENDBRANCH   1  15
TORSDOF 6
ENDMDL
