MODEL 1
REMARK VINA RESULT:      -8.2      0.000      0.000
REMARK  Name = 
REMARK  6 active torsions:
REMARK  status: ('A' for Active; 'I' for Inactive)
REMARK    1  A    between atoms: C_1  and  C_2
REMARK    2  A    between atoms: C_5  and  O_6
REMARK    3  A    between atoms: O_6  and  C_7
REMARK    4  A    between atoms: C_10  and  N_11
REMARK    5  A    between atoms: C_12  and  C_14
REMARK    6  A    between atoms: N_16  and  C_17
REMARK                            x       y       z     vdW  Elec       q    Type
REMARK                         _______ _______ _______ _____ _____    ______ ____
ROOT
ATOM      1  N   UNL     1      -0.006  10.632  20.852  0.00  0.00    +0.000 N 
ATOM      2  C   UNL     1       0.394  11.869  21.299  0.00  0.00    +0.000 C 
ATOM      3  O   UNL     1       1.424  12.483  21.058  0.00  0.00    +0.000 OA
ATOM      4  H   UNL     1      -0.916  10.327  21.194  0.00  0.00    +0.000 HD
ENDROOT
BRANCH   1   8
ATOM      5  C   UNL     1       2.252   8.053  18.522  0.00  0.00    +0.000 A 
ATOM      6  C   UNL     1       1.629   9.100  17.868  0.00  0.00    +0.000 A 
ATOM      7  C   UNL     1       0.848   9.975  18.624  0.00  0.00    +0.000 A 
ATOM      8  C   UNL     1       0.711   9.776  19.999  0.00  0.00    +0.000 A 
ATOM      9  C   UNL     1       1.339   8.663  20.546  0.00  0.00    +0.000 A 
ATOM     10  N   UNL     1       2.084   7.788  19.839  0.00  0.00    +0.000 NA
BRANCH   5  11
ATOM     11  O   UNL     1       3.130   7.271  17.782  0.00  0.00    +0.000 OA
BRANCH  11  16
ATOM     12  C   UNL     1       3.154   1.649  18.597  0.00  0.00    +0.000 C 
ATOM     13  C   UNL     1       3.140   3.137  18.425  0.00  0.00    +0.000 A 
ATOM     14  C   UNL     1       4.283   3.915  18.655  0.00  0.00    +0.000 A 
ATOM     15  C   UNL     1       4.253   5.298  18.446  0.00  0.00    +0.000 A 
ATOM     16  C   UNL     1       3.082   5.910  18.001  0.00  0.00    +0.000 A 
ATOM     17  C   UNL     1       1.924   5.145  17.838  0.00  0.00    +0.000 A 
ATOM     18  C   UNL     1       1.959   3.764  18.020  0.00  0.00    +0.000 A 
ENDBRANCH  11  16
ENDBRANCH   5  11
ENDBRANCH   1   8
BRANCH   2  19
ATOM     19  C   UNL     1      -0.644  12.525  22.232  0.00  0.00    +0.000 C 
ATOM     20  O   UNL     1      -0.277  13.249  23.146  0.00  0.00    +0.000 OA
ATOM     21  N   UNL     1      -1.927  12.201  21.887  0.00  0.00    +0.000 N 
ATOM     22  H   UNL     1      -2.019  11.574  21.088  0.00  0.00    +0.000 HD
BRANCH  21  23
ATOM     23  C   UNL     1      -3.128  12.678  22.541  0.00  0.00    +0.000 C 
ATOM     24  C   UNL     1      -3.411  11.956  23.882  0.00  0.00    +0.000 C 
ATOM     25  C   UNL     1      -4.493  12.700  24.695  0.00  0.00    +0.000 C 
ATOM     26  C   UNL     1      -5.564  13.171  23.782  0.00  0.00    +0.000 A 
ATOM     27  N   UNL     1      -6.738  13.761  24.144  0.00  0.00    +0.000 N 
ATOM     28  N   UNL     1      -7.490  14.117  23.085  0.00  0.00    +0.000 NA
ATOM     29  C   UNL     1      -6.760  13.749  22.025  0.00  0.00    +0.000 A 
ATOM     30  C   UNL     1      -5.540  13.167  22.403  0.00  0.00    +0.000 A 
ATOM     31  C   UNL     1      -4.382  12.653  21.626  0.00  0.00    +0.000 C 
ATOM     32  H   UNL     1      -7.083  13.969  25.074  0.00  0.00    +0.000 HD
ENDBRANCH  21  23
ENDBRANCH   2  19
TORSDOF 5
ENDMDL
MODEL 2
REMARK VINA RESULT:      -8.2      8.853     11.152
REMARK  Name = 
REMARK  6 active torsions:
REMARK  status: ('A' for Active; 'I' for Inactive)
REMARK    1  A    between atoms: C_1  and  C_2
REMARK    2  A    between atoms: C_5  and  O_6
REMARK    3  A    between atoms: O_6  and  C_7
REMARK    4  A    between atoms: C_10  and  N_11
REMARK    5  A    between atoms: C_12  and  C_14
REMARK    6  A    between atoms: N_16  and  C_17
REMARK                            x       y       z     vdW  Elec       q    Type
REMARK                         _______ _______ _______ _____ _____    ______ ____
ROOT
ATOM      1  N   UNL     1       7.930   9.318  17.606  0.00  0.00    +0.000 N 
ATOM      2  C   UNL     1       8.705  10.146  18.383  0.00  0.00    +0.000 C 
ATOM      3  O   UNL     1       9.301   9.898  19.422  0.00  0.00    +0.000 OA
ATOM      4  H   UNL     1       7.532   9.758  16.777  0.00  0.00    +0.000 HD
ENDROOT
BRANCH   1   8
ATOM      5  C   UNL     1       6.847   5.372  18.263  0.00  0.00    +0.000 A 
ATOM      6  C   UNL     1       7.898   5.864  19.015  0.00  0.00    +0.000 A 
ATOM      7  C   UNL     1       8.296   7.185  18.804  0.00  0.00    +0.000 A 
ATOM      8  C   UNL     1       7.641   7.966  17.851  0.00  0.00    +0.000 A 
ATOM      9  C   UNL     1       6.630   7.356  17.115  0.00  0.00    +0.000 A 
ATOM     10  N   UNL     1       6.235   6.077  17.282  0.00  0.00    +0.000 NA
BRANCH   5  11
ATOM     11  O   UNL     1       6.378   4.103  18.577  0.00  0.00    +0.000 OA
BRANCH  11  16
ATOM     12  C   UNL     1       0.752   3.316  18.647  0.00  0.00    +0.000 C 
ATOM     13  C   UNL     1       2.229   3.563  18.612  0.00  0.00    +0.000 A 
ATOM     14  C   UNL     1       2.884   4.251  19.642  0.00  0.00    +0.000 A 
ATOM     15  C   UNL     1       4.272   4.431  19.604  0.00  0.00    +0.000 A 
ATOM     16  C   UNL     1       5.011   3.921  18.537  0.00  0.00    +0.000 A 
ATOM     17  C   UNL     1       4.349   3.296  17.476  0.00  0.00    +0.000 A 
ATOM     18  C   UNL     1       2.972   3.093  17.526  0.00  0.00    +0.000 A 
ENDBRANCH  11  16
ENDBRANCH   5  11
ENDBRANCH   1   8
BRANCH   2  19
ATOM     19  C   UNL     1       8.800  11.576  17.813  0.00  0.00    +0.000 C 
ATOM     20  O   UNL     1       7.857  12.057  17.201  0.00  0.00    +0.000 OA
ATOM     21  N   UNL     1      10.001  12.167  18.095  0.00  0.00    +0.000 N 
ATOM     22  H   UNL     1      10.659  11.589  18.618  0.00  0.00    +0.000 HD
BRANCH  21  23
ATOM     23  C   UNL     1      10.391  13.513  17.730  0.00  0.00    +0.000 C 
ATOM     24  C   UNL     1      11.915  13.755  17.861  0.00  0.00    +0.000 C 
ATOM     25  C   UNL     1      12.330  15.070  17.166  0.00  0.00    +0.000 C 
ATOM     26  C   UNL     1      11.313  16.117  17.438  0.00  0.00    +0.000 A 
ATOM     27  N   UNL     1      11.391  17.433  17.093  0.00  0.00    +0.000 N 
ATOM     28  N   UNL     1      10.291  18.128  17.439  0.00  0.00    +0.000 NA
ATOM     29  C   UNL     1       9.493  17.217  18.010  0.00  0.00    +0.000 A 
ATOM     30  C   UNL     1      10.076  15.940  18.021  0.00  0.00    +0.000 A 
ATOM     31  C   UNL     1       9.593  14.613  18.481  0.00  0.00    +0.000 C 
ATOM     32  H   UNL     1      12.138  17.920  16.611  0.00  0.00    +0.000 HD
ENDBRANCH  21  23
ENDBRANCH   2  19
TORSDOF 5
ENDMDL
MODEL 3
REMARK VINA RESULT:      -8.1      8.580     10.919
REMARK  Name = 
REMARK  6 active torsions:
REMARK  status: ('A' for Active; 'I' for Inactive)
REMARK    1  A    between atoms: C_1  and  C_2
REMARK    2  A    between atoms: C_5  and  O_6
REMARK    3  A    between atoms: O_6  and  C_7
REMARK    4  A    between atoms: C_10  and  N_11
REMARK    5  A    between atoms: C_12  and  C_14
REMARK    6  A    between atoms: N_16  and  C_17
REMARK                            x       y       z     vdW  Elec       q    Type
REMARK                         _______ _______ _______ _____ _____    ______ ____
ROOT
ATOM      1  N   UNL     1       7.140   8.326  17.265  0.00  0.00    +0.000 N 
ATOM      2  C   UNL     1       8.133   8.628  18.168  0.00  0.00    +0.000 C 
ATOM      3  O   UNL     1       8.682   7.903  18.986  0.00  0.00    +0.000 OA
ATOM      4  H   UNL     1       6.840   9.106  16.683  0.00  0.00    +0.000 HD
ENDROOT
BRANCH   1   8
ATOM      5  C   UNL     1       5.173   4.694  16.933  0.00  0.00    +0.000 A 
ATOM      6  C   UNL     1       6.467   4.748  16.451  0.00  0.00    +0.000 A 
ATOM      7  C   UNL     1       7.149   5.962  16.534  0.00  0.00    +0.000 A 
ATOM      8  C   UNL     1       6.520   7.079  17.087  0.00  0.00    +0.000 A 
ATOM      9  C   UNL     1       5.199   6.927  17.495  0.00  0.00    +0.000 A 
ATOM     10  N   UNL     1       4.506   5.772  17.410  0.00  0.00    +0.000 NA
BRANCH   5  11
ATOM     11  O   UNL     1       4.555   3.450  16.965  0.00  0.00    +0.000 OA
BRANCH  11  16
ATOM     12  C   UNL     1       0.978   2.603  21.296  0.00  0.00    +0.000 C 
ATOM     13  C   UNL     1       1.914   2.785  20.141  0.00  0.00    +0.000 A 
ATOM     14  C   UNL     1       1.450   3.144  18.867  0.00  0.00    +0.000 A 
ATOM     15  C   UNL     1       2.351   3.349  17.816  0.00  0.00    +0.000 A 
ATOM     16  C   UNL     1       3.720   3.200  18.033  0.00  0.00    +0.000 A 
ATOM     17  C   UNL     1       4.177   2.776  19.285  0.00  0.00    +0.000 A 
ATOM     18  C   UNL     1       3.284   2.597  20.339  0.00  0.00    +0.000 A 
ENDBRANCH  11  16
ENDBRANCH   5  11
ENDBRANCH   1   8
BRANCH   2  19
ATOM     19  C   UNL     1       8.573  10.105  18.092  0.00  0.00    +0.000 C 
ATOM     20  O   UNL     1       7.996  10.880  17.343  0.00  0.00    +0.000 OA
ATOM     21  N   UNL     1       9.612  10.378  18.939  0.00  0.00    +0.000 N 
ATOM     22  H   UNL     1       9.954   9.584  19.479  0.00  0.00    +0.000 HD
BRANCH  21  23
ATOM     23  C   UNL     1      10.234  11.672  19.128  0.00  0.00    +0.000 C 
ATOM     24  C   UNL     1      11.762  11.649  18.879  0.00  0.00    +0.000 C 
ATOM     25  C   UNL     1      12.329  13.081  18.772  0.00  0.00    +0.000 C 
ATOM     26  C   UNL     1      11.683  13.948  19.789  0.00  0.00    +0.000 A 
ATOM     27  N   UNL     1      12.006  15.240  20.077  0.00  0.00    +0.000 N 
ATOM     28  N   UNL     1      11.210  15.778  21.021  0.00  0.00    +0.000 NA
ATOM     29  C   UNL     1      10.354  14.796  21.327  0.00  0.00    +0.000 A 
ATOM     30  C   UNL     1      10.594  13.635  20.575  0.00  0.00    +0.000 A 
ATOM     31  C   UNL     1       9.909  12.319  20.502  0.00  0.00    +0.000 C 
ATOM     32  H   UNL     1      12.729  15.821  19.667  0.00  0.00    +0.000 HD
ENDBRANCH  21  23
ENDBRANCH   2  19
TORSDOF 5
ENDMDL
MODEL 4
REMARK VINA RESULT:      -7.9      1.055      1.148
REMARK  Name = 
REMARK  6 active torsions:
REMARK  status: ('A' for Active; 'I' for Inactive)
REMARK    1  A    between atoms: C_1  and  C_2
REMARK    2  A    between atoms: C_5  and  O_6
REMARK    3  A    between atoms: O_6  and  C_7
REMARK    4  A    between atoms: C_10  and  N_11
REMARK    5  A    between atoms: C_12  and  C_14
REMARK    6  A    between atoms: N_16  and  C_17
REMARK                            x       y       z     vdW  Elec       q    Type
REMARK                         _______ _______ _______ _____ _____    ______ ____
ROOT
ATOM      1  N   UNL     1      -0.186  10.230  20.907  0.00  0.00    +0.000 N 
ATOM      2  C   UNL     1       0.129  11.451  21.454  0.00  0.00    +0.000 C 
ATOM      3  O   UNL     1       1.145  12.120  21.320  0.00  0.00    +0.000 OA
ATOM      4  H   UNL     1      -1.102   9.868  21.170  0.00  0.00    +0.000 HD
ENDROOT
BRANCH   1   8
ATOM      5  C   UNL     1       2.336   7.911  18.576  0.00  0.00    +0.000 A 
ATOM      6  C   UNL     1       1.643   8.920  17.932  0.00  0.00    +0.000 A 
ATOM      7  C   UNL     1       0.774   9.706  18.688  0.00  0.00    +0.000 A 
ATOM      8  C   UNL     1       0.620   9.460  20.053  0.00  0.00    +0.000 A 
ATOM      9  C   UNL     1       1.326   8.389  20.589  0.00  0.00    +0.000 A 
ATOM     10  N   UNL     1       2.159   7.598  19.881  0.00  0.00    +0.000 NA
BRANCH   5  11
ATOM     11  O   UNL     1       3.293   7.225  17.840  0.00  0.00    +0.000 OA
BRANCH  11  16
ATOM     12  C   UNL     1       3.537   1.563  18.243  0.00  0.00    +0.000 C 
ATOM     13  C   UNL     1       3.467   3.058  18.180  0.00  0.00    +0.000 A 
ATOM     14  C   UNL     1       4.590   3.859  18.430  0.00  0.00    +0.000 A 
ATOM     15  C   UNL     1       4.506   5.252  18.323  0.00  0.00    +0.000 A 
ATOM     16  C   UNL     1       3.300   5.851  17.961  0.00  0.00    +0.000 A 
ATOM     17  C   UNL     1       2.163   5.057  17.779  0.00  0.00    +0.000 A 
ATOM     18  C   UNL     1       2.252   3.669  17.860  0.00  0.00    +0.000 A 
ENDBRANCH  11  16
ENDBRANCH   5  11
ENDBRANCH   1   8
BRANCH   2  19
ATOM     19  C   UNL     1      -0.993  12.005  22.356  0.00  0.00    +0.000 C 
ATOM     20  O   UNL     1      -1.107  11.611  23.507  0.00  0.00    +0.000 OA
ATOM     21  N   UNL     1      -1.760  12.937  21.712  0.00  0.00    +0.000 N 
ATOM     22  H   UNL     1      -1.500  13.122  20.743  0.00  0.00    +0.000 HD
BRANCH  21  23
ATOM     23  C   UNL     1      -2.871  13.666  22.288  0.00  0.00    +0.000 C 
ATOM     24  C   UNL     1      -2.439  14.608  23.440  0.00  0.00    +0.000 C 
ATOM     25  C   UNL     1      -3.571  15.593  23.804  0.00  0.00    +0.000 C 
ATOM     26  C   UNL     1      -4.875  14.883  23.779  0.00  0.00    +0.000 A 
ATOM     27  N   UNL     1      -6.082  15.388  24.158  0.00  0.00    +0.000 N 
ATOM     28  N   UNL     1      -7.091  14.515  23.979  0.00  0.00    +0.000 NA
ATOM     29  C   UNL     1      -6.500  13.432  23.461  0.00  0.00    +0.000 A 
ATOM     30  C   UNL     1      -5.118  13.613  23.300  0.00  0.00    +0.000 A 
ATOM     31  C   UNL     1      -4.045  12.754  22.734  0.00  0.00    +0.000 C 
ATOM     32  H   UNL     1      -6.298  16.310  24.523  0.00  0.00    +0.000 HD
ENDBRANCH  21  23
ENDBRANCH   2  19
TORSDOF 5
ENDMDL
MODEL 5
REMARK VINA RESULT:      -7.9      2.218     10.641
REMARK  Name = 
REMARK  6 active torsions:
REMARK  status: ('A' for Active; 'I' for Inactive)
REMARK    1  A    between atoms: C_1  and  C_2
REMARK    2  A    between atoms: C_5  and  O_6
REMARK    3  A    between atoms: O_6  and  C_7
REMARK    4  A    between atoms: C_10  and  N_11
REMARK    5  A    between atoms: C_12  and  C_14
REMARK    6  A    between atoms: N_16  and  C_17
REMARK                            x       y       z     vdW  Elec       q    Type
REMARK                         _______ _______ _______ _____ _____    ______ ____
ROOT
ATOM      1  N   UNL     1       1.069  10.052  20.548  0.00  0.00    +0.000 N 
ATOM      2  C   UNL     1       0.830   9.742  19.230  0.00  0.00    +0.000 C 
ATOM      3  O   UNL     1      -0.020  10.189  18.472  0.00  0.00    +0.000 OA
ATOM      4  H   UNL     1       1.840   9.540  20.974  0.00  0.00    +0.000 HD
ENDROOT
BRANCH   1   8
ATOM      5  C   UNL     1      -1.179  12.610  22.909  0.00  0.00    +0.000 A 
ATOM      6  C   UNL     1      -0.413  13.191  21.915  0.00  0.00    +0.000 A 
ATOM      7  C   UNL     1       0.368  12.356  21.115  0.00  0.00    +0.000 A 
ATOM      8  C   UNL     1       0.363  10.978  21.333  0.00  0.00    +0.000 A 
ATOM      9  C   UNL     1      -0.404  10.504  22.392  0.00  0.00    +0.000 A 
ATOM     10  N   UNL     1      -1.154  11.287  23.196  0.00  0.00    +0.000 NA
BRANCH   5  11
ATOM     11  O   UNL     1      -2.049  13.437  23.608  0.00  0.00    +0.000 OA
BRANCH  11  16
ATOM     12  C   UNL     1      -7.588  12.319  23.019  0.00  0.00    +0.000 C 
ATOM     13  C   UNL     1      -6.138  12.654  23.188  0.00  0.00    +0.000 A 
ATOM     14  C   UNL     1      -5.496  12.541  24.429  0.00  0.00    +0.000 A 
ATOM     15  C   UNL     1      -4.130  12.820  24.549  0.00  0.00    +0.000 A 
ATOM     16  C   UNL     1      -3.398  13.210  23.429  0.00  0.00    +0.000 A 
ATOM     17  C   UNL     1      -4.052  13.389  22.206  0.00  0.00    +0.000 A 
ATOM     18  C   UNL     1      -5.406  13.086  22.079  0.00  0.00    +0.000 A 
ENDBRANCH  11  16
ENDBRANCH   5  11
ENDBRANCH   1   8
BRANCH   2  19
ATOM     19  C   UNL     1       1.798   8.671  18.688  0.00  0.00    +0.000 C 
ATOM     20  O   UNL     1       2.266   8.778  17.564  0.00  0.00    +0.000 OA
ATOM     21  N   UNL     1       2.035   7.679  19.600  0.00  0.00    +0.000 N 
ATOM     22  H   UNL     1       1.539   7.774  20.486  0.00  0.00    +0.000 HD
BRANCH  21  23
ATOM     23  C   UNL     1       2.920   6.548  19.413  0.00  0.00    +0.000 C 
ATOM     24  C   UNL     1       3.342   6.352  17.936  0.00  0.00    +0.000 C 
ATOM     25  C   UNL     1       4.519   5.359  17.823  0.00  0.00    +0.000 C 
ATOM     26  C   UNL     1       4.312   4.232  18.767  0.00  0.00    +0.000 A 
ATOM     27  N   UNL     1       5.075   3.108  18.869  0.00  0.00    +0.000 N 
ATOM     28  N   UNL     1       4.661   2.285  19.851  0.00  0.00    +0.000 NA
ATOM     29  C   UNL     1       3.611   2.918  20.389  0.00  0.00    +0.000 A 
ATOM     30  C   UNL     1       3.360   4.147  19.760  0.00  0.00    +0.000 A 
ATOM     31  C   UNL     1       2.367   5.225  20.009  0.00  0.00    +0.000 C 
ATOM     32  H   UNL     1       5.892   2.844  18.329  0.00  0.00    +0.000 HD
ENDBRANCH  21  23
ENDBRANCH   2  19
TORSDOF 5
ENDMDL
MODEL 6
REMARK VINA RESULT:      -7.8      2.571     11.135
REMARK  Name = 
REMARK  6 active torsions:
REMARK  status: ('A' for Active; 'I' for Inactive)
REMARK    1  A    between atoms: C_1  and  C_2
REMARK    2  A    between atoms: C_5  and  O_6
REMARK    3  A    between atoms: O_6  and  C_7
REMARK    4  A    between atoms: C_10  and  N_11
REMARK    5  A    between atoms: C_12  and  C_14
REMARK    6  A    between atoms: N_16  and  C_17
REMARK                            x       y       z     vdW  Elec       q    Type
REMARK                         _______ _______ _______ _____ _____    ______ ____
ROOT
ATOM      1  N   UNL     1       1.114   8.837  21.001  0.00  0.00    +0.000 N 
ATOM      2  C   UNL     1       1.550   8.728  19.701  0.00  0.00    +0.000 C 
ATOM      3  O   UNL     1       1.489   9.546  18.794  0.00  0.00    +0.000 OA
ATOM      4  H   UNL     1       1.277   8.012  21.577  0.00  0.00    +0.000 HD
ENDROOT
BRANCH   1   8
ATOM      5  C   UNL     1      -0.933  11.961  22.795  0.00  0.00    +0.000 A 
ATOM      6  C   UNL     1      -0.142  12.278  21.706  0.00  0.00    +0.000 A 
ATOM      7  C   UNL     1       0.573  11.249  21.092  0.00  0.00    +0.000 A 
ATOM      8  C   UNL     1       0.480   9.946  21.583  0.00  0.00    +0.000 A 
ATOM      9  C   UNL     1      -0.305   9.747  22.714  0.00  0.00    +0.000 A 
ATOM     10  N   UNL     1      -0.993  10.724  23.342  0.00  0.00    +0.000 NA
BRANCH   5  11
ATOM     11  O   UNL     1      -1.739  12.968  23.312  0.00  0.00    +0.000 OA
BRANCH  11  16
ATOM     12  C   UNL     1      -7.303  12.582  22.230  0.00  0.00    +0.000 C 
ATOM     13  C   UNL     1      -5.840  12.727  22.516  0.00  0.00    +0.000 A 
ATOM     14  C   UNL     1      -5.357  12.869  23.825  0.00  0.00    +0.000 A 
ATOM     15  C   UNL     1      -3.981  12.960  24.066  0.00  0.00    +0.000 A 
ATOM     16  C   UNL     1      -3.082  12.906  23.002  0.00  0.00    +0.000 A 
ATOM     17  C   UNL     1      -3.567  12.835  21.693  0.00  0.00    +0.000 A 
ATOM     18  C   UNL     1      -4.934  12.717  21.452  0.00  0.00    +0.000 A 
ENDBRANCH  11  16
ENDBRANCH   5  11
ENDBRANCH   1   8
BRANCH   2  19
ATOM     19  C   UNL     1       2.196   7.359  19.405  0.00  0.00    +0.000 C 
ATOM     20  O   UNL     1       1.933   6.392  20.105  0.00  0.00    +0.000 OA
ATOM     21  N   UNL     1       3.025   7.403  18.318  0.00  0.00    +0.000 N 
ATOM     22  H   UNL     1       3.111   8.316  17.872  0.00  0.00    +0.000 HD
BRANCH  21  23
ATOM     23  C   UNL     1       3.755   6.283  17.762  0.00  0.00    +0.000 C 
ATOM     24  C   UNL     1       4.620   5.546  18.814  0.00  0.00    +0.000 C 
ATOM     25  C   UNL     1       5.117   4.189  18.271  0.00  0.00    +0.000 C 
ATOM     26  C   UNL     1       5.517   4.339  16.849  0.00  0.00    +0.000 A 
ATOM     27  N   UNL     1       6.113   3.394  16.069  0.00  0.00    +0.000 N 
ATOM     28  N   UNL     1       6.315   3.813  14.806  0.00  0.00    +0.000 NA
ATOM     29  C   UNL     1       5.820   5.057  14.789  0.00  0.00    +0.000 A 
ATOM     30  C   UNL     1       5.294   5.430  16.036  0.00  0.00    +0.000 A 
ATOM     31  C   UNL     1       4.602   6.654  16.515  0.00  0.00    +0.000 C 
ATOM     32  H   UNL     1       6.390   2.450  16.315  0.00  0.00    +0.000 HD
ENDBRANCH  21  23
ENDBRANCH   2  19
TORSDOF 5
ENDMDL
MODEL 7
REMARK VINA RESULT:      -7.8      2.734     11.328
REMARK  Name = 
REMARK  6 active torsions:
REMARK  status: ('A' for Active; 'I' for Inactive)
REMARK    1  A    between atoms: C_1  and  C_2
REMARK    2  A    between atoms: C_5  and  O_6
REMARK    3  A    between atoms: O_6  and  C_7
REMARK    4  A    between atoms: C_10  and  N_11
REMARK    5  A    between atoms: C_12  and  C_14
REMARK    6  A    between atoms: N_16  and  C_17
REMARK                            x       y       z     vdW  Elec       q    Type
REMARK                         _______ _______ _______ _____ _____    ______ ____
ROOT
ATOM      1  N   UNL     1       1.266   8.444  21.016  0.00  0.00    +0.000 N 
ATOM      2  C   UNL     1       1.609   8.332  19.689  0.00  0.00    +0.000 C 
ATOM      3  O   UNL     1       1.338   9.074  18.755  0.00  0.00    +0.000 OA
ATOM      4  H   UNL     1       1.611   7.693  21.611  0.00  0.00    +0.000 HD
ENDROOT
BRANCH   1   8
ATOM      5  C   UNL     1      -0.809  11.610  22.704  0.00  0.00    +0.000 A 
ATOM      6  C   UNL     1      -1.131  10.343  23.153  0.00  0.00    +0.000 A 
ATOM      7  C   UNL     1      -0.461   9.256  22.591  0.00  0.00    +0.000 A 
ATOM      8  C   UNL     1       0.500   9.465  21.601  0.00  0.00    +0.000 A 
ATOM      9  C   UNL     1       0.710  10.776  21.187  0.00  0.00    +0.000 A 
ATOM     10  N   UNL     1       0.065  11.846  21.697  0.00  0.00    +0.000 NA
BRANCH   5  11
ATOM     11  O   UNL     1      -1.386  12.686  23.364  0.00  0.00    +0.000 OA
BRANCH  11  16
ATOM     12  C   UNL     1      -7.010  13.322  22.867  0.00  0.00    +0.000 C 
ATOM     13  C   UNL     1      -5.532  13.112  22.986  0.00  0.00    +0.000 A 
ATOM     14  C   UNL     1      -4.685  13.195  21.872  0.00  0.00    +0.000 A 
ATOM     15  C   UNL     1      -3.302  13.037  22.020  0.00  0.00    +0.000 A 
ATOM     16  C   UNL     1      -2.759  12.799  23.282  0.00  0.00    +0.000 A 
ATOM     17  C   UNL     1      -3.610  12.648  24.381  0.00  0.00    +0.000 A 
ATOM     18  C   UNL     1      -4.984  12.831  24.240  0.00  0.00    +0.000 A 
ENDBRANCH  11  16
ENDBRANCH   5  11
ENDBRANCH   1   8
BRANCH   2  19
ATOM     19  C   UNL     1       2.453   7.074  19.399  0.00  0.00    +0.000 C 
ATOM     20  O   UNL     1       2.397   6.111  20.150  0.00  0.00    +0.000 OA
ATOM     21  N   UNL     1       3.194   7.201  18.257  0.00  0.00    +0.000 N 
ATOM     22  H   UNL     1       3.101   8.094  17.773  0.00  0.00    +0.000 HD
BRANCH  21  23
ATOM     23  C   UNL     1       4.064   6.190  17.693  0.00  0.00    +0.000 C 
ATOM     24  C   UNL     1       5.169   5.730  18.675  0.00  0.00    +0.000 C 
ATOM     25  C   UNL     1       5.860   4.444  18.170  0.00  0.00    +0.000 C 
ATOM     26  C   UNL     1       6.061   4.532  16.702  0.00  0.00    +0.000 A 
ATOM     27  N   UNL     1       6.740   3.645  15.922  0.00  0.00    +0.000 N 
ATOM     28  N   UNL     1       6.713   3.974  14.616  0.00  0.00    +0.000 NA
ATOM     29  C   UNL     1       5.984   5.096  14.575  0.00  0.00    +0.000 A 
ATOM     30  C   UNL     1       5.538   5.480  15.849  0.00  0.00    +0.000 A 
ATOM     31  C   UNL     1       4.676   6.593  16.324  0.00  0.00    +0.000 C 
ATOM     32  H   UNL     1       7.223   2.797  16.197  0.00  0.00    +0.000 HD
ENDBRANCH  21  23
ENDBRANCH   2  19
TORSDOF 5
ENDMDL
MODEL 8
REMARK VINA RESULT:      -7.8      2.164     10.620
REMARK  Name = 
REMARK  6 active torsions:
REMARK  status: ('A' for Active; 'I' for Inactive)
REMARK    1  A    between atoms: C_1  and  C_2
REMARK    2  A    between atoms: C_5  and  O_6
REMARK    3  A    between atoms: O_6  and  C_7
REMARK    4  A    between atoms: C_10  and  N_11
REMARK    5  A    between atoms: C_12  and  C_14
REMARK    6  A    between atoms: N_16  and  C_17
REMARK                            x       y       z     vdW  Elec       q    Type
REMARK                         _______ _______ _______ _____ _____    ______ ____
ROOT
ATOM      1  N   UNL     1       1.112   9.695  20.445  0.00  0.00    +0.000 N 
ATOM      2  C   UNL     1       1.115   9.620  19.072  0.00  0.00    +0.000 C 
ATOM      3  O   UNL     1       0.587  10.362  18.255  0.00  0.00    +0.000 OA
ATOM      4  H   UNL     1       1.627   8.953  20.915  0.00  0.00    +0.000 HD
ENDROOT
BRANCH   1   8
ATOM      5  C   UNL     1      -0.944  12.410  22.806  0.00  0.00    +0.000 A 
ATOM      6  C   UNL     1      -0.146  12.933  21.805  0.00  0.00    +0.000 A 
ATOM      7  C   UNL     1       0.571  12.044  21.005  0.00  0.00    +0.000 A 
ATOM      8  C   UNL     1       0.474  10.670  21.230  0.00  0.00    +0.000 A 
ATOM      9  C   UNL     1      -0.318  10.255  22.295  0.00  0.00    +0.000 A 
ATOM     10  N   UNL     1      -1.008  11.090  23.099  0.00  0.00    +0.000 NA
BRANCH   5  11
ATOM     11  O   UNL     1      -1.752  13.297  23.506  0.00  0.00    +0.000 OA
BRANCH  11  16
ATOM     12  C   UNL     1      -7.374  12.624  23.035  0.00  0.00    +0.000 C 
ATOM     13  C   UNL     1      -5.886  12.761  23.145  0.00  0.00    +0.000 A 
ATOM     14  C   UNL     1      -5.097  13.117  22.043  0.00  0.00    +0.000 A 
ATOM     15  C   UNL     1      -3.714  13.279  22.184  0.00  0.00    +0.000 A 
ATOM     16  C   UNL     1      -3.114  13.089  23.428  0.00  0.00    +0.000 A 
ATOM     17  C   UNL     1      -3.891  12.666  24.510  0.00  0.00    +0.000 A 
ATOM     18  C   UNL     1      -5.271  12.530  24.378  0.00  0.00    +0.000 A 
ENDBRANCH  11  16
ENDBRANCH   5  11
ENDBRANCH   1   8
BRANCH   2  19
ATOM     19  C   UNL     1       1.912   8.409  18.547  0.00  0.00    +0.000 C 
ATOM     20  O   UNL     1       2.410   8.437  17.431  0.00  0.00    +0.000 OA
ATOM     21  N   UNL     1       1.974   7.395  19.463  0.00  0.00    +0.000 N 
ATOM     22  H   UNL     1       1.484   7.569  20.341  0.00  0.00    +0.000 HD
BRANCH  21  23
ATOM     23  C   UNL     1       2.672   6.137  19.292  0.00  0.00    +0.000 C 
ATOM     24  C   UNL     1       4.176   6.323  18.973  0.00  0.00    +0.000 C 
ATOM     25  C   UNL     1       4.942   4.990  19.118  0.00  0.00    +0.000 C 
ATOM     26  C   UNL     1       4.123   3.883  18.563  0.00  0.00    +0.000 A 
ATOM     27  N   UNL     1       4.509   2.586  18.406  0.00  0.00    +0.000 N 
ATOM     28  N   UNL     1       3.529   1.806  17.914  0.00  0.00    +0.000 NA
ATOM     29  C   UNL     1       2.490   2.637  17.768  0.00  0.00    +0.000 A 
ATOM     30  C   UNL     1       2.801   3.944  18.174  0.00  0.00    +0.000 A 
ATOM     31  C   UNL     1       2.002   5.194  18.257  0.00  0.00    +0.000 C 
ATOM     32  H   UNL     1       5.403   2.159  18.627  0.00  0.00    +0.000 HD
ENDBRANCH  21  23
ENDBRANCH   2  19
TORSDOF 5
ENDMDL
MODEL 9
REMARK VINA RESULT:      -7.8      0.665      1.077
REMARK  Name = 
REMARK  6 active torsions:
REMARK  status: ('A' for Active; 'I' for Inactive)
REMARK    1  A    between atoms: C_1  and  C_2
REMARK    2  A    between atoms: C_5  and  O_6
REMARK    3  A    between atoms: O_6  and  C_7
REMARK    4  A    between atoms: C_10  and  N_11
REMARK    5  A    between atoms: C_12  and  C_14
REMARK    6  A    between atoms: N_16  and  C_17
REMARK                            x       y       z     vdW  Elec       q    Type
REMARK                         _______ _______ _______ _____ _____    ______ ____
ROOT
ATOM      1  N   UNL     1      -0.164  11.032  20.321  0.00  0.00    +0.000 N 
ATOM      2  C   UNL     1       0.292  12.158  20.965  0.00  0.00    +0.000 C 
ATOM      3  O   UNL     1       1.442  12.541  21.132  0.00  0.00    +0.000 OA
ATOM      4  H   UNL     1      -1.177  10.925  20.312  0.00  0.00    +0.000 HD
ENDROOT
BRANCH   1   8
ATOM      5  C   UNL     1       2.261   8.084  18.707  0.00  0.00    +0.000 A 
ATOM      6  C   UNL     1       1.798   9.055  17.838  0.00  0.00    +0.000 A 
ATOM      7  C   UNL     1       0.966  10.051  18.350  0.00  0.00    +0.000 A 
ATOM      8  C   UNL     1       0.620  10.044  19.702  0.00  0.00    +0.000 A 
ATOM      9  C   UNL     1       1.100   8.993  20.475  0.00  0.00    +0.000 A 
ATOM     10  N   UNL     1       1.890   8.004  20.007  0.00  0.00    +0.000 NA
BRANCH   5  11
ATOM     11  O   UNL     1       3.191   7.178  18.213  0.00  0.00    +0.000 OA
BRANCH  11  16
ATOM     12  C   UNL     1       1.986   1.728  19.268  0.00  0.00    +0.000 C 
ATOM     13  C   UNL     1       2.327   3.152  18.955  0.00  0.00    +0.000 A 
ATOM     14  C   UNL     1       1.583   3.901  18.032  0.00  0.00    +0.000 A 
ATOM     15  C   UNL     1       1.898   5.243  17.790  0.00  0.00    +0.000 A 
ATOM     16  C   UNL     1       2.955   5.844  18.472  0.00  0.00    +0.000 A 
ATOM     17  C   UNL     1       3.739   5.078  19.340  0.00  0.00    +0.000 A 
ATOM     18  C   UNL     1       3.411   3.750  19.602  0.00  0.00    +0.000 A 
ENDBRANCH  11  16
ENDBRANCH   5  11
ENDBRANCH   1   8
BRANCH   2  19
ATOM     19  C   UNL     1      -0.853  13.018  21.536  0.00  0.00    +0.000 C 
ATOM     20  O   UNL     1      -0.814  14.236  21.438  0.00  0.00    +0.000 OA
ATOM     21  N   UNL     1      -1.837  12.257  22.106  0.00  0.00    +0.000 N 
ATOM     22  H   UNL     1      -1.674  11.250  22.087  0.00  0.00    +0.000 HD
BRANCH  21  23
ATOM     23  C   UNL     1      -3.059  12.756  22.701  0.00  0.00    +0.000 C 
ATOM     24  C   UNL     1      -3.449  12.003  23.996  0.00  0.00    +0.000 C 
ATOM     25  C   UNL     1      -4.554  12.760  24.766  0.00  0.00    +0.000 C 
ATOM     26  C   UNL     1      -5.549  13.298  23.805  0.00  0.00    +0.000 A 
ATOM     27  N   UNL     1      -6.722  13.918  24.114  0.00  0.00    +0.000 N 
ATOM     28  N   UNL     1      -7.394  14.335  23.024  0.00  0.00    +0.000 NA
ATOM     29  C   UNL     1      -6.613  13.974  21.999  0.00  0.00    +0.000 A 
ATOM     30  C   UNL     1      -5.439  13.337  22.432  0.00  0.00    +0.000 A 
ATOM     31  C   UNL     1      -4.254  12.806  21.710  0.00  0.00    +0.000 C 
ATOM     32  H   UNL     1      -7.118  14.110  25.029  0.00  0.00    +0.000 HD
ENDBRANCH  21  23
ENDBRANCH   2  19
TORSDOF 5
ENDMDL
