MODEL 1
REMARK VINA RESULT:      -8.7      0.000      0.000
REMARK  Name = 
REMARK  4 active torsions:
REMARK  status: ('A' for Active; 'I' for Inactive)
REMARK    1  A    between atoms: C_2  and  C_3
REMARK    2  A    between atoms: C_6  and  N_7
REMARK    3  A    between atoms: C_10  and  C_11
REMARK    4  A    between atoms: C_21  and  C_22
REMARK                            x       y       z     vdW  Elec       q    Type
REMARK                         _______ _______ _______ _____ _____    ______ ____
ROOT
ATOM      1  C   UNL     1       2.927   6.425  18.701  0.00  0.00    +0.000 A 
ATOM      2  C   UNL     1       2.937   5.059  18.394  0.00  0.00    +0.000 A 
ATOM      3  C   UNL     1       3.766   4.568  17.376  0.00  0.00    +0.000 A 
ATOM      4  C   UNL     1       4.593   5.448  16.661  0.00  0.00    +0.000 A 
ATOM      5  C   UNL     1       4.584   6.814  16.978  0.00  0.00    +0.000 A 
ATOM      6  C   UNL     1       3.782   7.290  18.015  0.00  0.00    +0.000 A 
ENDROOT
BRANCH   1   8
ATOM      7  O   UNL     1       1.886   6.146  20.768  0.00  0.00    +0.000 OA
ATOM      8  C   UNL     1       2.093   6.913  19.830  0.00  0.00    +0.000 C 
ATOM      9  N   UNL     1       1.587   8.204  19.790  0.00  0.00    +0.000 N 
ATOM     10  C   UNL     1       0.873   8.747  20.932  0.00  0.00    +0.000 C 
ATOM     11  C   UNL     1      -0.095   9.765  20.347  0.00  0.00    +0.000 C 
ATOM     12  C   UNL     1       0.559  10.235  19.042  0.00  0.00    +0.000 C 
ATOM     13  C   UNL     1       1.372   9.015  18.591  0.00  0.00    +0.000 C 
BRANCH  12  14
ATOM     14  C   UNL     1       1.398  11.496  19.160  0.00  0.00    +0.000 A 
ATOM     15  C   UNL     1       2.223  11.964  18.124  0.00  0.00    +0.000 A 
ATOM     16  C   UNL     1       2.953  13.148  18.263  0.00  0.00    +0.000 A 
ATOM     17  C   UNL     1       2.862  13.894  19.435  0.00  0.00    +0.000 A 
ATOM     18  C   UNL     1       2.040  13.443  20.460  0.00  0.00    +0.000 A 
ATOM     19  F   UNL     1       1.936  14.166  21.582  0.00  0.00    +0.000 F 
ATOM     20  C   UNL     1       1.317  12.260  20.336  0.00  0.00    +0.000 A 
ENDBRANCH  12  14
ENDBRANCH   1   8
BRANCH   4  21
ATOM     21  N   UNL     1       5.482   4.981  15.653  0.00  0.00    +0.000 N 
ATOM     22  C   UNL     1       6.854   5.082  15.615  0.00  0.00    +0.000 A 
ATOM     23  C   UNL     1       7.263   4.568  14.408  0.00  0.00    +0.000 A 
ATOM     24  C   UNL     1       6.078   4.148  13.757  0.00  0.00    +0.000 A 
ATOM     25  N   UNL     1       5.003   4.375  14.536  0.00  0.00    +0.000 NA
BRANCH  24  26
ATOM     26  C   UNL     1       5.974   3.537  12.385  0.00  0.00    +0.000 C 
ATOM     27  F   UNL     1       6.910   4.048  11.537  0.00  0.00    +0.000 F 
ATOM     28  F   UNL     1       6.162   2.192  12.396  0.00  0.00    +0.000 F 
ATOM     29  F   UNL     1       4.767   3.767  11.803  0.00  0.00    +0.000 F 
ENDBRANCH  24  26
ENDBRANCH   4  21
TORSDOF 4
ENDMDL
MODEL 2
REMARK VINA RESULT:      -8.7      5.492      8.585
REMARK  Name = 
REMARK  4 active torsions:
REMARK  status: ('A' for Active; 'I' for Inactive)
REMARK    1  A    between atoms: C_2  and  C_3
REMARK    2  A    between atoms: C_6  and  N_7
REMARK    3  A    between atoms: C_10  and  C_11
REMARK    4  A    between atoms: C_21  and  C_22
REMARK                            x       y       z     vdW  Elec       q    Type
REMARK                         _______ _______ _______ _____ _____    ______ ____
ROOT
ATOM      1  C   UNL     1       7.557   6.518  17.712  0.00  0.00    +0.000 A 
ATOM      2  C   UNL     1       7.383   7.660  16.921  0.00  0.00    +0.000 A 
ATOM      3  C   UNL     1       7.869   8.901  17.352  0.00  0.00    +0.000 A 
ATOM      4  C   UNL     1       8.536   9.004  18.583  0.00  0.00    +0.000 A 
ATOM      5  C   UNL     1       8.714   7.855  19.367  0.00  0.00    +0.000 A 
ATOM      6  C   UNL     1       8.258   6.617  18.916  0.00  0.00    +0.000 A 
ENDROOT
BRANCH   1   8
ATOM      7  O   UNL     1       7.937   4.438  16.731  0.00  0.00    +0.000 OA
ATOM      8  C   UNL     1       7.096   5.200  17.203  0.00  0.00    +0.000 C 
ATOM      9  N   UNL     1       5.749   4.878  17.281  0.00  0.00    +0.000 N 
ATOM     10  C   UNL     1       5.290   3.552  16.905  0.00  0.00    +0.000 C 
ATOM     11  C   UNL     1       3.859   3.748  16.429  0.00  0.00    +0.000 C 
ATOM     12  C   UNL     1       3.359   4.996  17.167  0.00  0.00    +0.000 C 
ATOM     13  C   UNL     1       4.635   5.820  17.378  0.00  0.00    +0.000 C 
BRANCH  12  14
ATOM     14  C   UNL     1       2.610   4.721  18.461  0.00  0.00    +0.000 A 
ATOM     15  C   UNL     1       2.766   5.506  19.615  0.00  0.00    +0.000 A 
ATOM     16  C   UNL     1       2.032   5.238  20.774  0.00  0.00    +0.000 A 
ATOM     17  C   UNL     1       1.117   4.189  20.797  0.00  0.00    +0.000 A 
ATOM     18  C   UNL     1       0.949   3.414  19.656  0.00  0.00    +0.000 A 
ATOM     19  F   UNL     1       0.059   2.415  19.667  0.00  0.00    +0.000 F 
ATOM     20  C   UNL     1       1.683   3.667  18.500  0.00  0.00    +0.000 A 
ENDBRANCH  12  14
ENDBRANCH   1   8
BRANCH   4  21
ATOM     21  N   UNL     1       9.084  10.237  19.034  0.00  0.00    +0.000 N 
ATOM     22  C   UNL     1       9.294  10.653  20.328  0.00  0.00    +0.000 A 
ATOM     23  C   UNL     1       9.758  11.944  20.267  0.00  0.00    +0.000 A 
ATOM     24  C   UNL     1       9.828  12.253  18.887  0.00  0.00    +0.000 A 
ATOM     25  N   UNL     1       9.446  11.197  18.144  0.00  0.00    +0.000 NA
BRANCH  24  26
ATOM     26  C   UNL     1      10.253  13.565  18.281  0.00  0.00    +0.000 C 
ATOM     27  F   UNL     1       9.261  14.496  18.354  0.00  0.00    +0.000 F 
ATOM     28  F   UNL     1      11.332  14.104  18.906  0.00  0.00    +0.000 F 
ATOM     29  F   UNL     1      10.571  13.450  16.963  0.00  0.00    +0.000 F 
ENDBRANCH  24  26
ENDBRANCH   4  21
TORSDOF 4
ENDMDL
MODEL 3
REMARK VINA RESULT:      -8.5      4.835      6.535
REMARK  Name = 
REMARK  4 active torsions:
REMARK  status: ('A' for Active; 'I' for Inactive)
REMARK    1  A    between atoms: C_2  and  C_3
REMARK    2  A    between atoms: C_6  and  N_7
REMARK    3  A    between atoms: C_10  and  C_11
REMARK    4  A    between atoms: C_21  and  C_22
REMARK                            x       y       z     vdW  Elec       q    Type
REMARK                         _______ _______ _______ _____ _____    ______ ____
ROOT
ATOM      1  C   UNL     1       1.378  10.190  19.038  0.00  0.00    +0.000 A 
ATOM      2  C   UNL     1       1.229   9.503  20.249  0.00  0.00    +0.000 A 
ATOM      3  C   UNL     1       1.557   8.144  20.338  0.00  0.00    +0.000 A 
ATOM      4  C   UNL     1       2.038   7.464  19.208  0.00  0.00    +0.000 A 
ATOM      5  C   UNL     1       2.192   8.159  18.000  0.00  0.00    +0.000 A 
ATOM      6  C   UNL     1       1.896   9.520  17.928  0.00  0.00    +0.000 A 
ENDROOT
BRANCH   1   8
ATOM      7  O   UNL     1       2.016  12.406  18.704  0.00  0.00    +0.000 OA
ATOM      8  C   UNL     1       1.092  11.647  18.985  0.00  0.00    +0.000 C 
ATOM      9  N   UNL     1      -0.196  12.094  19.247  0.00  0.00    +0.000 N 
ATOM     10  C   UNL     1      -0.531  13.497  19.083  0.00  0.00    +0.000 C 
ATOM     11  C   UNL     1      -1.662  13.752  20.068  0.00  0.00    +0.000 C 
ATOM     12  C   UNL     1      -2.353  12.394  20.244  0.00  0.00    +0.000 C 
ATOM     13  C   UNL     1      -1.222  11.386  20.012  0.00  0.00    +0.000 C 
BRANCH  12  14
ATOM     14  C   UNL     1      -3.551  12.160  19.337  0.00  0.00    +0.000 A 
ATOM     15  C   UNL     1      -4.837  12.639  19.632  0.00  0.00    +0.000 A 
ATOM     16  C   UNL     1      -5.904  12.430  18.753  0.00  0.00    +0.000 A 
ATOM     17  C   UNL     1      -5.702  11.748  17.556  0.00  0.00    +0.000 A 
ATOM     18  C   UNL     1      -4.429  11.280  17.252  0.00  0.00    +0.000 A 
ATOM     19  F   UNL     1      -4.226  10.639  16.094  0.00  0.00    +0.000 F 
ATOM     20  C   UNL     1      -3.363  11.475  18.125  0.00  0.00    +0.000 A 
ENDBRANCH  12  14
ENDBRANCH   1   8
BRANCH   4  21
ATOM     21  N   UNL     1       2.425   6.096  19.269  0.00  0.00    +0.000 N 
ATOM     22  C   UNL     1       3.274   5.413  18.429  0.00  0.00    +0.000 A 
ATOM     23  C   UNL     1       3.270   4.099  18.833  0.00  0.00    +0.000 A 
ATOM     24  C   UNL     1       2.403   4.052  19.951  0.00  0.00    +0.000 A 
ATOM     25  N   UNL     1       1.919   5.278  20.228  0.00  0.00    +0.000 NA
BRANCH  24  26
ATOM     26  C   UNL     1       2.031   2.830  20.749  0.00  0.00    +0.000 C 
ATOM     27  F   UNL     1       3.018   2.481  21.620  0.00  0.00    +0.000 F 
ATOM     28  F   UNL     1       0.910   3.015  21.493  0.00  0.00    +0.000 F 
ATOM     29  F   UNL     1       1.814   1.742  19.963  0.00  0.00    +0.000 F 
ENDBRANCH  24  26
ENDBRANCH   4  21
TORSDOF 4
ENDMDL
MODEL 4
REMARK VINA RESULT:      -8.4      4.581      6.181
REMARK  Name = 
REMARK  4 active torsions:
REMARK  status: ('A' for Active; 'I' for Inactive)
REMARK    1  A    between atoms: C_2  and  C_3
REMARK    2  A    between atoms: C_6  and  N_7
REMARK    3  A    between atoms: C_10  and  C_11
REMARK    4  A    between atoms: C_21  and  C_22
REMARK                            x       y       z     vdW  Elec       q    Type
REMARK                         _______ _______ _______ _____ _____    ______ ____
ROOT
ATOM      1  C   UNL     1       1.458  10.062  18.993  0.00  0.00    +0.000 A 
ATOM      2  C   UNL     1       1.387   9.309  20.171  0.00  0.00    +0.000 A 
ATOM      3  C   UNL     1       1.708   7.944  20.159  0.00  0.00    +0.000 A 
ATOM      4  C   UNL     1       2.104   7.328  18.962  0.00  0.00    +0.000 A 
ATOM      5  C   UNL     1       2.180   8.090  17.787  0.00  0.00    +0.000 A 
ATOM      6  C   UNL     1       1.892   9.454  17.813  0.00  0.00    +0.000 A 
ENDROOT
BRANCH   1   8
ATOM      7  O   UNL     1       2.125  12.293  18.880  0.00  0.00    +0.000 OA
ATOM      8  C   UNL     1       1.182  11.522  19.043  0.00  0.00    +0.000 C 
ATOM      9  N   UNL     1      -0.117  11.958  19.264  0.00  0.00    +0.000 N 
ATOM     10  C   UNL     1      -0.436  13.373  19.196  0.00  0.00    +0.000 C 
ATOM     11  C   UNL     1      -1.623  13.557  20.129  0.00  0.00    +0.000 C 
ATOM     12  C   UNL     1      -2.329  12.196  20.152  0.00  0.00    +0.000 C 
ATOM     13  C   UNL     1      -1.190  11.199  19.906  0.00  0.00    +0.000 C 
BRANCH  12  14
ATOM     14  C   UNL     1      -3.471  12.047  19.160  0.00  0.00    +0.000 A 
ATOM     15  C   UNL     1      -4.767  12.528  19.410  0.00  0.00    +0.000 A 
ATOM     16  C   UNL     1      -5.780  12.400  18.455  0.00  0.00    +0.000 A 
ATOM     17  C   UNL     1      -5.514  11.800  17.227  0.00  0.00    +0.000 A 
ATOM     18  C   UNL     1      -4.231  11.332  16.968  0.00  0.00    +0.000 A 
ATOM     19  F   UNL     1      -3.965  10.771  15.782  0.00  0.00    +0.000 F 
ATOM     20  C   UNL     1      -3.218  11.446  17.916  0.00  0.00    +0.000 A 
ENDBRANCH  12  14
ENDBRANCH   1   8
BRANCH   4  21
ATOM     21  N   UNL     1       2.482   5.957  18.919  0.00  0.00    +0.000 N 
ATOM     22  C   UNL     1       3.633   5.407  18.404  0.00  0.00    +0.000 A 
ATOM     23  C   UNL     1       3.510   4.042  18.508  0.00  0.00    +0.000 A 
ATOM     24  C   UNL     1       2.253   3.824  19.123  0.00  0.00    +0.000 A 
ATOM     25  N   UNL     1       1.649   4.996  19.398  0.00  0.00    +0.000 NA
BRANCH  24  26
ATOM     26  C   UNL     1       1.627   2.492  19.439  0.00  0.00    +0.000 C 
ATOM     27  F   UNL     1       0.430   2.338  18.806  0.00  0.00    +0.000 F 
ATOM     28  F   UNL     1       2.402   1.445  19.052  0.00  0.00    +0.000 F 
ATOM     29  F   UNL     1       1.378   2.335  20.767  0.00  0.00    +0.000 F 
ENDBRANCH  24  26
ENDBRANCH   4  21
TORSDOF 4
ENDMDL
MODEL 5
REMARK VINA RESULT:      -8.4      4.879      6.517
REMARK  Name = 
REMARK  4 active torsions:
REMARK  status: ('A' for Active; 'I' for Inactive)
REMARK    1  A    between atoms: C_2  and  C_3
REMARK    2  A    between atoms: C_6  and  N_7
REMARK    3  A    between atoms: C_10  and  C_11
REMARK    4  A    between atoms: C_21  and  C_22
REMARK                            x       y       z     vdW  Elec       q    Type
REMARK                         _______ _______ _______ _____ _____    ______ ____
ROOT
ATOM      1  C   UNL     1       1.429  10.132  18.979  0.00  0.00    +0.000 A 
ATOM      2  C   UNL     1       1.275   9.490  20.213  0.00  0.00    +0.000 A 
ATOM      3  C   UNL     1       1.614   8.138  20.355  0.00  0.00    +0.000 A 
ATOM      4  C   UNL     1       2.114   7.422  19.257  0.00  0.00    +0.000 A 
ATOM      5  C   UNL     1       2.273   8.073  18.025  0.00  0.00    +0.000 A 
ATOM      6  C   UNL     1       1.965   9.427  17.899  0.00  0.00    +0.000 A 
ENDROOT
BRANCH   1   8
ATOM      7  O   UNL     1       2.045  12.340  18.555  0.00  0.00    +0.000 OA
ATOM      8  C   UNL     1       1.129  11.584  18.869  0.00  0.00    +0.000 C 
ATOM      9  N   UNL     1      -0.162  12.029  19.118  0.00  0.00    +0.000 N 
ATOM     10  C   UNL     1      -0.511  13.422  18.900  0.00  0.00    +0.000 C 
ATOM     11  C   UNL     1      -1.641  13.705  19.877  0.00  0.00    +0.000 C 
ATOM     12  C   UNL     1      -2.319  12.349  20.109  0.00  0.00    +0.000 C 
ATOM     13  C   UNL     1      -1.179  11.343  19.914  0.00  0.00    +0.000 C 
BRANCH  12  14
ATOM     14  C   UNL     1      -3.517  12.068  19.217  0.00  0.00    +0.000 A 
ATOM     15  C   UNL     1      -3.409  11.417  17.977  0.00  0.00    +0.000 A 
ATOM     16  C   UNL     1      -4.542  11.148  17.203  0.00  0.00    +0.000 A 
ATOM     17  C   UNL     1      -5.806  11.512  17.661  0.00  0.00    +0.000 A 
ATOM     18  C   UNL     1      -5.922  12.146  18.892  0.00  0.00    +0.000 A 
ATOM     19  F   UNL     1      -7.136  12.483  19.344  0.00  0.00    +0.000 F 
ATOM     20  C   UNL     1      -4.799  12.428  19.665  0.00  0.00    +0.000 A 
ENDBRANCH  12  14
ENDBRANCH   1   8
BRANCH   4  21
ATOM     21  N   UNL     1       2.513   6.061  19.373  0.00  0.00    +0.000 N 
ATOM     22  C   UNL     1       3.467   5.388  18.644  0.00  0.00    +0.000 A 
ATOM     23  C   UNL     1       3.437   4.077  19.052  0.00  0.00    +0.000 A 
ATOM     24  C   UNL     1       2.445   4.020  20.060  0.00  0.00    +0.000 A 
ATOM     25  N   UNL     1       1.911   5.239  20.270  0.00  0.00    +0.000 NA
BRANCH  24  26
ATOM     26  C   UNL     1       2.001   2.796  20.816  0.00  0.00    +0.000 C 
ATOM     27  F   UNL     1       1.743   1.754  19.977  0.00  0.00    +0.000 F 
ATOM     28  F   UNL     1       2.939   2.356  21.695  0.00  0.00    +0.000 F 
ATOM     29  F   UNL     1       0.859   3.007  21.524  0.00  0.00    +0.000 F 
ENDBRANCH  24  26
ENDBRANCH   4  21
TORSDOF 4
ENDMDL
MODEL 6
REMARK VINA RESULT:      -8.4      5.598      8.298
REMARK  Name = 
REMARK  4 active torsions:
REMARK  status: ('A' for Active; 'I' for Inactive)
REMARK    1  A    between atoms: C_2  and  C_3
REMARK    2  A    between atoms: C_6  and  N_7
REMARK    3  A    between atoms: C_10  and  C_11
REMARK    4  A    between atoms: C_21  and  C_22
REMARK                            x       y       z     vdW  Elec       q    Type
REMARK                         _______ _______ _______ _____ _____    ______ ____
ROOT
ATOM      1  C   UNL     1       7.502   6.354  17.741  0.00  0.00    +0.000 A 
ATOM      2  C   UNL     1       7.298   7.456  16.901  0.00  0.00    +0.000 A 
ATOM      3  C   UNL     1       7.764   8.725  17.272  0.00  0.00    +0.000 A 
ATOM      4  C   UNL     1       8.439   8.894  18.491  0.00  0.00    +0.000 A 
ATOM      5  C   UNL     1       8.647   7.785  19.323  0.00  0.00    +0.000 A 
ATOM      6  C   UNL     1       8.211   6.520  18.932  0.00  0.00    +0.000 A 
ENDROOT
BRANCH   1   8
ATOM      7  O   UNL     1       7.924   4.215  16.915  0.00  0.00    +0.000 OA
ATOM      8  C   UNL     1       7.063   5.006  17.295  0.00  0.00    +0.000 C 
ATOM      9  N   UNL     1       5.712   4.689  17.327  0.00  0.00    +0.000 N 
ATOM     10  C   UNL     1       5.268   3.342  17.014  0.00  0.00    +0.000 C 
ATOM     11  C   UNL     1       3.863   3.508  16.456  0.00  0.00    +0.000 C 
ATOM     12  C   UNL     1       3.331   4.800  17.087  0.00  0.00    +0.000 C 
ATOM     13  C   UNL     1       4.598   5.636  17.308  0.00  0.00    +0.000 C 
BRANCH  12  14
ATOM     14  C   UNL     1       2.519   4.609  18.358  0.00  0.00    +0.000 A 
ATOM     15  C   UNL     1       1.903   3.393  18.694  0.00  0.00    +0.000 A 
ATOM     16  C   UNL     1       1.192   3.251  19.890  0.00  0.00    +0.000 A 
ATOM     17  C   UNL     1       1.095   4.318  20.778  0.00  0.00    +0.000 A 
ATOM     18  C   UNL     1       1.711   5.522  20.457  0.00  0.00    +0.000 A 
ATOM     19  F   UNL     1       1.635   6.546  21.316  0.00  0.00    +0.000 F 
ATOM     20  C   UNL     1       2.412   5.677  19.265  0.00  0.00    +0.000 A 
ENDBRANCH  12  14
ENDBRANCH   1   8
BRANCH   4  21
ATOM     21  N   UNL     1       8.967  10.157  18.881  0.00  0.00    +0.000 N 
ATOM     22  C   UNL     1       9.486  10.522  20.102  0.00  0.00    +0.000 A 
ATOM     23  C   UNL     1       9.786  11.861  20.029  0.00  0.00    +0.000 A 
ATOM     24  C   UNL     1       9.440  12.252  18.713  0.00  0.00    +0.000 A 
ATOM     25  N   UNL     1       8.973  11.201  18.012  0.00  0.00    +0.000 NA
BRANCH  24  26
ATOM     26  C   UNL     1       9.550  13.635  18.128  0.00  0.00    +0.000 C 
ATOM     27  F   UNL     1      10.407  13.666  17.070  0.00  0.00    +0.000 F 
ATOM     28  F   UNL     1       8.360  14.105  17.671  0.00  0.00    +0.000 F 
ATOM     29  F   UNL     1      10.019  14.544  19.026  0.00  0.00    +0.000 F 
ENDBRANCH  24  26
ENDBRANCH   4  21
TORSDOF 4
ENDMDL
MODEL 7
REMARK VINA RESULT:      -8.4      0.176      1.152
REMARK  Name = 
REMARK  4 active torsions:
REMARK  status: ('A' for Active; 'I' for Inactive)
REMARK    1  A    between atoms: C_2  and  C_3
REMARK    2  A    between atoms: C_6  and  N_7
REMARK    3  A    between atoms: C_10  and  C_11
REMARK    4  A    between atoms: C_21  and  C_22
REMARK                            x       y       z     vdW  Elec       q    Type
REMARK                         _______ _______ _______ _____ _____    ______ ____
ROOT
ATOM      1  C   UNL     1       3.063   6.429  18.765  0.00  0.00    +0.000 A 
ATOM      2  C   UNL     1       3.831   7.336  18.025  0.00  0.00    +0.000 A 
ATOM      3  C   UNL     1       4.677   6.879  17.005  0.00  0.00    +0.000 A 
ATOM      4  C   UNL     1       4.755   5.507  16.720  0.00  0.00    +0.000 A 
ATOM      5  C   UNL     1       3.977   4.605  17.460  0.00  0.00    +0.000 A 
ATOM      6  C   UNL     1       3.112   5.069  18.450  0.00  0.00    +0.000 A 
ENDROOT
BRANCH   1   8
ATOM      7  O   UNL     1       1.817   6.193  20.721  0.00  0.00    +0.000 OA
ATOM      8  C   UNL     1       2.121   6.941  19.794  0.00  0.00    +0.000 C 
ATOM      9  N   UNL     1       1.626   8.232  19.676  0.00  0.00    +0.000 N 
ATOM     10  C   UNL     1       0.803   8.800  20.729  0.00  0.00    +0.000 C 
ATOM     11  C   UNL     1      -0.097   9.807  20.029  0.00  0.00    +0.000 C 
ATOM     12  C   UNL     1       0.687  10.249  18.788  0.00  0.00    +0.000 C 
ATOM     13  C   UNL     1       1.537   9.019  18.447  0.00  0.00    +0.000 C 
BRANCH  12  14
ATOM     14  C   UNL     1       1.516  11.511  18.965  0.00  0.00    +0.000 A 
ATOM     15  C   UNL     1       2.378  12.004  17.972  0.00  0.00    +0.000 A 
ATOM     16  C   UNL     1       3.096  13.188  18.164  0.00  0.00    +0.000 A 
ATOM     17  C   UNL     1       2.957  13.909  19.347  0.00  0.00    +0.000 A 
ATOM     18  C   UNL     1       2.097  13.433  20.330  0.00  0.00    +0.000 A 
ATOM     19  F   UNL     1       1.946  14.130  21.462  0.00  0.00    +0.000 F 
ATOM     20  C   UNL     1       1.385  12.249  20.153  0.00  0.00    +0.000 A 
ENDBRANCH  12  14
ENDBRANCH   1   8
BRANCH   4  21
ATOM     21  N   UNL     1       5.566   5.010  15.662  0.00  0.00    +0.000 N 
ATOM     22  C   UNL     1       6.935   5.065  15.540  0.00  0.00    +0.000 A 
ATOM     23  C   UNL     1       7.253   4.536  14.313  0.00  0.00    +0.000 A 
ATOM     24  C   UNL     1       6.018   4.154  13.737  0.00  0.00    +0.000 A 
ATOM     25  N   UNL     1       5.000   4.417  14.579  0.00  0.00    +0.000 NA
BRANCH  24  26
ATOM     26  C   UNL     1       5.811   3.544  12.376  0.00  0.00    +0.000 C 
ATOM     27  F   UNL     1       5.964   2.191  12.404  0.00  0.00    +0.000 F 
ATOM     28  F   UNL     1       4.568   3.779  11.881  0.00  0.00    +0.000 F 
ATOM     29  F   UNL     1       6.700   4.009  11.457  0.00  0.00    +0.000 F 
ENDBRANCH  24  26
ENDBRANCH   4  21
TORSDOF 4
ENDMDL
MODEL 8
REMARK VINA RESULT:      -8.3      4.119      5.845
REMARK  Name = 
REMARK  4 active torsions:
REMARK  status: ('A' for Active; 'I' for Inactive)
REMARK    1  A    between atoms: C_2  and  C_3
REMARK    2  A    between atoms: C_6  and  N_7
REMARK    3  A    between atoms: C_10  and  C_11
REMARK    4  A    between atoms: C_21  and  C_22
REMARK                            x       y       z     vdW  Elec       q    Type
REMARK                         _______ _______ _______ _____ _____    ______ ____
ROOT
ATOM      1  C   UNL     1       1.459   9.850  18.974  0.00  0.00    +0.000 A 
ATOM      2  C   UNL     1       1.270   9.252  20.226  0.00  0.00    +0.000 A 
ATOM      3  C   UNL     1       1.534   7.888  20.407  0.00  0.00    +0.000 A 
ATOM      4  C   UNL     1       1.993   7.114  19.329  0.00  0.00    +0.000 A 
ATOM      5  C   UNL     1       2.188   7.720  18.080  0.00  0.00    +0.000 A 
ATOM      6  C   UNL     1       1.955   9.085  17.916  0.00  0.00    +0.000 A 
ENDROOT
BRANCH   1   8
ATOM      7  O   UNL     1       2.193  12.005  18.474  0.00  0.00    +0.000 OA
ATOM      8  C   UNL     1       1.240  11.312  18.823  0.00  0.00    +0.000 C 
ATOM      9  N   UNL     1      -0.020  11.837  19.073  0.00  0.00    +0.000 N 
ATOM     10  C   UNL     1      -0.293  13.240  18.816  0.00  0.00    +0.000 C 
ATOM     11  C   UNL     1      -1.392  13.617  19.798  0.00  0.00    +0.000 C 
ATOM     12  C   UNL     1      -2.142  12.309  20.080  0.00  0.00    +0.000 C 
ATOM     13  C   UNL     1      -1.063  11.234  19.903  0.00  0.00    +0.000 C 
BRANCH  12  14
ATOM     14  C   UNL     1      -3.366  12.069  19.211  0.00  0.00    +0.000 A 
ATOM     15  C   UNL     1      -4.659  12.466  19.588  0.00  0.00    +0.000 A 
ATOM     16  C   UNL     1      -5.753  12.256  18.743  0.00  0.00    +0.000 A 
ATOM     17  C   UNL     1      -5.573  11.657  17.500  0.00  0.00    +0.000 A 
ATOM     18  C   UNL     1      -4.294  11.271  17.115  0.00  0.00    +0.000 A 
ATOM     19  F   UNL     1      -4.113  10.710  15.913  0.00  0.00    +0.000 F 
ATOM     20  C   UNL     1      -3.200  11.467  17.953  0.00  0.00    +0.000 A 
ENDBRANCH  12  14
ENDBRANCH   1   8
BRANCH   4  21
ATOM     21  N   UNL     1       2.317   5.737  19.484  0.00  0.00    +0.000 N 
ATOM     22  C   UNL     1       2.375   5.002  20.646  0.00  0.00    +0.000 A 
ATOM     23  C   UNL     1       2.815   3.745  20.306  0.00  0.00    +0.000 A 
ATOM     24  C   UNL     1       2.989   3.775  18.902  0.00  0.00    +0.000 A 
ATOM     25  N   UNL     1       2.653   4.982  18.407  0.00  0.00    +0.000 NA
BRANCH  24  26
ATOM     26  C   UNL     1       3.486   2.649  18.034  0.00  0.00    +0.000 C 
ATOM     27  F   UNL     1       2.460   2.011  17.404  0.00  0.00    +0.000 F 
ATOM     28  F   UNL     1       4.329   3.076  17.057  0.00  0.00    +0.000 F 
ATOM     29  F   UNL     1       4.149   1.698  18.745  0.00  0.00    +0.000 F 
ENDBRANCH  24  26
ENDBRANCH   4  21
TORSDOF 4
ENDMDL
MODEL 9
REMARK VINA RESULT:      -8.3      4.439      6.011
REMARK  Name = 
REMARK  4 active torsions:
REMARK  status: ('A' for Active; 'I' for Inactive)
REMARK    1  A    between atoms: C_2  and  C_3
REMARK    2  A    between atoms: C_6  and  N_7
REMARK    3  A    between atoms: C_10  and  C_11
REMARK    4  A    between atoms: C_21  and  C_22
REMARK                            x       y       z     vdW  Elec       q    Type
REMARK                         _______ _______ _______ _____ _____    ______ ____
ROOT
ATOM      1  C   UNL     1       1.474  10.062  19.110  0.00  0.00    +0.000 A 
ATOM      2  C   UNL     1       1.366   9.360  20.317  0.00  0.00    +0.000 A 
ATOM      3  C   UNL     1       1.694   7.999  20.377  0.00  0.00    +0.000 A 
ATOM      4  C   UNL     1       2.137   7.334  19.224  0.00  0.00    +0.000 A 
ATOM      5  C   UNL     1       2.251   8.044  18.020  0.00  0.00    +0.000 A 
ATOM      6  C   UNL     1       1.955   9.405  17.975  0.00  0.00    +0.000 A 
ENDROOT
BRANCH   1   8
ATOM      7  O   UNL     1       2.127  12.289  18.890  0.00  0.00    +0.000 OA
ATOM      8  C   UNL     1       1.188  11.520  19.085  0.00  0.00    +0.000 C 
ATOM      9  N   UNL     1      -0.115  11.957  19.276  0.00  0.00    +0.000 N 
ATOM     10  C   UNL     1      -0.443  13.365  19.135  0.00  0.00    +0.000 C 
ATOM     11  C   UNL     1      -1.637  13.587  20.050  0.00  0.00    +0.000 C 
ATOM     12  C   UNL     1      -2.335  12.224  20.136  0.00  0.00    +0.000 C 
ATOM     13  C   UNL     1      -1.187  11.224  19.948  0.00  0.00    +0.000 C 
BRANCH  12  14
ATOM     14  C   UNL     1      -3.469  12.018  19.146  0.00  0.00    +0.000 A 
ATOM     15  C   UNL     1      -3.288  11.406  17.895  0.00  0.00    +0.000 A 
ATOM     16  C   UNL     1      -4.366  11.206  17.027  0.00  0.00    +0.000 A 
ATOM     17  C   UNL     1      -5.648  11.601  17.400  0.00  0.00    +0.000 A 
ATOM     18  C   UNL     1      -5.837  12.197  18.641  0.00  0.00    +0.000 A 
ATOM     19  F   UNL     1      -7.070  12.564  19.011  0.00  0.00    +0.000 F 
ATOM     20  C   UNL     1      -4.768  12.411  19.507  0.00  0.00    +0.000 A 
ENDBRANCH  12  14
ENDBRANCH   1   8
BRANCH   4  21
ATOM     21  N   UNL     1       2.524   5.965  19.255  0.00  0.00    +0.000 N 
ATOM     22  C   UNL     1       3.755   5.435  19.567  0.00  0.00    +0.000 A 
ATOM     23  C   UNL     1       3.670   4.077  19.375  0.00  0.00    +0.000 A 
ATOM     24  C   UNL     1       2.338   3.839  18.959  0.00  0.00    +0.000 A 
ATOM     25  N   UNL     1       1.640   4.990  18.920  0.00  0.00    +0.000 NA
BRANCH  24  26
ATOM     26  C   UNL     1       1.737   2.509  18.590  0.00  0.00    +0.000 C 
ATOM     27  F   UNL     1       2.264   2.024  17.432  0.00  0.00    +0.000 F 
ATOM     28  F   UNL     1       1.952   1.558  19.537  0.00  0.00    +0.000 F 
ATOM     29  F   UNL     1       0.392   2.582  18.396  0.00  0.00    +0.000 F 
ENDBRANCH  24  26
ENDBRANCH   4  21
TORSDOF 4
ENDMDL
