MODEL 1
REMARK VINA RESULT:      -8.1      0.000      0.000
REMARK  Name = 
REMARK  7 active torsions:
REMARK  status: ('A' for Active; 'I' for Inactive)
REMARK    1  A    between atoms: C_1  and  C_2
REMARK    2  A    between atoms: C_2  and  C_3
REMARK    3  A    between atoms: C_2  and  C_25
REMARK    4  A    between atoms: C_7  and  N_8
REMARK    5  A    between atoms: C_13  and  C_14
REMARK    6  A    between atoms: C_17  and  C_18
REMARK    7  A    between atoms: N_29  and  C_30
REMARK                            x       y       z     vdW  Elec       q    Type
REMARK                         _______ _______ _______ _____ _____    ______ ____
ROOT
ATOM      1  N   UNL     1       3.651   5.008  19.307  0.00  0.00    +0.000 N 
ATOM      2  C   UNL     1       5.019   5.586  19.386  0.00  0.00    +0.000 C 
ATOM      3  C   UNL     1       5.603   5.219  18.053  0.00  0.00    +0.000 A 
ATOM      4  C   UNL     1       4.931   4.078  17.601  0.00  0.00    +0.000 A 
ATOM      5  C   UNL     1       5.107   3.547  16.335  0.00  0.00    +0.000 A 
ATOM      6  C   UNL     1       5.995   4.213  15.494  0.00  0.00    +0.000 A 
ATOM      7  C   UNL     1       6.678   5.371  15.925  0.00  0.00    +0.000 A 
ATOM      8  C   UNL     1       6.492   5.896  17.224  0.00  0.00    +0.000 A 
ATOM      9  C   UNL     1       3.774   3.854  18.494  0.00  0.00    +0.000 C 
ATOM     10  O   UNL     1       2.981   2.937  18.343  0.00  0.00    +0.000 OA
ENDROOT
BRANCH   1  15
ATOM     11  C   UNL     1       1.934   8.181  19.562  0.00  0.00    +0.000 A 
ATOM     12  C   UNL     1       2.570   8.728  18.436  0.00  0.00    +0.000 A 
ATOM     13  C   UNL     1       2.986   7.902  17.397  0.00  0.00    +0.000 A 
ATOM     14  C   UNL     1       2.903   6.524  17.540  0.00  0.00    +0.000 A 
ATOM     15  C   UNL     1       2.706   6.009  18.827  0.00  0.00    +0.000 A 
ATOM     16  C   UNL     1       2.057   6.802  19.778  0.00  0.00    +0.000 A 
BRANCH  11  18
ATOM     17  C   UNL     1       0.385   8.260  21.536  0.00  0.00    +0.000 C 
ATOM     18  C   UNL     1       1.204   9.091  20.536  0.00  0.00    +0.000 C 
BRANCH  18  19
ATOM     19  C   UNL     1       0.336  10.139  19.869  0.00  0.00    +0.000 A 
ATOM     20  N   UNL     1      -0.766   9.882  19.182  0.00  0.00    +0.000 NA
ATOM     21  N   UNL     1      -1.297  11.065  18.741  0.00  0.00    +0.000 NA
ATOM     22  C   UNL     1      -0.521  12.029  19.164  0.00  0.00    +0.000 A 
ATOM     23  N   UNL     1       0.520  11.499  19.891  0.00  0.00    +0.000 N 
ATOM     24  C   UNL     1       1.551  12.288  20.500  0.00  0.00    +0.000 C 
ENDBRANCH  18  19
ENDBRANCH  11  18
ENDBRANCH   1  15
BRANCH   8  25
ATOM     25  C   UNL     1       7.178   7.183  17.607  0.00  0.00    +0.000 C 
ATOM     26  F   UNL     1       7.903   7.103  18.755  0.00  0.00    +0.000 F 
ATOM     27  F   UNL     1       8.049   7.603  16.651  0.00  0.00    +0.000 F 
ATOM     28  F   UNL     1       6.300   8.205  17.795  0.00  0.00    +0.000 F 
ENDBRANCH   8  25
BRANCH   6  29
ATOM     29  C   UNL     1       6.157   3.741  14.101  0.00  0.00    +0.000 C 
ATOM     30  O   UNL     1       6.817   4.368  13.284  0.00  0.00    +0.000 OA
ENDBRANCH   6  29
TORSDOF 5
ENDMDL
MODEL 2
REMARK VINA RESULT:      -7.8      0.613      1.340
REMARK  Name = 
REMARK  7 active torsions:
REMARK  status: ('A' for Active; 'I' for Inactive)
REMARK    1  A    between atoms: C_1  and  C_2
REMARK    2  A    between atoms: C_2  and  C_3
REMARK    3  A    between atoms: C_2  and  C_25
REMARK    4  A    between atoms: C_7  and  N_8
REMARK    5  A    between atoms: C_13  and  C_14
REMARK    6  A    between atoms: C_17  and  C_18
REMARK    7  A    between atoms: N_29  and  C_30
REMARK                            x       y       z     vdW  Elec       q    Type
REMARK                         _______ _______ _______ _____ _____    ______ ____
ROOT
ATOM      1  N   UNL     1       3.597   4.901  19.379  0.00  0.00    +0.000 N 
ATOM      2  C   UNL     1       4.972   5.462  19.420  0.00  0.00    +0.000 C 
ATOM      3  C   UNL     1       5.487   5.155  18.043  0.00  0.00    +0.000 A 
ATOM      4  C   UNL     1       4.782   4.044  17.570  0.00  0.00    +0.000 A 
ATOM      5  C   UNL     1       4.891   3.574  16.272  0.00  0.00    +0.000 A 
ATOM      6  C   UNL     1       5.745   4.272  15.422  0.00  0.00    +0.000 A 
ATOM      7  C   UNL     1       6.460   5.403  15.876  0.00  0.00    +0.000 A 
ATOM      8  C   UNL     1       6.343   5.865  17.206  0.00  0.00    +0.000 A 
ATOM      9  C   UNL     1       3.667   3.787  18.506  0.00  0.00    +0.000 C 
ATOM     10  O   UNL     1       2.858   2.885  18.349  0.00  0.00    +0.000 OA
ENDROOT
BRANCH   1  15
ATOM     11  C   UNL     1       1.840   8.013  19.934  0.00  0.00    +0.000 A 
ATOM     12  C   UNL     1       2.472   8.675  18.868  0.00  0.00    +0.000 A 
ATOM     13  C   UNL     1       2.900   7.957  17.756  0.00  0.00    +0.000 A 
ATOM     14  C   UNL     1       2.834   6.571  17.764  0.00  0.00    +0.000 A 
ATOM     15  C   UNL     1       2.641   5.932  18.995  0.00  0.00    +0.000 A 
ATOM     16  C   UNL     1       1.980   6.621  20.016  0.00  0.00    +0.000 A 
BRANCH  11  18
ATOM     17  C   UNL     1      -0.220   8.122  21.363  0.00  0.00    +0.000 C 
ATOM     18  C   UNL     1       1.098   8.816  20.989  0.00  0.00    +0.000 C 
BRANCH  18  19
ATOM     19  C   UNL     1       0.854  10.262  20.605  0.00  0.00    +0.000 A 
ATOM     20  N   UNL     1       1.458  11.303  21.158  0.00  0.00    +0.000 NA
ATOM     21  N   UNL     1       1.007  12.446  20.554  0.00  0.00    +0.000 NA
ATOM     22  C   UNL     1       0.140  12.095  19.640  0.00  0.00    +0.000 A 
ATOM     23  N   UNL     1       0.014  10.725  19.623  0.00  0.00    +0.000 N 
ATOM     24  C   UNL     1      -0.856  10.014  18.733  0.00  0.00    +0.000 C 
ENDBRANCH  18  19
ENDBRANCH  11  18
ENDBRANCH   1  15
BRANCH   8  25
ATOM     25  C   UNL     1       7.061   7.126  17.617  0.00  0.00    +0.000 C 
ATOM     26  F   UNL     1       7.966   7.570  16.703  0.00  0.00    +0.000 F 
ATOM     27  F   UNL     1       6.204   8.161  17.819  0.00  0.00    +0.000 F 
ATOM     28  F   UNL     1       7.754   6.975  18.778  0.00  0.00    +0.000 F 
ENDBRANCH   8  25
BRANCH   6  29
ATOM     29  C   UNL     1       5.834   3.868  14.002  0.00  0.00    +0.000 C 
ATOM     30  O   UNL     1       6.736   4.266  13.277  0.00  0.00    +0.000 OA
ENDBRANCH   6  29
TORSDOF 5
ENDMDL
MODEL 3
REMARK VINA RESULT:      -7.6      4.527      8.469
REMARK  Name = 
REMARK  7 active torsions:
REMARK  status: ('A' for Active; 'I' for Inactive)
REMARK    1  A    between atoms: C_1  and  C_2
REMARK    2  A    between atoms: C_2  and  C_3
REMARK    3  A    between atoms: C_2  and  C_25
REMARK    4  A    between atoms: C_7  and  N_8
REMARK    5  A    between atoms: C_13  and  C_14
REMARK    6  A    between atoms: C_17  and  C_18
REMARK    7  A    between atoms: N_29  and  C_30
REMARK                            x       y       z     vdW  Elec       q    Type
REMARK                         _______ _______ _______ _____ _____    ______ ____
ROOT
ATOM      1  N   UNL     1       0.154   8.973  20.923  0.00  0.00    +0.000 N 
ATOM      2  C   UNL     1      -0.995   8.990  19.981  0.00  0.00    +0.000 C 
ATOM      3  C   UNL     1      -1.137  10.452  19.670  0.00  0.00    +0.000 A 
ATOM      4  C   UNL     1      -0.613  11.163  20.754  0.00  0.00    +0.000 A 
ATOM      5  C   UNL     1      -0.442  12.537  20.748  0.00  0.00    +0.000 A 
ATOM      6  C   UNL     1      -0.812  13.209  19.585  0.00  0.00    +0.000 A 
ATOM      7  C   UNL     1      -1.336  12.510  18.475  0.00  0.00    +0.000 A 
ATOM      8  C   UNL     1      -1.510  11.108  18.501  0.00  0.00    +0.000 A 
ATOM      9  C   UNL     1       0.079  10.197  21.633  0.00  0.00    +0.000 C 
ATOM     10  O   UNL     1       0.657  10.522  22.660  0.00  0.00    +0.000 OA
ENDROOT
BRANCH   1  15
ATOM     11  C   UNL     1       2.571   6.842  19.280  0.00  0.00    +0.000 A 
ATOM     12  C   UNL     1       2.315   7.369  18.003  0.00  0.00    +0.000 A 
ATOM     13  C   UNL     1       1.890   8.685  17.862  0.00  0.00    +0.000 A 
ATOM     14  C   UNL     1       1.580   9.432  18.990  0.00  0.00    +0.000 A 
ATOM     15  C   UNL     1       1.399   8.749  20.200  0.00  0.00    +0.000 A 
ATOM     16  C   UNL     1       2.052   7.528  20.387  0.00  0.00    +0.000 A 
BRANCH  11  18
ATOM     17  C   UNL     1       4.743   5.664  18.840  0.00  0.00    +0.000 C 
ATOM     18  C   UNL     1       3.327   5.532  19.421  0.00  0.00    +0.000 C 
BRANCH  18  19
ATOM     19  C   UNL     1       2.610   4.338  18.823  0.00  0.00    +0.000 A 
ATOM     20  N   UNL     1       2.815   3.866  17.603  0.00  0.00    +0.000 NA
ATOM     21  N   UNL     1       2.009   2.776  17.410  0.00  0.00    +0.000 NA
ATOM     22  C   UNL     1       1.325   2.591  18.510  0.00  0.00    +0.000 A 
ATOM     23  N   UNL     1       1.675   3.543  19.439  0.00  0.00    +0.000 N 
ATOM     24  C   UNL     1       1.112   3.620  20.755  0.00  0.00    +0.000 C 
ENDBRANCH  18  19
ENDBRANCH  11  18
ENDBRANCH   1  15
BRANCH   8  25
ATOM     25  C   UNL     1      -1.993  10.400  17.260  0.00  0.00    +0.000 C 
ATOM     26  F   UNL     1      -3.160   9.723  17.428  0.00  0.00    +0.000 F 
ATOM     27  F   UNL     1      -2.211  11.261  16.231  0.00  0.00    +0.000 F 
ATOM     28  F   UNL     1      -1.097   9.483  16.803  0.00  0.00    +0.000 F 
ENDBRANCH   8  25
BRANCH   6  29
ATOM     29  C   UNL     1      -0.571  14.665  19.490  0.00  0.00    +0.000 C 
ATOM     30  O   UNL     1       0.285  15.126  18.748  0.00  0.00    +0.000 OA
ENDBRANCH   6  29
TORSDOF 5
ENDMDL
MODEL 4
REMARK VINA RESULT:      -7.5      4.448      8.492
REMARK  Name = 
REMARK  7 active torsions:
REMARK  status: ('A' for Active; 'I' for Inactive)
REMARK    1  A    between atoms: C_1  and  C_2
REMARK    2  A    between atoms: C_2  and  C_3
REMARK    3  A    between atoms: C_2  and  C_25
REMARK    4  A    between atoms: C_7  and  N_8
REMARK    5  A    between atoms: C_13  and  C_14
REMARK    6  A    between atoms: C_17  and  C_18
REMARK    7  A    between atoms: N_29  and  C_30
REMARK                            x       y       z     vdW  Elec       q    Type
REMARK                         _______ _______ _______ _____ _____    ______ ____
ROOT
ATOM      1  N   UNL     1       0.403   8.693  21.064  0.00  0.00    +0.000 N 
ATOM      2  C   UNL     1      -0.799   8.916  20.219  0.00  0.00    +0.000 C 
ATOM      3  C   UNL     1      -0.862  10.414  20.134  0.00  0.00    +0.000 A 
ATOM      4  C   UNL     1      -0.224  10.924  21.270  0.00  0.00    +0.000 A 
ATOM      5  C   UNL     1       0.038  12.272  21.450  0.00  0.00    +0.000 A 
ATOM      6  C   UNL     1      -0.359  13.130  20.427  0.00  0.00    +0.000 A 
ATOM      7  C   UNL     1      -0.997  12.636  19.268  0.00  0.00    +0.000 A 
ATOM      8  C   UNL     1      -1.262  11.258  19.103  0.00  0.00    +0.000 A 
ATOM      9  C   UNL     1       0.455   9.800  21.947  0.00  0.00    +0.000 C 
ATOM     10  O   UNL     1       1.117   9.935  22.966  0.00  0.00    +0.000 OA
ENDROOT
BRANCH   1  15
ATOM     11  C   UNL     1       2.519   6.724  18.890  0.00  0.00    +0.000 A 
ATOM     12  C   UNL     1       2.249   7.506  17.754  0.00  0.00    +0.000 A 
ATOM     13  C   UNL     1       1.945   8.856  17.892  0.00  0.00    +0.000 A 
ATOM     14  C   UNL     1       1.766   9.395  19.158  0.00  0.00    +0.000 A 
ATOM     15  C   UNL     1       1.583   8.510  20.228  0.00  0.00    +0.000 A 
ATOM     16  C   UNL     1       2.125   7.225  20.138  0.00  0.00    +0.000 A 
BRANCH  11  18
ATOM     17  C   UNL     1       3.937   5.273  17.412  0.00  0.00    +0.000 C 
ATOM     18  C   UNL     1       3.152   5.352  18.730  0.00  0.00    +0.000 C 
BRANCH  18  19
ATOM     19  C   UNL     1       2.171   4.203  18.842  0.00  0.00    +0.000 A 
ATOM     20  N   UNL     1       1.537   3.648  17.820  0.00  0.00    +0.000 NA
ATOM     21  N   UNL     1       0.749   2.631  18.289  0.00  0.00    +0.000 NA
ATOM     22  C   UNL     1       0.910   2.572  19.586  0.00  0.00    +0.000 A 
ATOM     23  N   UNL     1       1.807   3.536  19.986  0.00  0.00    +0.000 N 
ATOM     24  C   UNL     1       2.209   3.738  21.347  0.00  0.00    +0.000 C 
ENDBRANCH  18  19
ENDBRANCH  11  18
ENDBRANCH   1  15
BRANCH   8  25
ATOM     25  C   UNL     1      -1.869  10.771  17.810  0.00  0.00    +0.000 C 
ATOM     26  F   UNL     1      -1.088   9.888  17.131  0.00  0.00    +0.000 F 
ATOM     27  F   UNL     1      -3.055  10.137  18.007  0.00  0.00    +0.000 F 
ATOM     28  F   UNL     1      -2.121  11.786  16.940  0.00  0.00    +0.000 F 
ENDBRANCH   8  25
BRANCH   6  29
ATOM     29  C   UNL     1      -0.028  14.568  20.527  0.00  0.00    +0.000 C 
ATOM     30  O   UNL     1      -0.868  15.435  20.328  0.00  0.00    +0.000 OA
ENDBRANCH   6  29
TORSDOF 5
ENDMDL
MODEL 5
REMARK VINA RESULT:      -7.5      4.140      8.339
REMARK  Name = 
REMARK  7 active torsions:
REMARK  status: ('A' for Active; 'I' for Inactive)
REMARK    1  A    between atoms: C_1  and  C_2
REMARK    2  A    between atoms: C_2  and  C_3
REMARK    3  A    between atoms: C_2  and  C_25
REMARK    4  A    between atoms: C_7  and  N_8
REMARK    5  A    between atoms: C_13  and  C_14
REMARK    6  A    between atoms: C_17  and  C_18
REMARK    7  A    between atoms: N_29  and  C_30
REMARK                            x       y       z     vdW  Elec       q    Type
REMARK                         _______ _______ _______ _____ _____    ______ ____
ROOT
ATOM      1  N   UNL     1       0.708   8.376  21.093  0.00  0.00    +0.000 N 
ATOM      2  C   UNL     1      -0.525   8.618  20.299  0.00  0.00    +0.000 C 
ATOM      3  C   UNL     1      -0.522  10.111  20.143  0.00  0.00    +0.000 A 
ATOM      4  C   UNL     1       0.198  10.642  21.218  0.00  0.00    +0.000 A 
ATOM      5  C   UNL     1       0.532  11.982  21.318  0.00  0.00    +0.000 A 
ATOM      6  C   UNL     1       0.123  12.809  20.274  0.00  0.00    +0.000 A 
ATOM      7  C   UNL     1      -0.597  12.293  19.175  0.00  0.00    +0.000 A 
ATOM      8  C   UNL     1      -0.936  10.924  19.092  0.00  0.00    +0.000 A 
ATOM      9  C   UNL     1       0.858   9.519  21.916  0.00  0.00    +0.000 C 
ATOM     10  O   UNL     1       1.578   9.669  22.892  0.00  0.00    +0.000 OA
ENDROOT
BRANCH   1  15
ATOM     11  C   UNL     1       2.680   6.167  19.016  0.00  0.00    +0.000 A 
ATOM     12  C   UNL     1       2.339   6.824  17.822  0.00  0.00    +0.000 A 
ATOM     13  C   UNL     1       2.045   8.184  17.831  0.00  0.00    +0.000 A 
ATOM     14  C   UNL     1       1.947   8.857  19.041  0.00  0.00    +0.000 A 
ATOM     15  C   UNL     1       1.832   8.094  20.209  0.00  0.00    +0.000 A 
ATOM     16  C   UNL     1       2.366   6.803  20.225  0.00  0.00    +0.000 A 
BRANCH  11  18
ATOM     17  C   UNL     1       2.953   3.992  20.236  0.00  0.00    +0.000 C 
ATOM     18  C   UNL     1       3.301   4.781  18.966  0.00  0.00    +0.000 C 
BRANCH  18  19
ATOM     19  C   UNL     1       4.797   4.784  18.727  0.00  0.00    +0.000 A 
ATOM     20  N   UNL     1       5.712   5.001  19.659  0.00  0.00    +0.000 NA
ATOM     21  N   UNL     1       6.953   4.911  19.090  0.00  0.00    +0.000 NA
ATOM     22  C   UNL     1       6.788   4.638  17.821  0.00  0.00    +0.000 A 
ATOM     23  N   UNL     1       5.444   4.536  17.542  0.00  0.00    +0.000 N 
ATOM     24  C   UNL     1       4.920   4.240  16.241  0.00  0.00    +0.000 C 
ENDBRANCH  18  19
ENDBRANCH  11  18
ENDBRANCH   1  15
BRANCH   8  25
ATOM     25  C   UNL     1      -1.631  10.407  17.858  0.00  0.00    +0.000 C 
ATOM     26  F   UNL     1      -2.004  11.380  16.985  0.00  0.00    +0.000 F 
ATOM     27  F   UNL     1      -0.846   9.556  17.146  0.00  0.00    +0.000 F 
ATOM     28  F   UNL     1      -2.768   9.718  18.151  0.00  0.00    +0.000 F 
ENDBRANCH   8  25
BRANCH   6  29
ATOM     29  C   UNL     1       0.527  14.232  20.285  0.00  0.00    +0.000 C 
ATOM     30  O   UNL     1       1.133  14.734  19.347  0.00  0.00    +0.000 OA
ENDBRANCH   6  29
TORSDOF 5
ENDMDL
MODEL 6
REMARK VINA RESULT:      -7.5      3.894      8.203
REMARK  Name = 
REMARK  7 active torsions:
REMARK  status: ('A' for Active; 'I' for Inactive)
REMARK    1  A    between atoms: C_1  and  C_2
REMARK    2  A    between atoms: C_2  and  C_3
REMARK    3  A    between atoms: C_2  and  C_25
REMARK    4  A    between atoms: C_7  and  N_8
REMARK    5  A    between atoms: C_13  and  C_14
REMARK    6  A    between atoms: C_17  and  C_18
REMARK    7  A    between atoms: N_29  and  C_30
REMARK                            x       y       z     vdW  Elec       q    Type
REMARK                         _______ _______ _______ _____ _____    ______ ____
ROOT
ATOM      1  N   UNL     1       2.500   8.396  19.279  0.00  0.00    +0.000 N 
ATOM      2  C   UNL     1       2.073   9.035  20.551  0.00  0.00    +0.000 C 
ATOM      3  C   UNL     1       0.755   9.651  20.178  0.00  0.00    +0.000 A 
ATOM      4  C   UNL     1       0.779   9.888  18.800  0.00  0.00    +0.000 A 
ATOM      5  C   UNL     1      -0.328  10.312  18.085  0.00  0.00    +0.000 A 
ATOM      6  C   UNL     1      -1.507  10.491  18.804  0.00  0.00    +0.000 A 
ATOM      7  C   UNL     1      -1.557  10.249  20.195  0.00  0.00    +0.000 A 
ATOM      8  C   UNL     1      -0.415   9.823  20.910  0.00  0.00    +0.000 A 
ATOM      9  C   UNL     1       1.976   9.217  18.249  0.00  0.00    +0.000 C 
ATOM     10  O   UNL     1       2.261   9.229  17.061  0.00  0.00    +0.000 OA
ENDROOT
BRANCH   1  15
ATOM     11  C   UNL     1       3.120   4.860  18.845  0.00  0.00    +0.000 A 
ATOM     12  C   UNL     1       2.874   4.550  20.193  0.00  0.00    +0.000 A 
ATOM     13  C   UNL     1       1.987   5.322  20.937  0.00  0.00    +0.000 A 
ATOM     14  C   UNL     1       1.459   6.482  20.388  0.00  0.00    +0.000 A 
ATOM     15  C   UNL     1       2.071   7.004  19.242  0.00  0.00    +0.000 A 
ATOM     16  C   UNL     1       2.755   6.133  18.389  0.00  0.00    +0.000 A 
BRANCH  11  18
ATOM     17  C   UNL     1       3.619   2.427  18.487  0.00  0.00    +0.000 C 
ATOM     18  C   UNL     1       3.827   3.852  17.954  0.00  0.00    +0.000 C 
BRANCH  18  19
ATOM     19  C   UNL     1       5.301   4.140  17.747  0.00  0.00    +0.000 A 
ATOM     20  N   UNL     1       6.191   4.263  18.719  0.00  0.00    +0.000 NA
ATOM     21  N   UNL     1       7.420   4.502  18.164  0.00  0.00    +0.000 NA
ATOM     22  C   UNL     1       7.271   4.518  16.865  0.00  0.00    +0.000 A 
ATOM     23  N   UNL     1       5.953   4.283  16.547  0.00  0.00    +0.000 N 
ATOM     24  C   UNL     1       5.452   4.231  15.205  0.00  0.00    +0.000 C 
ENDBRANCH  18  19
ENDBRANCH  11  18
ENDBRANCH   1  15
BRANCH   8  25
ATOM     25  C   UNL     1      -0.541   9.497  22.378  0.00  0.00    +0.000 C 
ATOM     26  F   UNL     1      -1.420  10.289  23.047  0.00  0.00    +0.000 F 
ATOM     27  F   UNL     1      -0.965   8.221  22.584  0.00  0.00    +0.000 F 
ATOM     28  F   UNL     1       0.641   9.615  23.040  0.00  0.00    +0.000 F 
ENDBRANCH   8  25
BRANCH   6  29
ATOM     29  C   UNL     1      -2.742  10.859  18.078  0.00  0.00    +0.000 C 
ATOM     30  O   UNL     1      -3.569  10.018  17.753  0.00  0.00    +0.000 OA
ENDBRANCH   6  29
TORSDOF 5
ENDMDL
MODEL 7
REMARK VINA RESULT:      -7.4      6.834      9.390
REMARK  Name = 
REMARK  7 active torsions:
REMARK  status: ('A' for Active; 'I' for Inactive)
REMARK    1  A    between atoms: C_1  and  C_2
REMARK    2  A    between atoms: C_2  and  C_3
REMARK    3  A    between atoms: C_2  and  C_25
REMARK    4  A    between atoms: C_7  and  N_8
REMARK    5  A    between atoms: C_13  and  C_14
REMARK    6  A    between atoms: C_17  and  C_18
REMARK    7  A    between atoms: N_29  and  C_30
REMARK                            x       y       z     vdW  Elec       q    Type
REMARK                         _______ _______ _______ _____ _____    ______ ____
ROOT
ATOM      1  N   UNL     1      -0.446  11.326  18.580  0.00  0.00    +0.000 N 
ATOM      2  C   UNL     1       0.327  10.634  19.645  0.00  0.00    +0.000 C 
ATOM      3  C   UNL     1      -0.200  11.276  20.896  0.00  0.00    +0.000 A 
ATOM      4  C   UNL     1      -0.670  12.547  20.548  0.00  0.00    +0.000 A 
ATOM      5  C   UNL     1      -1.363  13.364  21.425  0.00  0.00    +0.000 A 
ATOM      6  C   UNL     1      -1.592  12.861  22.703  0.00  0.00    +0.000 A 
ATOM      7  C   UNL     1      -1.134  11.578  23.074  0.00  0.00    +0.000 A 
ATOM      8  C   UNL     1      -0.422  10.759  22.168  0.00  0.00    +0.000 A 
ATOM      9  C   UNL     1      -0.682  12.633  19.072  0.00  0.00    +0.000 C 
ATOM     10  O   UNL     1      -1.063  13.622  18.464  0.00  0.00    +0.000 OA
ENDROOT
BRANCH   1  15
ATOM     11  C   UNL     1      -3.945  11.068  17.704  0.00  0.00    +0.000 A 
ATOM     12  C   UNL     1      -3.687  10.594  16.406  0.00  0.00    +0.000 A 
ATOM     13  C   UNL     1      -2.539   9.853  16.148  0.00  0.00    +0.000 A 
ATOM     14  C   UNL     1      -1.578   9.707  17.139  0.00  0.00    +0.000 A 
ATOM     15  C   UNL     1      -1.641  10.563  18.246  0.00  0.00    +0.000 A 
ATOM     16  C   UNL     1      -2.880  11.096  18.614  0.00  0.00    +0.000 A 
BRANCH  11  18
ATOM     17  C   UNL     1      -5.764  12.668  17.050  0.00  0.00    +0.000 C 
ATOM     18  C   UNL     1      -5.326  11.594  18.057  0.00  0.00    +0.000 C 
BRANCH  18  19
ATOM     19  C   UNL     1      -5.447  12.107  19.477  0.00  0.00    +0.000 A 
ATOM     20  N   UNL     1      -4.718  13.085  19.993  0.00  0.00    +0.000 NA
ATOM     21  N   UNL     1      -5.108  13.291  21.288  0.00  0.00    +0.000 NA
ATOM     22  C   UNL     1      -6.071  12.445  21.551  0.00  0.00    +0.000 A 
ATOM     23  N   UNL     1      -6.331  11.680  20.437  0.00  0.00    +0.000 N 
ATOM     24  C   UNL     1      -7.334  10.657  20.387  0.00  0.00    +0.000 C 
ENDBRANCH  18  19
ENDBRANCH  11  18
ENDBRANCH   1  15
BRANCH   8  25
ATOM     25  C   UNL     1      -0.029   9.363  22.585  0.00  0.00    +0.000 C 
ATOM     26  F   UNL     1      -0.103   9.145  23.926  0.00  0.00    +0.000 F 
ATOM     27  F   UNL     1      -0.820   8.416  22.014  0.00  0.00    +0.000 F 
ATOM     28  F   UNL     1       1.248   9.055  22.230  0.00  0.00    +0.000 F 
ENDBRANCH   8  25
BRANCH   6  29
ATOM     29  C   UNL     1      -2.401  13.655  23.653  0.00  0.00    +0.000 C 
ATOM     30  O   UNL     1      -2.984  14.673  23.304  0.00  0.00    +0.000 OA
ENDBRANCH   6  29
TORSDOF 5
ENDMDL
MODEL 8
REMARK VINA RESULT:      -7.4      6.617      9.280
REMARK  Name = 
REMARK  7 active torsions:
REMARK  status: ('A' for Active; 'I' for Inactive)
REMARK    1  A    between atoms: C_1  and  C_2
REMARK    2  A    between atoms: C_2  and  C_3
REMARK    3  A    between atoms: C_2  and  C_25
REMARK    4  A    between atoms: C_7  and  N_8
REMARK    5  A    between atoms: C_13  and  C_14
REMARK    6  A    between atoms: C_17  and  C_18
REMARK    7  A    between atoms: N_29  and  C_30
REMARK                            x       y       z     vdW  Elec       q    Type
REMARK                         _______ _______ _______ _____ _____    ______ ____
ROOT
ATOM      1  N   UNL     1      -0.513  11.071  18.209  0.00  0.00    +0.000 N 
ATOM      2  C   UNL     1       0.202  10.236  19.209  0.00  0.00    +0.000 C 
ATOM      3  C   UNL     1      -0.051  10.978  20.490  0.00  0.00    +0.000 A 
ATOM      4  C   UNL     1      -0.278  12.318  20.160  0.00  0.00    +0.000 A 
ATOM      5  C   UNL     1      -0.693  13.265  21.080  0.00  0.00    +0.000 A 
ATOM      6  C   UNL     1      -0.892  12.825  22.386  0.00  0.00    +0.000 A 
ATOM      7  C   UNL     1      -0.677  11.475  22.741  0.00  0.00    +0.000 A 
ATOM      8  C   UNL     1      -0.247  10.522  21.790  0.00  0.00    +0.000 A 
ATOM      9  C   UNL     1      -0.420  12.401  18.690  0.00  0.00    +0.000 C 
ATOM     10  O   UNL     1      -0.646  13.446  18.099  0.00  0.00    +0.000 OA
ENDROOT
BRANCH   1  15
ATOM     11  C   UNL     1      -4.102  11.500  18.113  0.00  0.00    +0.000 A 
ATOM     12  C   UNL     1      -4.188  11.306  16.724  0.00  0.00    +0.000 A 
ATOM     13  C   UNL     1      -3.264  10.494  16.074  0.00  0.00    +0.000 A 
ATOM     14  C   UNL     1      -2.175   9.996  16.774  0.00  0.00    +0.000 A 
ATOM     15  C   UNL     1      -1.869  10.575  18.011  0.00  0.00    +0.000 A 
ATOM     16  C   UNL     1      -2.896  11.174  18.746  0.00  0.00    +0.000 A 
BRANCH  11  18
ATOM     17  C   UNL     1      -4.766  13.064  19.960  0.00  0.00    +0.000 C 
ATOM     18  C   UNL     1      -5.272  12.114  18.864  0.00  0.00    +0.000 C 
BRANCH  18  19
ATOM     19  C   UNL     1      -6.239  11.098  19.437  0.00  0.00    +0.000 A 
ATOM     20  N   UNL     1      -6.321   9.833  19.054  0.00  0.00    +0.000 NA
ATOM     21  N   UNL     1      -7.288   9.209  19.796  0.00  0.00    +0.000 NA
ATOM     22  C   UNL     1      -7.783  10.093  20.624  0.00  0.00    +0.000 A 
ATOM     23  N   UNL     1      -7.147  11.300  20.446  0.00  0.00    +0.000 N 
ATOM     24  C   UNL     1      -7.451  12.481  21.201  0.00  0.00    +0.000 C 
ENDBRANCH  18  19
ENDBRANCH  11  18
ENDBRANCH   1  15
BRANCH   8  25
ATOM     25  C   UNL     1      -0.114   9.077  22.199  0.00  0.00    +0.000 C 
ATOM     26  F   UNL     1      -0.302   8.859  23.528  0.00  0.00    +0.000 F 
ATOM     27  F   UNL     1      -1.014   8.280  21.565  0.00  0.00    +0.000 F 
ATOM     28  F   UNL     1       1.114   8.566  21.911  0.00  0.00    +0.000 F 
ENDBRANCH   8  25
BRANCH   6  29
ATOM     29  C   UNL     1      -1.419  13.773  23.392  0.00  0.00    +0.000 C 
ATOM     30  O   UNL     1      -2.618  13.878  23.608  0.00  0.00    +0.000 OA
ENDBRANCH   6  29
TORSDOF 5
ENDMDL
MODEL 9
REMARK VINA RESULT:      -7.4      6.533      9.498
REMARK  Name = 
REMARK  7 active torsions:
REMARK  status: ('A' for Active; 'I' for Inactive)
REMARK    1  A    between atoms: C_1  and  C_2
REMARK    2  A    between atoms: C_2  and  C_3
REMARK    3  A    between atoms: C_2  and  C_25
REMARK    4  A    between atoms: C_7  and  N_8
REMARK    5  A    between atoms: C_13  and  C_14
REMARK    6  A    between atoms: C_17  and  C_18
REMARK    7  A    between atoms: N_29  and  C_30
REMARK                            x       y       z     vdW  Elec       q    Type
REMARK                         _______ _______ _______ _____ _____    ______ ____
ROOT
ATOM      1  N   UNL     1      -0.642  14.338  20.607  0.00  0.00    +0.000 N 
ATOM      2  C   UNL     1      -1.073  13.731  19.321  0.00  0.00    +0.000 C 
ATOM      3  C   UNL     1      -0.598  12.313  19.457  0.00  0.00    +0.000 A 
ATOM      4  C   UNL     1       0.479  12.316  20.348  0.00  0.00    +0.000 A 
ATOM      5  C   UNL     1       1.071  11.159  20.826  0.00  0.00    +0.000 A 
ATOM      6  C   UNL     1       0.534   9.952  20.383  0.00  0.00    +0.000 A 
ATOM      7  C   UNL     1      -0.560   9.925  19.490  0.00  0.00    +0.000 A 
ATOM      8  C   UNL     1      -1.147  11.116  19.008  0.00  0.00    +0.000 A 
ATOM      9  C   UNL     1       0.546  13.656  20.969  0.00  0.00    +0.000 C 
ATOM     10  O   UNL     1       1.378  13.963  21.809  0.00  0.00    +0.000 OA
ENDROOT
BRANCH   1  15
ATOM     11  C   UNL     1      -3.838  13.113  21.777  0.00  0.00    +0.000 A 
ATOM     12  C   UNL     1      -3.280  12.379  22.837  0.00  0.00    +0.000 A 
ATOM     13  C   UNL     1      -2.097  12.802  23.433  0.00  0.00    +0.000 A 
ATOM     14  C   UNL     1      -1.393  13.865  22.886  0.00  0.00    +0.000 A 
ATOM     15  C   UNL     1      -1.720  14.268  21.586  0.00  0.00    +0.000 A 
ATOM     16  C   UNL     1      -3.015  14.034  21.114  0.00  0.00    +0.000 A 
BRANCH  11  18
ATOM     17  C   UNL     1      -5.665  13.786  20.194  0.00  0.00    +0.000 C 
ATOM     18  C   UNL     1      -5.268  12.843  21.340  0.00  0.00    +0.000 C 
BRANCH  18  19
ATOM     19  C   UNL     1      -6.280  12.908  22.466  0.00  0.00    +0.000 A 
ATOM     20  N   UNL     1      -7.121  11.936  22.783  0.00  0.00    +0.000 NA
ATOM     21  N   UNL     1      -7.871  12.335  23.857  0.00  0.00    +0.000 NA
ATOM     22  C   UNL     1      -7.480  13.539  24.187  0.00  0.00    +0.000 A 
ATOM     23  N   UNL     1      -6.469  13.944  23.347  0.00  0.00    +0.000 N 
ATOM     24  C   UNL     1      -5.815  15.216  23.440  0.00  0.00    +0.000 C 
ENDBRANCH  18  19
ENDBRANCH  11  18
ENDBRANCH   1  15
BRANCH   8  25
ATOM     25  C   UNL     1      -2.367  11.034  18.123  0.00  0.00    +0.000 C 
ATOM     26  F   UNL     1      -2.724   9.764  17.791  0.00  0.00    +0.000 F 
ATOM     27  F   UNL     1      -3.463  11.583  18.711  0.00  0.00    +0.000 F 
ATOM     28  F   UNL     1      -2.199  11.692  16.944  0.00  0.00    +0.000 F 
ENDBRANCH   8  25
BRANCH   6  29
ATOM     29  C   UNL     1       1.069   8.686  20.928  0.00  0.00    +0.000 C 
ATOM     30  O   UNL     1       1.383   8.576  22.106  0.00  0.00    +0.000 OA
ENDBRANCH   6  29
TORSDOF 5
ENDMDL
