MODEL 1
REMARK VINA RESULT:      -8.5      0.000      0.000
REMARK  Name = 
REMARK  4 active torsions:
REMARK  status: ('A' for Active; 'I' for Inactive)
REMARK    1  A    between atoms: C_2  and  C_20
REMARK    2  A    between atoms: N_3  and  C_4
REMARK    3  A    between atoms: C_7  and  O_8
REMARK    4  A    between atoms: O_8  and  C_9
REMARK                            x       y       z     vdW  Elec       q    Type
REMARK                         _______ _______ _______ _____ _____    ______ ____
ROOT
ATOM      1  C   UNL     1       8.024   8.257  17.994  0.00  0.00    +0.000 A 
ATOM      2  C   UNL     1       8.409   7.231  18.858  0.00  0.00    +0.000 A 
ATOM      3  C   UNL     1       7.729   6.015  18.863  0.00  0.00    +0.000 A 
ATOM      4  C   UNL     1       6.631   5.835  18.028  0.00  0.00    +0.000 A 
ATOM      5  C   UNL     1       6.205   6.861  17.188  0.00  0.00    +0.000 A 
ATOM      6  C   UNL     1       6.894   8.080  17.184  0.00  0.00    +0.000 A 
ENDROOT
BRANCH   1   9
ATOM      7  O   UNL     1       8.969  10.082  20.110  0.00  0.00    +0.000 OA
ATOM      8  C   UNL     1       9.144  10.285  18.912  0.00  0.00    +0.000 C 
ATOM      9  N   UNL     1       8.742   9.464  17.873  0.00  0.00    +0.000 N 
ATOM     10  H   UNL     1       9.062   9.704  16.943  0.00  0.00    +0.000 HD
BRANCH   8  11
ATOM     11  C   UNL     1       9.970  11.462  18.533  0.00  0.00    +0.000 A 
ATOM     12  C   UNL     1      11.307  11.434  18.968  0.00  0.00    +0.000 A 
ATOM     13  C   UNL     1      12.181  12.478  18.663  0.00  0.00    +0.000 A 
ATOM     14  C   UNL     1      11.724  13.561  17.917  0.00  0.00    +0.000 A 
ATOM     15  C   UNL     1      10.396  13.611  17.497  0.00  0.00    +0.000 A 
ATOM     16  C   UNL     1       9.508  12.571  17.812  0.00  0.00    +0.000 A 
ATOM     17 BR   UNL     1       7.705  12.806  17.263  0.00  0.00    +0.000 Br
ENDBRANCH   8  11
ENDBRANCH   1   9
BRANCH   4  18
ATOM     18  O   UNL     1       6.000   4.582  17.892  0.00  0.00    +0.000 OA
BRANCH  18  19
ATOM     19  C   UNL     1       4.700   4.414  18.342  0.00  0.00    +0.000 A 
ATOM     20  C   UNL     1       3.897   3.857  17.223  0.00  0.00    +0.000 A 
ATOM     21  C   UNL     1       2.615   3.573  17.493  0.00  0.00    +0.000 A 
ATOM     22  C   UNL     1       2.119   3.839  18.787  0.00  0.00    +0.000 A 
ATOM     23  N   UNL     1       0.955   3.675  19.369  0.00  0.00    +0.000 NA
ATOM     24  N   UNL     1       1.118   4.127  20.660  0.00  0.00    +0.000 NA
ATOM     25  N   UNL     1       2.357   4.559  20.869  0.00  0.00    +0.000 NA
ATOM     26  N   UNL     1       2.996   4.389  19.704  0.00  0.00    +0.000 N 
ATOM     27  N   UNL     1       4.300   4.697  19.538  0.00  0.00    +0.000 NA
ENDBRANCH  18  19
ENDBRANCH   4  18
TORSDOF 4
ENDMDL
MODEL 2
REMARK VINA RESULT:      -8.2      1.461      1.584
REMARK  Name = 
REMARK  4 active torsions:
REMARK  status: ('A' for Active; 'I' for Inactive)
REMARK    1  A    between atoms: C_2  and  C_20
REMARK    2  A    between atoms: N_3  and  C_4
REMARK    3  A    between atoms: C_7  and  O_8
REMARK    4  A    between atoms: O_8  and  C_9
REMARK                            x       y       z     vdW  Elec       q    Type
REMARK                         _______ _______ _______ _____ _____    ______ ____
ROOT
ATOM      1  C   UNL     1       8.140   7.628  18.481  0.00  0.00    +0.000 A 
ATOM      2  C   UNL     1       8.128   6.503  19.306  0.00  0.00    +0.000 A 
ATOM      3  C   UNL     1       7.299   5.421  19.019  0.00  0.00    +0.000 A 
ATOM      4  C   UNL     1       6.444   5.478  17.922  0.00  0.00    +0.000 A 
ATOM      5  C   UNL     1       6.410   6.609  17.110  0.00  0.00    +0.000 A 
ATOM      6  C   UNL     1       7.248   7.692  17.401  0.00  0.00    +0.000 A 
ENDROOT
BRANCH   1   9
ATOM      7  O   UNL     1       7.749  10.497  17.918  0.00  0.00    +0.000 OA
ATOM      8  C   UNL     1       8.792  10.030  18.364  0.00  0.00    +0.000 C 
ATOM      9  N   UNL     1       9.035   8.702  18.665  0.00  0.00    +0.000 N 
ATOM     10  H   UNL     1       9.904   8.485  19.139  0.00  0.00    +0.000 HD
BRANCH   8  11
ATOM     11  C   UNL     1       9.866  10.991  18.733  0.00  0.00    +0.000 A 
ATOM     12  C   UNL     1      10.778  11.308  17.710  0.00  0.00    +0.000 A 
ATOM     13  C   UNL     1      11.821  12.206  17.935  0.00  0.00    +0.000 A 
ATOM     14  C   UNL     1      11.961  12.799  19.187  0.00  0.00    +0.000 A 
ATOM     15  C   UNL     1      11.076  12.478  20.215  0.00  0.00    +0.000 A 
ATOM     16  C   UNL     1      10.032  11.564  20.000  0.00  0.00    +0.000 A 
ATOM     17 BR   UNL     1       8.957  11.143  21.508  0.00  0.00    +0.000 Br
ENDBRANCH   8  11
ENDBRANCH   1   9
BRANCH   4  18
ATOM     18  O   UNL     1       5.693   4.360  17.508  0.00  0.00    +0.000 OA
BRANCH  18  19
ATOM     19  C   UNL     1       4.515   4.041  18.165  0.00  0.00    +0.000 A 
ATOM     20  C   UNL     1       3.382   4.435  17.290  0.00  0.00    +0.000 A 
ATOM     21  C   UNL     1       2.152   4.148  17.741  0.00  0.00    +0.000 A 
ATOM     22  C   UNL     1       2.020   3.524  19.000  0.00  0.00    +0.000 A 
ATOM     23  N   UNL     1       0.997   3.109  19.710  0.00  0.00    +0.000 NA
ATOM     24  N   UNL     1       1.536   2.573  20.859  0.00  0.00    +0.000 NA
ATOM     25  N   UNL     1       2.862   2.656  20.857  0.00  0.00    +0.000 NA
ATOM     26  N   UNL     1       3.181   3.253  19.701  0.00  0.00    +0.000 N 
ATOM     27  N   UNL     1       4.458   3.488  19.332  0.00  0.00    +0.000 NA
ENDBRANCH  18  19
ENDBRANCH   4  18
TORSDOF 4
ENDMDL
MODEL 3
REMARK VINA RESULT:      -8.2      0.950      1.351
REMARK  Name = 
REMARK  4 active torsions:
REMARK  status: ('A' for Active; 'I' for Inactive)
REMARK    1  A    between atoms: C_2  and  C_20
REMARK    2  A    between atoms: N_3  and  C_4
REMARK    3  A    between atoms: C_7  and  O_8
REMARK    4  A    between atoms: O_8  and  C_9
REMARK                            x       y       z     vdW  Elec       q    Type
REMARK                         _______ _______ _______ _____ _____    ______ ____
ROOT
ATOM      1  C   UNL     1       8.153   8.300  18.017  0.00  0.00    +0.000 A 
ATOM      2  C   UNL     1       8.499   7.372  19.000  0.00  0.00    +0.000 A 
ATOM      3  C   UNL     1       7.898   6.115  19.033  0.00  0.00    +0.000 A 
ATOM      4  C   UNL     1       6.915   5.796  18.101  0.00  0.00    +0.000 A 
ATOM      5  C   UNL     1       6.526   6.723  17.137  0.00  0.00    +0.000 A 
ATOM      6  C   UNL     1       7.135   7.983  17.107  0.00  0.00    +0.000 A 
ENDROOT
BRANCH   1   9
ATOM      7  O   UNL     1       9.029  10.194  20.102  0.00  0.00    +0.000 OA
ATOM      8  C   UNL     1       9.177  10.392  18.900  0.00  0.00    +0.000 C 
ATOM      9  N   UNL     1       8.806   9.542  17.874  0.00  0.00    +0.000 N 
ATOM     10  H   UNL     1       9.101   9.788  16.938  0.00  0.00    +0.000 HD
BRANCH   8  11
ATOM     11  C   UNL     1       9.935  11.608  18.499  0.00  0.00    +0.000 A 
ATOM     12  C   UNL     1      11.291  11.632  18.874  0.00  0.00    +0.000 A 
ATOM     13  C   UNL     1      12.106  12.714  18.542  0.00  0.00    +0.000 A 
ATOM     14  C   UNL     1      11.572  13.785  17.830  0.00  0.00    +0.000 A 
ATOM     15  C   UNL     1      10.225  13.782  17.470  0.00  0.00    +0.000 A 
ATOM     16  C   UNL     1       9.396  12.703  17.812  0.00  0.00    +0.000 A 
ATOM     17 BR   UNL     1       7.563  12.868  17.346  0.00  0.00    +0.000 Br
ENDBRANCH   8  11
ENDBRANCH   1   9
BRANCH   4  18
ATOM     18  O   UNL     1       6.382   4.495  18.002  0.00  0.00    +0.000 OA
BRANCH  18  19
ATOM     19  C   UNL     1       5.039   4.280  18.271  0.00  0.00    +0.000 A 
ATOM     20  C   UNL     1       4.656   5.144  19.416  0.00  0.00    +0.000 A 
ATOM     21  C   UNL     1       3.367   5.112  19.784  0.00  0.00    +0.000 A 
ATOM     22  C   UNL     1       2.485   4.259  19.087  0.00  0.00    +0.000 A 
ATOM     23  N   UNL     1       1.201   4.002  19.180  0.00  0.00    +0.000 NA
ATOM     24  N   UNL     1       0.937   3.073  18.198  0.00  0.00    +0.000 NA
ATOM     25  N   UNL     1       2.034   2.764  17.515  0.00  0.00    +0.000 NA
ATOM     26  N   UNL     1       3.013   3.496  18.062  0.00  0.00    +0.000 N 
ATOM     27  N   UNL     1       4.285   3.466  17.608  0.00  0.00    +0.000 NA
ENDBRANCH  18  19
ENDBRANCH   4  18
TORSDOF 4
ENDMDL
MODEL 4
REMARK VINA RESULT:      -8.1      1.673      2.173
REMARK  Name = 
REMARK  4 active torsions:
REMARK  status: ('A' for Active; 'I' for Inactive)
REMARK    1  A    between atoms: C_2  and  C_20
REMARK    2  A    between atoms: N_3  and  C_4
REMARK    3  A    between atoms: C_7  and  O_8
REMARK    4  A    between atoms: O_8  and  C_9
REMARK                            x       y       z     vdW  Elec       q    Type
REMARK                         _______ _______ _______ _____ _____    ______ ____
ROOT
ATOM      1  C   UNL     1       8.123   7.702  18.309  0.00  0.00    +0.000 A 
ATOM      2  C   UNL     1       7.226   7.822  17.247  0.00  0.00    +0.000 A 
ATOM      3  C   UNL     1       6.290   6.822  16.992  0.00  0.00    +0.000 A 
ATOM      4  C   UNL     1       6.276   5.674  17.778  0.00  0.00    +0.000 A 
ATOM      5  C   UNL     1       7.190   5.516  18.817  0.00  0.00    +0.000 A 
ATOM      6  C   UNL     1       8.125   6.526  19.072  0.00  0.00    +0.000 A 
ENDROOT
BRANCH   1   9
ATOM      7  O   UNL     1       7.886  10.611  17.888  0.00  0.00    +0.000 OA
ATOM      8  C   UNL     1       8.849  10.082  18.433  0.00  0.00    +0.000 C 
ATOM      9  N   UNL     1       9.015   8.730  18.676  0.00  0.00    +0.000 N 
ATOM     10  H   UNL     1       9.809   8.455  19.241  0.00  0.00    +0.000 HD
BRANCH   8  11
ATOM     11  C   UNL     1       9.891  10.981  18.998  0.00  0.00    +0.000 A 
ATOM     12  C   UNL     1      10.957  11.297  18.136  0.00  0.00    +0.000 A 
ATOM     13  C   UNL     1      11.988  12.140  18.551  0.00  0.00    +0.000 A 
ATOM     14  C   UNL     1      11.961  12.678  19.835  0.00  0.00    +0.000 A 
ATOM     15  C   UNL     1      10.921  12.357  20.706  0.00  0.00    +0.000 A 
ATOM     16  C   UNL     1       9.888  11.498  20.300  0.00  0.00    +0.000 A 
ATOM     17 BR   UNL     1       8.585  11.067  21.613  0.00  0.00    +0.000 Br
ENDBRANCH   8  11
ENDBRANCH   1   9
BRANCH   4  18
ATOM     18  O   UNL     1       5.263   4.702  17.653  0.00  0.00    +0.000 OA
BRANCH  18  19
ATOM     19  C   UNL     1       4.453   4.408  18.739  0.00  0.00    +0.000 A 
ATOM     20  C   UNL     1       3.476   5.515  18.894  0.00  0.00    +0.000 A 
ATOM     21  C   UNL     1       2.566   5.375  19.869  0.00  0.00    +0.000 A 
ATOM     22  C   UNL     1       2.612   4.221  20.679  0.00  0.00    +0.000 A 
ATOM     23  N   UNL     1       1.889   3.780  21.681  0.00  0.00    +0.000 NA
ATOM     24  N   UNL     1       2.446   2.572  22.038  0.00  0.00    +0.000 NA
ATOM     25  N   UNL     1       3.490   2.275  21.272  0.00  0.00    +0.000 NA
ATOM     26  N   UNL     1       3.610   3.299  20.418  0.00  0.00    +0.000 N 
ATOM     27  N   UNL     1       4.559   3.340  19.459  0.00  0.00    +0.000 NA
ENDBRANCH  18  19
ENDBRANCH   4  18
TORSDOF 4
ENDMDL
MODEL 5
REMARK VINA RESULT:      -8.1      6.671      8.474
REMARK  Name = 
REMARK  4 active torsions:
REMARK  status: ('A' for Active; 'I' for Inactive)
REMARK    1  A    between atoms: C_2  and  C_20
REMARK    2  A    between atoms: N_3  and  C_4
REMARK    3  A    between atoms: C_7  and  O_8
REMARK    4  A    between atoms: O_8  and  C_9
REMARK                            x       y       z     vdW  Elec       q    Type
REMARK                         _______ _______ _______ _____ _____    ______ ____
ROOT
ATOM      1  C   UNL     1       1.352   9.120  19.692  0.00  0.00    +0.000 A 
ATOM      2  C   UNL     1       1.754   9.059  18.358  0.00  0.00    +0.000 A 
ATOM      3  C   UNL     1       2.284   7.884  17.828  0.00  0.00    +0.000 A 
ATOM      4  C   UNL     1       2.450   6.772  18.648  0.00  0.00    +0.000 A 
ATOM      5  C   UNL     1       2.094   6.824  19.993  0.00  0.00    +0.000 A 
ATOM      6  C   UNL     1       1.559   8.007  20.519  0.00  0.00    +0.000 A 
ENDROOT
BRANCH   1   9
ATOM      7  O   UNL     1      -1.242  10.329  18.980  0.00  0.00    +0.000 OA
ATOM      8  C   UNL     1      -0.505  10.773  19.853  0.00  0.00    +0.000 C 
ATOM      9  N   UNL     1       0.713  10.247  20.247  0.00  0.00    +0.000 N 
ATOM     10  H   UNL     1       1.152  10.655  21.064  0.00  0.00    +0.000 HD
BRANCH   8  11
ATOM     11  C   UNL     1      -1.012  11.919  20.655  0.00  0.00    +0.000 A 
ATOM     12  C   UNL     1      -1.232  13.112  19.943  0.00  0.00    +0.000 A 
ATOM     13  C   UNL     1      -1.718  14.251  20.586  0.00  0.00    +0.000 A 
ATOM     14  C   UNL     1      -1.990  14.206  21.951  0.00  0.00    +0.000 A 
ATOM     15  C   UNL     1      -1.757  13.036  22.672  0.00  0.00    +0.000 A 
ATOM     16  C   UNL     1      -1.255  11.891  22.035  0.00  0.00    +0.000 A 
ATOM     17 BR   UNL     1      -0.893  10.396  23.148  0.00  0.00    +0.000 Br
ENDBRANCH   8  11
ENDBRANCH   1   9
BRANCH   4  18
ATOM     18  O   UNL     1       2.846   5.522  18.130  0.00  0.00    +0.000 OA
BRANCH  18  19
ATOM     19  C   UNL     1       4.131   5.357  17.638  0.00  0.00    +0.000 A 
ATOM     20  C   UNL     1       4.962   4.764  18.716  0.00  0.00    +0.000 A 
ATOM     21  C   UNL     1       6.233   4.477  18.401  0.00  0.00    +0.000 A 
ATOM     22  C   UNL     1       6.693   4.775  17.101  0.00  0.00    +0.000 A 
ATOM     23  N   UNL     1       7.838   4.618  16.480  0.00  0.00    +0.000 NA
ATOM     24  N   UNL     1       7.640   5.107  15.207  0.00  0.00    +0.000 NA
ATOM     25  N   UNL     1       6.400   5.554  15.047  0.00  0.00    +0.000 NA
ATOM     26  N   UNL     1       5.794   5.357  16.225  0.00  0.00    +0.000 N 
ATOM     27  N   UNL     1       4.498   5.670  16.439  0.00  0.00    +0.000 NA
ENDBRANCH  18  19
ENDBRANCH   4  18
TORSDOF 4
ENDMDL
MODEL 6
REMARK VINA RESULT:      -8.1      6.272      7.706
REMARK  Name = 
REMARK  4 active torsions:
REMARK  status: ('A' for Active; 'I' for Inactive)
REMARK    1  A    between atoms: C_2  and  C_20
REMARK    2  A    between atoms: N_3  and  C_4
REMARK    3  A    between atoms: C_7  and  O_8
REMARK    4  A    between atoms: O_8  and  C_9
REMARK                            x       y       z     vdW  Elec       q    Type
REMARK                         _______ _______ _______ _____ _____    ______ ____
ROOT
ATOM      1  C   UNL     1       1.381   9.087  19.584  0.00  0.00    +0.000 A 
ATOM      2  C   UNL     1       1.281   8.185  20.644  0.00  0.00    +0.000 A 
ATOM      3  C   UNL     1       1.688   6.861  20.491  0.00  0.00    +0.000 A 
ATOM      4  C   UNL     1       2.161   6.423  19.258  0.00  0.00    +0.000 A 
ATOM      5  C   UNL     1       2.230   7.296  18.176  0.00  0.00    +0.000 A 
ATOM      6  C   UNL     1       1.823   8.626  18.336  0.00  0.00    +0.000 A 
ENDROOT
BRANCH   1   9
ATOM      7  O   UNL     1      -1.148  10.506  19.046  0.00  0.00    +0.000 OA
ATOM      8  C   UNL     1      -0.126  11.065  19.431  0.00  0.00    +0.000 C 
ATOM      9  N   UNL     1       1.084  10.458  19.717  0.00  0.00    +0.000 N 
ATOM     10  H   UNL     1       1.803  11.033  20.139  0.00  0.00    +0.000 HD
BRANCH   8  11
ATOM     11  C   UNL     1      -0.217  12.517  19.739  0.00  0.00    +0.000 A 
ATOM     12  C   UNL     1       0.123  13.386  18.685  0.00  0.00    +0.000 A 
ATOM     13  C   UNL     1       0.064  14.770  18.852  0.00  0.00    +0.000 A 
ATOM     14  C   UNL     1      -0.338  15.299  20.075  0.00  0.00    +0.000 A 
ATOM     15  C   UNL     1      -0.659  14.450  21.132  0.00  0.00    +0.000 A 
ATOM     16  C   UNL     1      -0.589  13.057  20.977  0.00  0.00    +0.000 A 
ATOM     17 BR   UNL     1      -0.959  12.016  22.522  0.00  0.00    +0.000 Br
ENDBRANCH   8  11
ENDBRANCH   1   9
BRANCH   4  18
ATOM     18  O   UNL     1       2.716   5.138  19.091  0.00  0.00    +0.000 OA
BRANCH  18  19
ATOM     19  C   UNL     1       4.079   5.000  18.876  0.00  0.00    +0.000 A 
ATOM     20  C   UNL     1       4.274   4.425  17.522  0.00  0.00    +0.000 A 
ATOM     21  C   UNL     1       5.542   4.272  17.114  0.00  0.00    +0.000 A 
ATOM     22  C   UNL     1       6.584   4.639  17.992  0.00  0.00    +0.000 A 
ATOM     23  N   UNL     1       7.894   4.629  17.907  0.00  0.00    +0.000 NA
ATOM     24  N   UNL     1       8.347   5.125  19.110  0.00  0.00    +0.000 NA
ATOM     25  N   UNL     1       7.339   5.433  19.918  0.00  0.00    +0.000 NA
ATOM     26  N   UNL     1       6.228   5.131  19.234  0.00  0.00    +0.000 N 
ATOM     27  N   UNL     1       4.989   5.335  19.731  0.00  0.00    +0.000 NA
ENDBRANCH  18  19
ENDBRANCH   4  18
TORSDOF 4
ENDMDL
MODEL 7
REMARK VINA RESULT:      -8.0      5.943      7.822
REMARK  Name = 
REMARK  4 active torsions:
REMARK  status: ('A' for Active; 'I' for Inactive)
REMARK    1  A    between atoms: C_2  and  C_20
REMARK    2  A    between atoms: N_3  and  C_4
REMARK    3  A    between atoms: C_7  and  O_8
REMARK    4  A    between atoms: O_8  and  C_9
REMARK                            x       y       z     vdW  Elec       q    Type
REMARK                         _______ _______ _______ _____ _____    ______ ____
ROOT
ATOM      1  C   UNL     1       1.508   8.201  20.264  0.00  0.00    +0.000 A 
ATOM      2  C   UNL     1       1.360   7.031  21.010  0.00  0.00    +0.000 A 
ATOM      3  C   UNL     1       1.811   5.810  20.513  0.00  0.00    +0.000 A 
ATOM      4  C   UNL     1       2.378   5.749  19.244  0.00  0.00    +0.000 A 
ATOM      5  C   UNL     1       2.498   6.899  18.466  0.00  0.00    +0.000 A 
ATOM      6  C   UNL     1       2.046   8.123  18.972  0.00  0.00    +0.000 A 
ENDROOT
BRANCH   1   9
ATOM      7  O   UNL     1      -0.674  10.004  19.437  0.00  0.00    +0.000 OA
ATOM      8  C   UNL     1       0.134  10.279  20.318  0.00  0.00    +0.000 C 
ATOM      9  N   UNL     1       1.168   9.474  20.765  0.00  0.00    +0.000 N 
ATOM     10  H   UNL     1       1.679   9.787  21.581  0.00  0.00    +0.000 HD
BRANCH   8  11
ATOM     11  C   UNL     1      -0.079  11.545  21.068  0.00  0.00    +0.000 A 
ATOM     12  C   UNL     1      -0.946  11.461  22.173  0.00  0.00    +0.000 A 
ATOM     13  C   UNL     1      -1.213  12.581  22.960  0.00  0.00    +0.000 A 
ATOM     14  C   UNL     1      -0.614  13.799  22.650  0.00  0.00    +0.000 A 
ATOM     15  C   UNL     1       0.232  13.900  21.546  0.00  0.00    +0.000 A 
ATOM     16  C   UNL     1       0.495  12.781  20.742  0.00  0.00    +0.000 A 
ATOM     17 BR   UNL     1       1.586  13.076  19.216  0.00  0.00    +0.000 Br
ENDBRANCH   8  11
ENDBRANCH   1   9
BRANCH   4  18
ATOM     18  O   UNL     1       2.977   4.571  18.755  0.00  0.00    +0.000 OA
BRANCH  18  19
ATOM     19  C   UNL     1       4.181   4.643  18.070  0.00  0.00    +0.000 A 
ATOM     20  C   UNL     1       5.263   4.845  19.066  0.00  0.00    +0.000 A 
ATOM     21  C   UNL     1       6.515   4.882  18.588  0.00  0.00    +0.000 A 
ATOM     22  C   UNL     1       6.713   4.754  17.196  0.00  0.00    +0.000 A 
ATOM     23  N   UNL     1       7.774   4.737  16.424  0.00  0.00    +0.000 NA
ATOM     24  N   UNL     1       7.296   4.570  15.142  0.00  0.00    +0.000 NA
ATOM     25  N   UNL     1       5.971   4.486  15.126  0.00  0.00    +0.000 NA
ATOM     26  N   UNL     1       5.590   4.603  16.404  0.00  0.00    +0.000 N 
ATOM     27  N   UNL     1       4.296   4.540  16.787  0.00  0.00    +0.000 NA
ENDBRANCH  18  19
ENDBRANCH   4  18
TORSDOF 4
ENDMDL
MODEL 8
REMARK VINA RESULT:      -8.0      6.356      7.879
REMARK  Name = 
REMARK  4 active torsions:
REMARK  status: ('A' for Active; 'I' for Inactive)
REMARK    1  A    between atoms: C_2  and  C_20
REMARK    2  A    between atoms: N_3  and  C_4
REMARK    3  A    between atoms: C_7  and  O_8
REMARK    4  A    between atoms: O_8  and  C_9
REMARK                            x       y       z     vdW  Elec       q    Type
REMARK                         _______ _______ _______ _____ _____    ______ ____
ROOT
ATOM      1  C   UNL     1       1.483   9.010  19.471  0.00  0.00    +0.000 A 
ATOM      2  C   UNL     1       1.472   8.113  20.541  0.00  0.00    +0.000 A 
ATOM      3  C   UNL     1       1.955   6.816  20.386  0.00  0.00    +0.000 A 
ATOM      4  C   UNL     1       2.416   6.396  19.142  0.00  0.00    +0.000 A 
ATOM      5  C   UNL     1       2.398   7.261  18.051  0.00  0.00    +0.000 A 
ATOM      6  C   UNL     1       1.914   8.565  18.214  0.00  0.00    +0.000 A 
ENDROOT
BRANCH   1   9
ATOM      7  O   UNL     1      -1.169  10.248  19.112  0.00  0.00    +0.000 OA
ATOM      8  C   UNL     1      -0.160  10.881  19.404  0.00  0.00    +0.000 C 
ATOM      9  N   UNL     1       1.107  10.362  19.603  0.00  0.00    +0.000 N 
ATOM     10  H   UNL     1       1.816  10.992  19.956  0.00  0.00    +0.000 HD
BRANCH   8  11
ATOM     11  C   UNL     1      -0.324  12.331  19.691  0.00  0.00    +0.000 A 
ATOM     12  C   UNL     1      -0.052  13.200  18.619  0.00  0.00    +0.000 A 
ATOM     13  C   UNL     1      -0.182  14.581  18.765  0.00  0.00    +0.000 A 
ATOM     14  C   UNL     1      -0.589  15.107  19.988  0.00  0.00    +0.000 A 
ATOM     15  C   UNL     1      -0.843  14.259  21.065  0.00  0.00    +0.000 A 
ATOM     16  C   UNL     1      -0.700  12.869  20.929  0.00  0.00    +0.000 A 
ATOM     17 BR   UNL     1      -0.984  11.835  22.496  0.00  0.00    +0.000 Br
ENDBRANCH   8  11
ENDBRANCH   1   9
BRANCH   4  18
ATOM     18  O   UNL     1       3.044   5.146  18.968  0.00  0.00    +0.000 OA
BRANCH  18  19
ATOM     19  C   UNL     1       4.249   5.071  18.287  0.00  0.00    +0.000 A 
ATOM     20  C   UNL     1       5.344   5.285  19.267  0.00  0.00    +0.000 A 
ATOM     21  C   UNL     1       6.595   5.190  18.795  0.00  0.00    +0.000 A 
ATOM     22  C   UNL     1       6.783   4.922  17.422  0.00  0.00    +0.000 A 
ATOM     23  N   UNL     1       7.839   4.760  16.660  0.00  0.00    +0.000 NA
ATOM     24  N   UNL     1       7.351   4.512  15.396  0.00  0.00    +0.000 NA
ATOM     25  N   UNL     1       6.023   4.521  15.379  0.00  0.00    +0.000 NA
ATOM     26  N   UNL     1       5.651   4.780  16.640  0.00  0.00    +0.000 N 
ATOM     27  N   UNL     1       4.356   4.844  17.019  0.00  0.00    +0.000 NA
ENDBRANCH  18  19
ENDBRANCH   4  18
TORSDOF 4
ENDMDL
MODEL 9
REMARK VINA RESULT:      -8.0      6.180      7.785
REMARK  Name = 
REMARK  4 active torsions:
REMARK  status: ('A' for Active; 'I' for Inactive)
REMARK    1  A    between atoms: C_2  and  C_20
REMARK    2  A    between atoms: N_3  and  C_4
REMARK    3  A    between atoms: C_7  and  O_8
REMARK    4  A    between atoms: O_8  and  C_9
REMARK                            x       y       z     vdW  Elec       q    Type
REMARK                         _______ _______ _______ _____ _____    ______ ____
ROOT
ATOM      1  C   UNL     1       1.438   8.911  19.801  0.00  0.00    +0.000 A 
ATOM      2  C   UNL     1       1.591   7.713  20.500  0.00  0.00    +0.000 A 
ATOM      3  C   UNL     1       2.060   6.570  19.856  0.00  0.00    +0.000 A 
ATOM      4  C   UNL     1       2.340   6.612  18.494  0.00  0.00    +0.000 A 
ATOM      5  C   UNL     1       2.155   7.786  17.768  0.00  0.00    +0.000 A 
ATOM      6  C   UNL     1       1.687   8.933  18.422  0.00  0.00    +0.000 A 
ENDROOT
BRANCH   1   9
ATOM      7  O   UNL     1      -1.001  10.530  19.440  0.00  0.00    +0.000 OA
ATOM      8  C   UNL     1      -0.088  10.840  20.199  0.00  0.00    +0.000 C 
ATOM      9  N   UNL     1       1.071  10.120  20.427  0.00  0.00    +0.000 N 
ATOM     10  H   UNL     1       1.678  10.442  21.171  0.00  0.00    +0.000 HD
BRANCH   8  11
ATOM     11  C   UNL     1      -0.289  12.042  21.051  0.00  0.00    +0.000 A 
ATOM     12  C   UNL     1      -0.995  11.829  22.249  0.00  0.00    +0.000 A 
ATOM     13  C   UNL     1      -1.234  12.880  23.135  0.00  0.00    +0.000 A 
ATOM     14  C   UNL     1      -0.768  14.156  22.831  0.00  0.00    +0.000 A 
ATOM     15  C   UNL     1      -0.084  14.384  21.637  0.00  0.00    +0.000 A 
ATOM     16  C   UNL     1       0.148  13.335  20.735  0.00  0.00    +0.000 A 
ATOM     17 BR   UNL     1       1.005  13.799  19.105  0.00  0.00    +0.000 Br
ENDBRANCH   8  11
ENDBRANCH   1   9
BRANCH   4  18
ATOM     18  O   UNL     1       2.949   5.529  17.828  0.00  0.00    +0.000 OA
BRANCH  18  19
ATOM     19  C   UNL     1       4.301   5.283  18.010  0.00  0.00    +0.000 A 
ATOM     20  C   UNL     1       4.830   4.686  16.757  0.00  0.00    +0.000 A 
ATOM     21  C   UNL     1       6.147   4.431  16.727  0.00  0.00    +0.000 A 
ATOM     22  C   UNL     1       6.919   4.719  17.872  0.00  0.00    +0.000 A 
ATOM     23  N   UNL     1       8.193   4.606  18.165  0.00  0.00    +0.000 NA
ATOM     24  N   UNL     1       8.320   5.071  19.455  0.00  0.00    +0.000 NA
ATOM     25  N   UNL     1       7.150   5.463  19.947  0.00  0.00    +0.000 NA
ATOM     26  N   UNL     1       6.261   5.245  18.968  0.00  0.00    +0.000 N 
ATOM     27  N   UNL     1       4.951   5.550  19.094  0.00  0.00    +0.000 NA
ENDBRANCH  18  19
ENDBRANCH   4  18
TORSDOF 4
ENDMDL
