MODEL 1
REMARK VINA RESULT:      -8.1      0.000      0.000
REMARK  Name = 
REMARK  5 active torsions:
REMARK  status: ('A' for Active; 'I' for Inactive)
REMARK    1  A    between atoms: C_1  and  C_2
REMARK    2  A    between atoms: C_8  and  N_9
REMARK    3  A    between atoms: C_10  and  C_12
REMARK    4  A    between atoms: N_16  and  C_17
REMARK    5  A    between atoms: N_16  and  C_18
REMARK                            x       y       z     vdW  Elec       q    Type
REMARK                         _______ _______ _______ _____ _____    ______ ____
ROOT
ATOM      1  N   UNL     1       0.164  11.118  21.646  0.00  0.00    +0.000 N 
ATOM      2  C   UNL     1       0.159  10.730  20.319  0.00  0.00    +0.000 C 
ATOM      3  O   UNL     1      -0.414  11.321  19.407  0.00  0.00    +0.000 OA
ATOM      4  H   UNL     1       0.831  10.685  22.269  0.00  0.00    +0.000 HD
ENDROOT
BRANCH   1  12
ATOM      5  C   UNL     1      -4.540  12.317  24.733  0.00  0.00    +0.000 C 
ATOM      6  C   UNL     1      -3.596  13.320  24.187  0.00  0.00    +0.000 A 
ATOM      7  N   UNL     1      -3.788  14.627  24.420  0.00  0.00    +0.000 NA
ATOM      8  N   UNL     1      -2.752  15.217  23.792  0.00  0.00    +0.000 N 
ATOM      9  C   UNL     1      -1.915  14.342  23.170  0.00  0.00    +0.000 A 
ATOM     10  N   UNL     1      -0.809  14.659  22.478  0.00  0.00    +0.000 NA
ATOM     11  C   UNL     1      -0.167  13.560  21.998  0.00  0.00    +0.000 A 
ATOM     12  C   UNL     1      -0.562  12.225  22.159  0.00  0.00    +0.000 A 
ATOM     13  C   UNL     1      -1.745  11.975  22.865  0.00  0.00    +0.000 A 
ATOM     14  C   UNL     1      -2.434  13.078  23.402  0.00  0.00    +0.000 A 
ATOM     15  H   UNL     1      -2.659  16.225  23.822  0.00  0.00    +0.000 HD
ENDBRANCH   1  12
BRANCH   2  16
ATOM     16  C   UNL     1       0.949   9.535  19.955  0.00  0.00    +0.000 A 
ATOM     17  C   UNL     1       1.131   8.439  20.786  0.00  0.00    +0.000 A 
ATOM     18  C   UNL     1       1.839   7.337  20.297  0.00  0.00    +0.000 A 
ATOM     19  C   UNL     1       2.366   7.341  18.996  0.00  0.00    +0.000 A 
ATOM     20  N   UNL     1       3.094   6.224  18.539  0.00  0.00    +0.000 N 
ATOM     21  C   UNL     1       4.036   6.486  17.447  0.00  0.00    +0.000 C 
ATOM     22  N   UNL     1       2.204   8.422  18.201  0.00  0.00    +0.000 NA
ATOM     23  C   UNL     1       1.489   9.472  18.678  0.00  0.00    +0.000 A 
BRANCH  20  24
ATOM     24  C   UNL     1       2.781   4.861  18.759  0.00  0.00    +0.000 A 
ATOM     25  C   UNL     1       1.657   4.262  18.161  0.00  0.00    +0.000 A 
ATOM     26  C   UNL     1       1.320   2.927  18.414  0.00  0.00    +0.000 A 
ATOM     27  C   UNL     1       2.107   2.162  19.269  0.00  0.00    +0.000 A 
ATOM     28  C   UNL     1       3.235   2.725  19.856  0.00  0.00    +0.000 A 
ATOM     29  C   UNL     1       3.569   4.059  19.598  0.00  0.00    +0.000 A 
ENDBRANCH  20  24
ENDBRANCH   2  16
TORSDOF 3
ENDMDL
MODEL 2
REMARK VINA RESULT:      -8.0      1.664      2.564
REMARK  Name = 
REMARK  5 active torsions:
REMARK  status: ('A' for Active; 'I' for Inactive)
REMARK    1  A    between atoms: C_1  and  C_2
REMARK    2  A    between atoms: C_8  and  N_9
REMARK    3  A    between atoms: C_10  and  C_12
REMARK    4  A    between atoms: N_16  and  C_17
REMARK    5  A    between atoms: N_16  and  C_18
REMARK                            x       y       z     vdW  Elec       q    Type
REMARK                         _______ _______ _______ _____ _____    ______ ____
ROOT
ATOM      1  N   UNL     1       0.889  10.604  20.932  0.00  0.00    +0.000 N 
ATOM      2  C   UNL     1       0.860  10.182  19.615  0.00  0.00    +0.000 C 
ATOM      3  O   UNL     1       0.359  10.802  18.680  0.00  0.00    +0.000 OA
ATOM      4  H   UNL     1       1.503  10.124  21.575  0.00  0.00    +0.000 HD
ENDROOT
BRANCH   1  12
ATOM      5  C   UNL     1      -3.652  12.335  24.011  0.00  0.00    +0.000 C 
ATOM      6  C   UNL     1      -2.630  13.228  23.415  0.00  0.00    +0.000 A 
ATOM      7  N   UNL     1      -2.704  14.555  23.597  0.00  0.00    +0.000 NA
ATOM      8  N   UNL     1      -1.627  15.026  22.936  0.00  0.00    +0.000 N 
ATOM      9  C   UNL     1      -0.880  14.056  22.343  0.00  0.00    +0.000 A 
ATOM     10  N   UNL     1       0.241  14.247  21.627  0.00  0.00    +0.000 NA
ATOM     11  C   UNL     1       0.778  13.078  21.187  0.00  0.00    +0.000 A 
ATOM     12  C   UNL     1       0.269  11.790  21.405  0.00  0.00    +0.000 A 
ATOM     13  C   UNL     1      -0.921  11.674  22.132  0.00  0.00    +0.000 A 
ATOM     14  C   UNL     1      -1.504  12.853  22.630  0.00  0.00    +0.000 A 
ATOM     15  H   UNL     1      -1.447  16.023  22.924  0.00  0.00    +0.000 HD
ENDBRANCH   1  12
BRANCH   2  16
ATOM     16  C   UNL     1       1.533   8.906  19.292  0.00  0.00    +0.000 A 
ATOM     17  C   UNL     1       2.150   8.636  18.079  0.00  0.00    +0.000 A 
ATOM     18  C   UNL     1       2.817   7.417  17.924  0.00  0.00    +0.000 A 
ATOM     19  C   UNL     1       2.854   6.480  18.967  0.00  0.00    +0.000 A 
ATOM     20  N   UNL     1       3.516   5.250  18.772  0.00  0.00    +0.000 N 
ATOM     21  C   UNL     1       3.078   4.151  19.638  0.00  0.00    +0.000 C 
ATOM     22  N   UNL     1       2.230   6.741  20.137  0.00  0.00    +0.000 NA
ATOM     23  C   UNL     1       1.612   7.939  20.285  0.00  0.00    +0.000 A 
BRANCH  20  24
ATOM     24  C   UNL     1       4.751   5.049  18.112  0.00  0.00    +0.000 A 
ATOM     25  C   UNL     1       4.812   4.478  16.827  0.00  0.00    +0.000 A 
ATOM     26  C   UNL     1       6.035   4.237  16.193  0.00  0.00    +0.000 A 
ATOM     27  C   UNL     1       7.226   4.568  16.830  0.00  0.00    +0.000 A 
ATOM     28  C   UNL     1       7.194   5.153  18.092  0.00  0.00    +0.000 A 
ATOM     29  C   UNL     1       5.968   5.395  18.721  0.00  0.00    +0.000 A 
ENDBRANCH  20  24
ENDBRANCH   2  16
TORSDOF 3
ENDMDL
MODEL 3
REMARK VINA RESULT:      -7.9      2.271      3.474
REMARK  Name = 
REMARK  5 active torsions:
REMARK  status: ('A' for Active; 'I' for Inactive)
REMARK    1  A    between atoms: C_1  and  C_2
REMARK    2  A    between atoms: C_8  and  N_9
REMARK    3  A    between atoms: C_10  and  C_12
REMARK    4  A    between atoms: N_16  and  C_17
REMARK    5  A    between atoms: N_16  and  C_18
REMARK                            x       y       z     vdW  Elec       q    Type
REMARK                         _______ _______ _______ _____ _____    ______ ____
ROOT
ATOM      1  N   UNL     1       0.903  10.015  19.813  0.00  0.00    +0.000 N 
ATOM      2  C   UNL     1       1.169   8.881  20.559  0.00  0.00    +0.000 C 
ATOM      3  O   UNL     1       0.880   8.724  21.742  0.00  0.00    +0.000 OA
ATOM      4  H   UNL     1       0.992   9.960  18.809  0.00  0.00    +0.000 HD
ENDROOT
BRANCH   1  12
ATOM      5  C   UNL     1      -4.180  12.683  20.195  0.00  0.00    +0.000 C 
ATOM      6  C   UNL     1      -2.906  13.183  20.763  0.00  0.00    +0.000 A 
ATOM      7  N   UNL     1      -2.878  14.332  21.455  0.00  0.00    +0.000 NA
ATOM      8  N   UNL     1      -1.585  14.455  21.815  0.00  0.00    +0.000 N 
ATOM      9  C   UNL     1      -0.794  13.436  21.379  0.00  0.00    +0.000 A 
ATOM     10  N   UNL     1       0.525  13.308  21.599  0.00  0.00    +0.000 NA
ATOM     11  C   UNL     1       1.030  12.167  21.059  0.00  0.00    +0.000 A 
ATOM     12  C   UNL     1       0.319  11.198  20.337  0.00  0.00    +0.000 A 
ATOM     13  C   UNL     1      -1.047  11.418  20.120  0.00  0.00    +0.000 A 
ATOM     14  C   UNL     1      -1.622  12.574  20.678  0.00  0.00    +0.000 A 
ATOM     15  H   UNL     1      -1.294  15.255  22.364  0.00  0.00    +0.000 HD
ENDBRANCH   1  12
BRANCH   2  16
ATOM     16  C   UNL     1       1.808   7.743  19.864  0.00  0.00    +0.000 A 
ATOM     17  C   UNL     1       2.349   7.814  18.589  0.00  0.00    +0.000 A 
ATOM     18  C   UNL     1       2.992   6.686  18.071  0.00  0.00    +0.000 A 
ATOM     19  C   UNL     1       3.080   5.502  18.818  0.00  0.00    +0.000 A 
ATOM     20  N   UNL     1       3.716   4.374  18.259  0.00  0.00    +0.000 N 
ATOM     21  C   UNL     1       3.317   3.080  18.821  0.00  0.00    +0.000 C 
ATOM     22  N   UNL     1       2.529   5.434  20.051  0.00  0.00    +0.000 NA
ATOM     23  C   UNL     1       1.935   6.544  20.553  0.00  0.00    +0.000 A 
BRANCH  20  24
ATOM     24  C   UNL     1       4.908   4.365  17.496  0.00  0.00    +0.000 A 
ATOM     25  C   UNL     1       6.156   4.639  18.083  0.00  0.00    +0.000 A 
ATOM     26  C   UNL     1       7.329   4.677  17.320  0.00  0.00    +0.000 A 
ATOM     27  C   UNL     1       7.276   4.434  15.952  0.00  0.00    +0.000 A 
ATOM     28  C   UNL     1       6.057   4.139  15.351  0.00  0.00    +0.000 A 
ATOM     29  C   UNL     1       4.888   4.101  16.118  0.00  0.00    +0.000 A 
ENDBRANCH  20  24
ENDBRANCH   2  16
TORSDOF 3
ENDMDL
MODEL 4
REMARK VINA RESULT:      -7.9      2.826      4.285
REMARK  Name = 
REMARK  5 active torsions:
REMARK  status: ('A' for Active; 'I' for Inactive)
REMARK    1  A    between atoms: C_1  and  C_2
REMARK    2  A    between atoms: C_8  and  N_9
REMARK    3  A    between atoms: C_10  and  C_12
REMARK    4  A    between atoms: N_16  and  C_17
REMARK    5  A    between atoms: N_16  and  C_18
REMARK                            x       y       z     vdW  Elec       q    Type
REMARK                         _______ _______ _______ _____ _____    ______ ____
ROOT
ATOM      1  N   UNL     1       0.629  10.515  18.892  0.00  0.00    +0.000 N 
ATOM      2  C   UNL     1       1.093   9.635  19.853  0.00  0.00    +0.000 C 
ATOM      3  O   UNL     1       0.982   9.783  21.067  0.00  0.00    +0.000 OA
ATOM      4  H   UNL     1       0.585  10.199  17.934  0.00  0.00    +0.000 HD
ENDROOT
BRANCH   1  12
ATOM      5  C   UNL     1       1.682  16.162  18.580  0.00  0.00    +0.000 C 
ATOM      6  C   UNL     1       0.426  15.551  19.075  0.00  0.00    +0.000 A 
ATOM      7  N   UNL     1      -0.593  16.328  19.472  0.00  0.00    +0.000 NA
ATOM      8  N   UNL     1      -1.543  15.444  19.837  0.00  0.00    +0.000 N 
ATOM      9  C   UNL     1      -1.169  14.144  19.690  0.00  0.00    +0.000 A 
ATOM     10  N   UNL     1      -1.919  13.067  19.974  0.00  0.00    +0.000 NA
ATOM     11  C   UNL     1      -1.277  11.901  19.694  0.00  0.00    +0.000 A 
ATOM     12  C   UNL     1       0.020  11.764  19.180  0.00  0.00    +0.000 A 
ATOM     13  C   UNL     1       0.753  12.933  18.940  0.00  0.00    +0.000 A 
ATOM     14  C   UNL     1       0.124  14.166  19.193  0.00  0.00    +0.000 A 
ATOM     15  H   UNL     1      -2.435  15.783  20.177  0.00  0.00    +0.000 HD
ENDBRANCH   1  12
BRANCH   2  16
ATOM     16  C   UNL     1       1.729   8.385  19.382  0.00  0.00    +0.000 A 
ATOM     17  C   UNL     1       2.287   8.223  18.123  0.00  0.00    +0.000 A 
ATOM     18  C   UNL     1       2.925   7.015  17.824  0.00  0.00    +0.000 A 
ATOM     19  C   UNL     1       2.991   5.983  18.772  0.00  0.00    +0.000 A 
ATOM     20  N   UNL     1       3.622   4.768  18.434  0.00  0.00    +0.000 N 
ATOM     21  C   UNL     1       3.204   3.599  19.212  0.00  0.00    +0.000 C 
ATOM     22  N   UNL     1       2.424   6.142  19.989  0.00  0.00    +0.000 NA
ATOM     23  C   UNL     1       1.835   7.329  20.276  0.00  0.00    +0.000 A 
BRANCH  20  24
ATOM     24  C   UNL     1       4.824   4.614  17.701  0.00  0.00    +0.000 A 
ATOM     25  C   UNL     1       6.076   4.888  18.281  0.00  0.00    +0.000 A 
ATOM     26  C   UNL     1       7.260   4.780  17.544  0.00  0.00    +0.000 A 
ATOM     27  C   UNL     1       7.215   4.389  16.210  0.00  0.00    +0.000 A 
ATOM     28  C   UNL     1       5.992   4.091  15.619  0.00  0.00    +0.000 A 
ATOM     29  C   UNL     1       4.811   4.199  16.361  0.00  0.00    +0.000 A 
ENDBRANCH  20  24
ENDBRANCH   2  16
TORSDOF 3
ENDMDL
MODEL 5
REMARK VINA RESULT:      -7.8      7.723     11.810
REMARK  Name = 
REMARK  5 active torsions:
REMARK  status: ('A' for Active; 'I' for Inactive)
REMARK    1  A    between atoms: C_1  and  C_2
REMARK    2  A    between atoms: C_8  and  N_9
REMARK    3  A    between atoms: C_10  and  C_12
REMARK    4  A    between atoms: N_16  and  C_17
REMARK    5  A    between atoms: N_16  and  C_18
REMARK                            x       y       z     vdW  Elec       q    Type
REMARK                         _______ _______ _______ _____ _____    ______ ____
ROOT
ATOM      1  N   UNL     1       7.189   8.036  17.325  0.00  0.00    +0.000 N 
ATOM      2  C   UNL     1       8.147   8.317  18.283  0.00  0.00    +0.000 C 
ATOM      3  O   UNL     1       8.658   7.496  19.040  0.00  0.00    +0.000 OA
ATOM      4  H   UNL     1       6.993   8.736  16.624  0.00  0.00    +0.000 HD
ENDROOT
BRANCH   1  12
ATOM      5  C   UNL     1       2.221   5.250  18.135  0.00  0.00    +0.000 C 
ATOM      6  C   UNL     1       3.440   4.667  17.528  0.00  0.00    +0.000 A 
ATOM      7  N   UNL     1       3.438   3.399  17.089  0.00  0.00    +0.000 NA
ATOM      8  N   UNL     1       4.684   3.228  16.604  0.00  0.00    +0.000 N 
ATOM      9  C   UNL     1       5.474   4.331  16.720  0.00  0.00    +0.000 A 
ATOM     10  N   UNL     1       6.751   4.435  16.317  0.00  0.00    +0.000 NA
ATOM     11  C   UNL     1       7.264   5.674  16.542  0.00  0.00    +0.000 A 
ATOM     12  C   UNL     1       6.601   6.759  17.133  0.00  0.00    +0.000 A 
ATOM     13  C   UNL     1       5.281   6.563  17.558  0.00  0.00    +0.000 A 
ATOM     14  C   UNL     1       4.697   5.304  17.326  0.00  0.00    +0.000 A 
ATOM     15  H   UNL     1       4.943   2.337  16.200  0.00  0.00    +0.000 HD
ENDBRANCH   1  12
BRANCH   2  16
ATOM     16  C   UNL     1       8.636   9.709  18.370  0.00  0.00    +0.000 A 
ATOM     17  C   UNL     1       8.227  10.732  17.527  0.00  0.00    +0.000 A 
ATOM     18  C   UNL     1       8.708  12.024  17.759  0.00  0.00    +0.000 A 
ATOM     19  C   UNL     1       9.596  12.282  18.815  0.00  0.00    +0.000 A 
ATOM     20  N   UNL     1      10.081  13.591  19.010  0.00  0.00    +0.000 N 
ATOM     21  C   UNL     1      11.353  13.694  19.731  0.00  0.00    +0.000 C 
ATOM     22  N   UNL     1      10.008  11.275  19.616  0.00  0.00    +0.000 NA
ATOM     23  C   UNL     1       9.510  10.032  19.399  0.00  0.00    +0.000 A 
BRANCH  20  24
ATOM     24  C   UNL     1       9.340  14.793  18.908  0.00  0.00    +0.000 A 
ATOM     25  C   UNL     1       8.166  14.995  19.657  0.00  0.00    +0.000 A 
ATOM     26  C   UNL     1       7.407  16.163  19.523  0.00  0.00    +0.000 A 
ATOM     27  C   UNL     1       7.813  17.158  18.639  0.00  0.00    +0.000 A 
ATOM     28  C   UNL     1       8.981  16.992  17.903  0.00  0.00    +0.000 A 
ATOM     29  C   UNL     1       9.737  15.823  18.042  0.00  0.00    +0.000 A 
ENDBRANCH  20  24
ENDBRANCH   2  16
TORSDOF 3
ENDMDL
MODEL 6
REMARK VINA RESULT:      -7.8      2.351      3.311
REMARK  Name = 
REMARK  5 active torsions:
REMARK  status: ('A' for Active; 'I' for Inactive)
REMARK    1  A    between atoms: C_1  and  C_2
REMARK    2  A    between atoms: C_8  and  N_9
REMARK    3  A    between atoms: C_10  and  C_12
REMARK    4  A    between atoms: N_16  and  C_17
REMARK    5  A    between atoms: N_16  and  C_18
REMARK                            x       y       z     vdW  Elec       q    Type
REMARK                         _______ _______ _______ _____ _____    ______ ____
ROOT
ATOM      1  N   UNL     1       0.266  10.582  19.162  0.00  0.00    +0.000 N 
ATOM      2  C   UNL     1       0.959   9.822  20.087  0.00  0.00    +0.000 C 
ATOM      3  O   UNL     1       1.062  10.077  21.284  0.00  0.00    +0.000 OA
ATOM      4  H   UNL     1       0.071  10.176  18.258  0.00  0.00    +0.000 HD
ENDROOT
BRANCH   1  12
ATOM      5  C   UNL     1      -4.715  12.674  21.138  0.00  0.00    +0.000 C 
ATOM      6  C   UNL     1      -3.539  13.487  20.751  0.00  0.00    +0.000 A 
ATOM      7  N   UNL     1      -3.569  14.822  20.875  0.00  0.00    +0.000 NA
ATOM      8  N   UNL     1      -2.350  15.209  20.448  0.00  0.00    +0.000 N 
ATOM      9  C   UNL     1      -1.552  14.178  20.058  0.00  0.00    +0.000 A 
ATOM     10  N   UNL     1      -0.295  14.279  19.596  0.00  0.00    +0.000 NA
ATOM     11  C   UNL     1       0.253  13.067  19.316  0.00  0.00    +0.000 A 
ATOM     12  C   UNL     1      -0.368  11.817  19.457  0.00  0.00    +0.000 A 
ATOM     13  C   UNL     1      -1.691  11.794  19.912  0.00  0.00    +0.000 A 
ATOM     14  C   UNL     1      -2.295  13.022  20.238  0.00  0.00    +0.000 A 
ATOM     15  H   UNL     1      -2.111  16.193  20.447  0.00  0.00    +0.000 HD
ENDBRANCH   1  12
BRANCH   2  16
ATOM     16  C   UNL     1       1.586   8.571  19.608  0.00  0.00    +0.000 A 
ATOM     17  C   UNL     1       2.201   8.432  18.372  0.00  0.00    +0.000 A 
ATOM     18  C   UNL     1       2.823   7.217  18.067  0.00  0.00    +0.000 A 
ATOM     19  C   UNL     1       2.817   6.156  18.985  0.00  0.00    +0.000 A 
ATOM     20  N   UNL     1       3.434   4.936  18.639  0.00  0.00    +0.000 N 
ATOM     21  C   UNL     1       2.949   3.755  19.358  0.00  0.00    +0.000 C 
ATOM     22  N   UNL     1       2.196   6.293  20.177  0.00  0.00    +0.000 NA
ATOM     23  C   UNL     1       1.622   7.485  20.472  0.00  0.00    +0.000 A 
BRANCH  20  24
ATOM     24  C   UNL     1       4.665   4.773  17.960  0.00  0.00    +0.000 A 
ATOM     25  C   UNL     1       5.891   5.074  18.583  0.00  0.00    +0.000 A 
ATOM     26  C   UNL     1       7.105   4.956  17.898  0.00  0.00    +0.000 A 
ATOM     27  C   UNL     1       7.118   4.528  16.575  0.00  0.00    +0.000 A 
ATOM     28  C   UNL     1       5.923   4.203  15.943  0.00  0.00    +0.000 A 
ATOM     29  C   UNL     1       4.711   4.321  16.633  0.00  0.00    +0.000 A 
ENDBRANCH  20  24
ENDBRANCH   2  16
TORSDOF 3
ENDMDL
MODEL 7
REMARK VINA RESULT:      -7.7      1.040      1.362
REMARK  Name = 
REMARK  5 active torsions:
REMARK  status: ('A' for Active; 'I' for Inactive)
REMARK    1  A    between atoms: C_1  and  C_2
REMARK    2  A    between atoms: C_8  and  N_9
REMARK    3  A    between atoms: C_10  and  C_12
REMARK    4  A    between atoms: N_16  and  C_17
REMARK    5  A    between atoms: N_16  and  C_18
REMARK                            x       y       z     vdW  Elec       q    Type
REMARK                         _______ _______ _______ _____ _____    ______ ____
ROOT
ATOM      1  N   UNL     1      -0.575  11.314  22.286  0.00  0.00    +0.000 N 
ATOM      2  C   UNL     1      -0.451  10.932  20.963  0.00  0.00    +0.000 C 
ATOM      3  O   UNL     1      -0.910  11.541  20.000  0.00  0.00    +0.000 OA
ATOM      4  H   UNL     1       0.012  10.861  22.972  0.00  0.00    +0.000 HD
ENDROOT
BRANCH   1  12
ATOM      5  C   UNL     1      -5.888  12.752  23.961  0.00  0.00    +0.000 C 
ATOM      6  C   UNL     1      -4.731  13.676  23.895  0.00  0.00    +0.000 A 
ATOM      7  N   UNL     1      -4.868  14.957  24.268  0.00  0.00    +0.000 NA
ATOM      8  N   UNL     1      -3.636  15.474  24.086  0.00  0.00    +0.000 N 
ATOM      9  C   UNL     1      -2.729  14.576  23.612  0.00  0.00    +0.000 A 
ATOM     10  N   UNL     1      -1.435  14.823  23.346  0.00  0.00    +0.000 NA
ATOM     11  C   UNL     1      -0.776  13.715  22.912  0.00  0.00    +0.000 A 
ATOM     12  C   UNL     1      -1.322  12.437  22.728  0.00  0.00    +0.000 A 
ATOM     13  C   UNL     1      -2.686  12.266  22.994  0.00  0.00    +0.000 A 
ATOM     14  C   UNL     1      -3.407  13.377  23.469  0.00  0.00    +0.000 A 
ATOM     15  H   UNL     1      -3.466  16.448  24.305  0.00  0.00    +0.000 HD
ENDBRANCH   1  12
BRANCH   2  16
ATOM     16  C   UNL     1       0.342   9.718  20.675  0.00  0.00    +0.000 A 
ATOM     17  C   UNL     1       0.384   8.602  21.499  0.00  0.00    +0.000 A 
ATOM     18  C   UNL     1       1.115   7.486  21.079  0.00  0.00    +0.000 A 
ATOM     19  C   UNL     1       1.802   7.496  19.855  0.00  0.00    +0.000 A 
ATOM     20  N   UNL     1       2.548   6.364  19.469  0.00  0.00    +0.000 N 
ATOM     21  C   UNL     1       3.629   6.615  18.511  0.00  0.00    +0.000 C 
ATOM     22  N   UNL     1       1.775   8.596  19.070  0.00  0.00    +0.000 NA
ATOM     23  C   UNL     1       1.038   9.660  19.476  0.00  0.00    +0.000 A 
BRANCH  20  24
ATOM     24  C   UNL     1       2.168   5.009  19.617  0.00  0.00    +0.000 A 
ATOM     25  C   UNL     1       2.292   4.343  20.850  0.00  0.00    +0.000 A 
ATOM     26  C   UNL     1       1.960   2.990  20.986  0.00  0.00    +0.000 A 
ATOM     27  C   UNL     1       1.490   2.277  19.888  0.00  0.00    +0.000 A 
ATOM     28  C   UNL     1       1.338   2.917  18.663  0.00  0.00    +0.000 A 
ATOM     29  C   UNL     1       1.670   4.270  18.533  0.00  0.00    +0.000 A 
ENDBRANCH  20  24
ENDBRANCH   2  16
TORSDOF 3
ENDMDL
MODEL 8
REMARK VINA RESULT:      -7.7      2.764      4.097
REMARK  Name = 
REMARK  5 active torsions:
REMARK  status: ('A' for Active; 'I' for Inactive)
REMARK    1  A    between atoms: C_1  and  C_2
REMARK    2  A    between atoms: C_8  and  N_9
REMARK    3  A    between atoms: C_10  and  C_12
REMARK    4  A    between atoms: N_16  and  C_17
REMARK    5  A    between atoms: N_16  and  C_18
REMARK                            x       y       z     vdW  Elec       q    Type
REMARK                         _______ _______ _______ _____ _____    ______ ____
ROOT
ATOM      1  N   UNL     1       1.200  12.487  19.662  0.00  0.00    +0.000 N 
ATOM      2  C   UNL     1       0.526  11.438  19.062  0.00  0.00    +0.000 C 
ATOM      3  O   UNL     1      -0.519  11.536  18.424  0.00  0.00    +0.000 OA
ATOM      4  H   UNL     1       2.146  12.329  19.977  0.00  0.00    +0.000 HD
ENDROOT
BRANCH   1  12
ATOM      5  C   UNL     1       2.066  17.559  17.089  0.00  0.00    +0.000 C 
ATOM      6  C   UNL     1       1.071  17.298  18.155  0.00  0.00    +0.000 A 
ATOM      7  N   UNL     1       0.260  18.280  18.578  0.00  0.00    +0.000 NA
ATOM      8  N   UNL     1      -0.496  17.684  19.522  0.00  0.00    +0.000 N 
ATOM      9  C   UNL     1      -0.197  16.370  19.715  0.00  0.00    +0.000 A 
ATOM     10  N   UNL     1      -0.795  15.542  20.587  0.00  0.00    +0.000 NA
ATOM     11  C   UNL     1      -0.295  14.279  20.528  0.00  0.00    +0.000 A 
ATOM     12  C   UNL     1       0.733  13.826  19.688  0.00  0.00    +0.000 A 
ATOM     13  C   UNL     1       1.331  14.756  18.830  0.00  0.00    +0.000 A 
ATOM     14  C   UNL     1       0.832  16.072  18.837  0.00  0.00    +0.000 A 
ATOM     15  H   UNL     1      -1.207  18.220  20.003  0.00  0.00    +0.000 HD
ENDBRANCH   1  12
BRANCH   2  16
ATOM     16  C   UNL     1       1.138  10.095  19.149  0.00  0.00    +0.000 A 
ATOM     17  C   UNL     1       1.064   9.277  20.268  0.00  0.00    +0.000 A 
ATOM     18  C   UNL     1       1.622   7.997  20.199  0.00  0.00    +0.000 A 
ATOM     19  C   UNL     1       2.253   7.550  19.029  0.00  0.00    +0.000 A 
ATOM     20  N   UNL     1       2.826   6.262  18.998  0.00  0.00    +0.000 N 
ATOM     21  C   UNL     1       3.890   6.065  18.010  0.00  0.00    +0.000 C 
ATOM     22  N   UNL     1       2.342   8.362  17.952  0.00  0.00    +0.000 NA
ATOM     23  C   UNL     1       1.770   9.589  18.022  0.00  0.00    +0.000 A 
BRANCH  20  24
ATOM     24  C   UNL     1       2.275   5.077  19.543  0.00  0.00    +0.000 A 
ATOM     25  C   UNL     1       2.450   4.742  20.898  0.00  0.00    +0.000 A 
ATOM     26  C   UNL     1       1.945   3.549  21.426  0.00  0.00    +0.000 A 
ATOM     27  C   UNL     1       1.248   2.667  20.608  0.00  0.00    +0.000 A 
ATOM     28  C   UNL     1       1.041   2.984  19.269  0.00  0.00    +0.000 A 
ATOM     29  C   UNL     1       1.547   4.180  18.747  0.00  0.00    +0.000 A 
ENDBRANCH  20  24
ENDBRANCH   2  16
TORSDOF 3
ENDMDL
MODEL 9
REMARK VINA RESULT:      -7.7      3.296      4.743
REMARK  Name = 
REMARK  5 active torsions:
REMARK  status: ('A' for Active; 'I' for Inactive)
REMARK    1  A    between atoms: C_1  and  C_2
REMARK    2  A    between atoms: C_8  and  N_9
REMARK    3  A    between atoms: C_10  and  C_12
REMARK    4  A    between atoms: N_16  and  C_17
REMARK    5  A    between atoms: N_16  and  C_18
REMARK                            x       y       z     vdW  Elec       q    Type
REMARK                         _______ _______ _______ _____ _____    ______ ____
ROOT
ATOM      1  N   UNL     1       1.406  11.162  18.501  0.00  0.00    +0.000 N 
ATOM      2  C   UNL     1       1.095  10.093  19.323  0.00  0.00    +0.000 C 
ATOM      3  O   UNL     1       0.296  10.122  20.255  0.00  0.00    +0.000 OA
ATOM      4  H   UNL     1       1.910  10.977  17.646  0.00  0.00    +0.000 HD
ENDROOT
BRANCH   1  12
ATOM      5  C   UNL     1       3.095  16.657  18.292  0.00  0.00    +0.000 C 
ATOM      6  C   UNL     1       1.718  16.195  18.585  0.00  0.00    +0.000 A 
ATOM      7  N   UNL     1       0.738  17.085  18.802  0.00  0.00    +0.000 NA
ATOM      8  N   UNL     1      -0.347  16.316  19.019  0.00  0.00    +0.000 N 
ATOM      9  C   UNL     1      -0.096  14.980  18.951  0.00  0.00    +0.000 A 
ATOM     10  N   UNL     1      -0.993  13.996  19.123  0.00  0.00    +0.000 NA
ATOM     11  C   UNL     1      -0.444  12.762  18.966  0.00  0.00    +0.000 A 
ATOM     12  C   UNL     1       0.897  12.476  18.670  0.00  0.00    +0.000 A 
ATOM     13  C   UNL     1       1.780  13.554  18.539  0.00  0.00    +0.000 A 
ATOM     14  C   UNL     1       1.255  14.853  18.670  0.00  0.00    +0.000 A 
ATOM     15  H   UNL     1      -1.240  16.755  19.205  0.00  0.00    +0.000 HD
ENDBRANCH   1  12
BRANCH   2  16
ATOM     16  C   UNL     1       1.735   8.795  19.024  0.00  0.00    +0.000 A 
ATOM     17  C   UNL     1       2.345   8.487  17.816  0.00  0.00    +0.000 A 
ATOM     18  C   UNL     1       2.980   7.249  17.684  0.00  0.00    +0.000 A 
ATOM     19  C   UNL     1       2.994   6.330  18.744  0.00  0.00    +0.000 A 
ATOM     20  N   UNL     1       3.624   5.081  18.572  0.00  0.00    +0.000 N 
ATOM     21  C   UNL     1       3.159   4.009  19.457  0.00  0.00    +0.000 C 
ATOM     22  N   UNL     1       2.377   6.629  19.909  0.00  0.00    +0.000 NA
ATOM     23  C   UNL     1       1.790   7.845  20.035  0.00  0.00    +0.000 A 
BRANCH  20  24
ATOM     24  C   UNL     1       4.854   4.836  17.915  0.00  0.00    +0.000 A 
ATOM     25  C   UNL     1       6.085   5.133  18.528  0.00  0.00    +0.000 A 
ATOM     26  C   UNL     1       7.299   4.935  17.862  0.00  0.00    +0.000 A 
ATOM     27  C   UNL     1       7.306   4.428  16.566  0.00  0.00    +0.000 A 
ATOM     28  C   UNL     1       6.104   4.106  15.945  0.00  0.00    +0.000 A 
ATOM     29  C   UNL     1       4.893   4.304  16.617  0.00  0.00    +0.000 A 
ENDBRANCH  20  24
ENDBRANCH   2  16
TORSDOF 3
ENDMDL
