MODEL 1
REMARK VINA RESULT:      -8.7      0.000      0.000
REMARK  Name = 
REMARK  3 active torsions:
REMARK  status: ('A' for Active; 'I' for Inactive)
REMARK    1  A    between atoms: C_6  and  S_7
REMARK    2  A    between atoms: S_7  and  N_10
REMARK    3  A    between atoms: N_10  and  C_11
REMARK                            x       y       z     vdW  Elec       q    Type
REMARK                         _______ _______ _______ _____ _____    ______ ____
ROOT
ATOM      1  S   UNL     1       3.244   4.099  19.268  0.00  0.00    +0.000 S 
ATOM      2  O   UNL     1       2.024   4.025  18.495  0.00  0.00    +0.000 OA
ATOM      3  O   UNL     1       3.653   3.016  20.136  0.00  0.00    +0.000 OA
ENDROOT
BRANCH   1   9
ATOM      4  O   UNL     1       7.526   4.800  13.053  0.00  0.00    +0.000 OA
ATOM      5  C   UNL     1       6.983   4.735  14.143  0.00  0.00    +0.000 C 
ATOM      6  C   UNL     1       5.506   4.420  14.413  0.00  0.00    +0.000 C 
ATOM      7  C   UNL     1       5.441   4.478  15.910  0.00  0.00    +0.000 A 
ATOM      8  C   UNL     1       4.369   4.261  16.756  0.00  0.00    +0.000 A 
ATOM      9  C   UNL     1       4.592   4.400  18.133  0.00  0.00    +0.000 A 
ATOM     10  C   UNL     1       5.874   4.709  18.641  0.00  0.00    +0.000 A 
ATOM     11  C   UNL     1       6.949   4.912  17.769  0.00  0.00    +0.000 A 
ATOM     12  C   UNL     1       6.701   4.793  16.416  0.00  0.00    +0.000 A 
ATOM     13  N   UNL     1       7.599   4.940  15.373  0.00  0.00    +0.000 N 
ATOM     14  H   UNL     1       8.581   5.158  15.459  0.00  0.00    +0.000 HD
ENDBRANCH   1   9
BRANCH   1  15
ATOM     15  N   UNL     1       3.211   5.484  20.237  0.00  0.00    +0.000 N 
ATOM     16  H   UNL     1       4.041   5.578  20.817  0.00  0.00    +0.000 HD
BRANCH  15  17
ATOM     17  C   UNL     1       2.621   6.670  19.723  0.00  0.00    +0.000 A 
ATOM     18  C   UNL     1       2.954   7.105  18.439  0.00  0.00    +0.000 A 
ATOM     19  C   UNL     1       2.416   8.296  17.947  0.00  0.00    +0.000 A 
ATOM     20  C   UNL     1       1.579   9.064  18.752  0.00  0.00    +0.000 A 
ATOM     21  C   UNL     1       1.242   8.619  20.035  0.00  0.00    +0.000 A 
ATOM     22  C   UNL     1       1.759   7.420  20.520  0.00  0.00    +0.000 A 
ATOM     23  O   UNL     1       0.427   9.319  20.886  0.00  0.00    +0.000 OA
ATOM     24  C   UNL     1      -0.310  10.329  20.189  0.00  0.00    +0.000 C 
ATOM     25  C   UNL     1       0.591  11.103  19.241  0.00  0.00    +0.000 C 
ATOM     26  O   UNL     1       1.120  10.243  18.225  0.00  0.00    +0.000 OA
ENDBRANCH  15  17
ENDBRANCH   1  15
TORSDOF 3
ENDMDL
MODEL 2
REMARK VINA RESULT:      -8.6      1.364      2.100
REMARK  Name = 
REMARK  3 active torsions:
REMARK  status: ('A' for Active; 'I' for Inactive)
REMARK    1  A    between atoms: C_6  and  S_7
REMARK    2  A    between atoms: S_7  and  N_10
REMARK    3  A    between atoms: N_10  and  C_11
REMARK                            x       y       z     vdW  Elec       q    Type
REMARK                         _______ _______ _______ _____ _____    ______ ____
ROOT
ATOM      1  S   UNL     1       3.666   2.600  19.006  0.00  0.00    +0.000 S 
ATOM      2  O   UNL     1       3.583   1.271  18.439  0.00  0.00    +0.000 OA
ATOM      3  O   UNL     1       4.019   2.806  20.393  0.00  0.00    +0.000 OA
ENDROOT
BRANCH   1   9
ATOM      4  O   UNL     1       7.719   5.494  13.291  0.00  0.00    +0.000 OA
ATOM      5  C   UNL     1       7.165   5.133  14.316  0.00  0.00    +0.000 C 
ATOM      6  C   UNL     1       5.981   4.164  14.424  0.00  0.00    +0.000 C 
ATOM      7  C   UNL     1       5.753   4.110  15.905  0.00  0.00    +0.000 A 
ATOM      8  C   UNL     1       4.825   3.385  16.629  0.00  0.00    +0.000 A 
ATOM      9  C   UNL     1       4.826   3.541  18.023  0.00  0.00    +0.000 A 
ATOM     10  C   UNL     1       5.766   4.376  18.667  0.00  0.00    +0.000 A 
ATOM     11  C   UNL     1       6.705   5.092  17.917  0.00  0.00    +0.000 A 
ATOM     12  C   UNL     1       6.672   4.941  16.545  0.00  0.00    +0.000 A 
ATOM     13  N   UNL     1       7.497   5.535  15.606  0.00  0.00    +0.000 N 
ATOM     14  H   UNL     1       8.255   6.173  15.797  0.00  0.00    +0.000 HD
ENDBRANCH   1   9
BRANCH   1  15
ATOM     15  N   UNL     1       2.194   3.400  18.775  0.00  0.00    +0.000 N 
ATOM     16  H   UNL     1       1.390   2.801  18.950  0.00  0.00    +0.000 HD
BRANCH  15  17
ATOM     17  C   UNL     1       2.093   4.771  19.129  0.00  0.00    +0.000 A 
ATOM     18  C   UNL     1       1.801   5.124  20.447  0.00  0.00    +0.000 A 
ATOM     19  C   UNL     1       1.652   6.469  20.792  0.00  0.00    +0.000 A 
ATOM     20  C   UNL     1       1.758   7.451  19.811  0.00  0.00    +0.000 A 
ATOM     21  C   UNL     1       2.059   7.093  18.492  0.00  0.00    +0.000 A 
ATOM     22  C   UNL     1       2.232   5.755  18.150  0.00  0.00    +0.000 A 
ATOM     23  O   UNL     1       2.178   8.002  17.473  0.00  0.00    +0.000 OA
ATOM     24  C   UNL     1       2.327   9.334  17.976  0.00  0.00    +0.000 C 
ATOM     25  C   UNL     1       1.327   9.610  19.087  0.00  0.00    +0.000 C 
ATOM     26  O   UNL     1       1.557   8.748  20.207  0.00  0.00    +0.000 OA
ENDBRANCH  15  17
ENDBRANCH   1  15
TORSDOF 3
ENDMDL
MODEL 3
REMARK VINA RESULT:      -8.5      1.183      1.875
REMARK  Name = 
REMARK  3 active torsions:
REMARK  status: ('A' for Active; 'I' for Inactive)
REMARK    1  A    between atoms: C_6  and  S_7
REMARK    2  A    between atoms: S_7  and  N_10
REMARK    3  A    between atoms: N_10  and  C_11
REMARK                            x       y       z     vdW  Elec       q    Type
REMARK                         _______ _______ _______ _____ _____    ______ ____
ROOT
ATOM      1  S   UNL     1       4.374   4.130  19.008  0.00  0.00    +0.000 S 
ATOM      2  O   UNL     1       4.357   2.688  19.115  0.00  0.00    +0.000 OA
ATOM      3  O   UNL     1       4.827   4.961  20.102  0.00  0.00    +0.000 OA
ENDROOT
BRANCH   1   9
ATOM      4  O   UNL     1       7.366   4.485  12.053  0.00  0.00    +0.000 OA
ATOM      5  C   UNL     1       7.004   4.552  13.216  0.00  0.00    +0.000 C 
ATOM      6  C   UNL     1       5.830   3.800  13.853  0.00  0.00    +0.000 C 
ATOM      7  C   UNL     1       5.885   4.278  15.274  0.00  0.00    +0.000 A 
ATOM      8  C   UNL     1       5.087   3.938  16.351  0.00  0.00    +0.000 A 
ATOM      9  C   UNL     1       5.358   4.560  17.578  0.00  0.00    +0.000 A 
ATOM     10  C   UNL     1       6.431   5.468  17.721  0.00  0.00    +0.000 A 
ATOM     11  C   UNL     1       7.235   5.788  16.621  0.00  0.00    +0.000 A 
ATOM     12  C   UNL     1       6.937   5.182  15.417  0.00  0.00    +0.000 A 
ATOM     13  N   UNL     1       7.588   5.335  14.206  0.00  0.00    +0.000 N 
ATOM     14  H   UNL     1       8.391   5.922  14.031  0.00  0.00    +0.000 HD
ENDBRANCH   1   9
BRANCH   1  15
ATOM     15  N   UNL     1       2.824   4.681  18.616  0.00  0.00    +0.000 N 
ATOM     16  H   UNL     1       2.122   3.946  18.664  0.00  0.00    +0.000 HD
BRANCH  15  17
ATOM     17  C   UNL     1       2.442   5.993  19.001  0.00  0.00    +0.000 A 
ATOM     18  C   UNL     1       1.936   6.216  20.283  0.00  0.00    +0.000 A 
ATOM     19  C   UNL     1       1.512   7.495  20.652  0.00  0.00    +0.000 A 
ATOM     20  C   UNL     1       1.561   8.535  19.727  0.00  0.00    +0.000 A 
ATOM     21  C   UNL     1       2.077   8.308  18.446  0.00  0.00    +0.000 A 
ATOM     22  C   UNL     1       2.521   7.039  18.083  0.00  0.00    +0.000 A 
ATOM     23  O   UNL     1       2.156   9.279  17.483  0.00  0.00    +0.000 OA
ATOM     24  C   UNL     1       2.007  10.587  18.047  0.00  0.00    +0.000 C 
ATOM     25  C   UNL     1       0.847  10.626  19.029  0.00  0.00    +0.000 C 
ATOM     26  O   UNL     1       1.089   9.753  20.139  0.00  0.00    +0.000 OA
ENDBRANCH  15  17
ENDBRANCH   1  15
TORSDOF 3
ENDMDL
MODEL 4
REMARK VINA RESULT:      -8.4      1.540      2.173
REMARK  Name = 
REMARK  3 active torsions:
REMARK  status: ('A' for Active; 'I' for Inactive)
REMARK    1  A    between atoms: C_6  and  S_7
REMARK    2  A    between atoms: S_7  and  N_10
REMARK    3  A    between atoms: N_10  and  C_11
REMARK                            x       y       z     vdW  Elec       q    Type
REMARK                         _______ _______ _______ _____ _____    ______ ____
ROOT
ATOM      1  S   UNL     1       1.874   4.562  20.666  0.00  0.00    +0.000 S 
ATOM      2  O   UNL     1       0.531   4.593  20.132  0.00  0.00    +0.000 OA
ATOM      3  O   UNL     1       2.243   3.648  21.725  0.00  0.00    +0.000 OA
ENDROOT
BRANCH   1   9
ATOM      4  O   UNL     1       7.903   4.468  16.071  0.00  0.00    +0.000 OA
ATOM      5  C   UNL     1       6.851   4.388  16.684  0.00  0.00    +0.000 C 
ATOM      6  C   UNL     1       6.571   4.921  18.095  0.00  0.00    +0.000 C 
ATOM      7  C   UNL     1       5.136   4.535  18.297  0.00  0.00    +0.000 A 
ATOM      8  C   UNL     1       4.306   4.761  19.379  0.00  0.00    +0.000 A 
ATOM      9  C   UNL     1       2.996   4.268  19.304  0.00  0.00    +0.000 A 
ATOM     10  C   UNL     1       2.527   3.601  18.149  0.00  0.00    +0.000 A 
ATOM     11  C   UNL     1       3.380   3.394  17.060  0.00  0.00    +0.000 A 
ATOM     12  C   UNL     1       4.673   3.868  17.164  0.00  0.00    +0.000 A 
ATOM     13  N   UNL     1       5.684   3.788  16.223  0.00  0.00    +0.000 N 
ATOM     14  H   UNL     1       5.616   3.365  15.309  0.00  0.00    +0.000 HD
ENDBRANCH   1   9
BRANCH   1  15
ATOM     15  N   UNL     1       2.295   6.105  21.213  0.00  0.00    +0.000 N 
ATOM     16  H   UNL     1       3.234   6.141  21.603  0.00  0.00    +0.000 HD
BRANCH  15  17
ATOM     17  C   UNL     1       1.827   7.240  20.500  0.00  0.00    +0.000 A 
ATOM     18  C   UNL     1       2.262   7.461  19.192  0.00  0.00    +0.000 A 
ATOM     19  C   UNL     1       1.845   8.602  18.503  0.00  0.00    +0.000 A 
ATOM     20  C   UNL     1       1.026   9.533  19.135  0.00  0.00    +0.000 A 
ATOM     21  C   UNL     1       0.586   9.303  20.444  0.00  0.00    +0.000 A 
ATOM     22  C   UNL     1       0.982   8.155  21.126  0.00  0.00    +0.000 A 
ATOM     23  O   UNL     1      -0.219  10.173  21.132  0.00  0.00    +0.000 OA
ATOM     24  C   UNL     1      -0.838  11.118  20.253  0.00  0.00    +0.000 C 
ATOM     25  C   UNL     1       0.171  11.683  19.266  0.00  0.00    +0.000 C 
ATOM     26  O   UNL     1       0.689  10.651  18.419  0.00  0.00    +0.000 OA
ENDBRANCH  15  17
ENDBRANCH   1  15
TORSDOF 3
ENDMDL
MODEL 5
REMARK VINA RESULT:      -8.1      0.920      1.662
REMARK  Name = 
REMARK  3 active torsions:
REMARK  status: ('A' for Active; 'I' for Inactive)
REMARK    1  A    between atoms: C_6  and  S_7
REMARK    2  A    between atoms: S_7  and  N_10
REMARK    3  A    between atoms: N_10  and  C_11
REMARK                            x       y       z     vdW  Elec       q    Type
REMARK                         _______ _______ _______ _____ _____    ______ ____
ROOT
ATOM      1  S   UNL     1       2.714   3.613  18.915  0.00  0.00    +0.000 S 
ATOM      2  O   UNL     1       1.574   3.956  18.094  0.00  0.00    +0.000 OA
ATOM      3  O   UNL     1       2.916   2.264  19.397  0.00  0.00    +0.000 OA
ENDROOT
BRANCH   1   9
ATOM      4  O   UNL     1       7.738   5.245  13.478  0.00  0.00    +0.000 OA
ATOM      5  C   UNL     1       7.062   5.014  14.467  0.00  0.00    +0.000 C 
ATOM      6  C   UNL     1       5.568   4.671  14.495  0.00  0.00    +0.000 C 
ATOM      7  C   UNL     1       5.313   4.495  15.963  0.00  0.00    +0.000 A 
ATOM      8  C   UNL     1       4.145   4.157  16.621  0.00  0.00    +0.000 A 
ATOM      9  C   UNL     1       4.191   4.078  18.020  0.00  0.00    +0.000 A 
ATOM     10  C   UNL     1       5.394   4.296  18.729  0.00  0.00    +0.000 A 
ATOM     11  C   UNL     1       6.568   4.625  18.043  0.00  0.00    +0.000 A 
ATOM     12  C   UNL     1       6.495   4.719  16.667  0.00  0.00    +0.000 A 
ATOM     13  N   UNL     1       7.515   5.021  15.783  0.00  0.00    +0.000 N 
ATOM     14  H   UNL     1       8.476   5.217  16.025  0.00  0.00    +0.000 HD
ENDBRANCH   1   9
BRANCH   1  15
ATOM     15  N   UNL     1       2.738   4.605  20.284  0.00  0.00    +0.000 N 
ATOM     16  H   UNL     1       3.530   4.414  20.894  0.00  0.00    +0.000 HD
BRANCH  15  17
ATOM     17  C   UNL     1       2.298   5.950  20.167  0.00  0.00    +0.000 A 
ATOM     18  C   UNL     1       1.499   6.504  21.168  0.00  0.00    +0.000 A 
ATOM     19  C   UNL     1       1.021   7.810  21.036  0.00  0.00    +0.000 A 
ATOM     20  C   UNL     1       1.314   8.542  19.887  0.00  0.00    +0.000 A 
ATOM     21  C   UNL     1       2.122   7.984  18.891  0.00  0.00    +0.000 A 
ATOM     22  C   UNL     1       2.619   6.691  19.030  0.00  0.00    +0.000 A 
ATOM     23  O   UNL     1       2.452   8.641  17.734  0.00  0.00    +0.000 OA
ATOM     24  C   UNL     1       2.194  10.045  17.839  0.00  0.00    +0.000 C 
ATOM     25  C   UNL     1       0.831  10.302  18.460  0.00  0.00    +0.000 C 
ATOM     26  O   UNL     1       0.778   9.800  19.800  0.00  0.00    +0.000 OA
ENDBRANCH  15  17
ENDBRANCH   1  15
TORSDOF 3
ENDMDL
MODEL 6
REMARK VINA RESULT:      -8.1      1.332      1.528
REMARK  Name = 
REMARK  3 active torsions:
REMARK  status: ('A' for Active; 'I' for Inactive)
REMARK    1  A    between atoms: C_6  and  S_7
REMARK    2  A    between atoms: S_7  and  N_10
REMARK    3  A    between atoms: N_10  and  C_11
REMARK                            x       y       z     vdW  Elec       q    Type
REMARK                         _______ _______ _______ _____ _____    ______ ____
ROOT
ATOM      1  S   UNL     1       4.755   4.405  19.087  0.00  0.00    +0.000 S 
ATOM      2  O   UNL     1       4.947   3.007  19.404  0.00  0.00    +0.000 OA
ATOM      3  O   UNL     1       5.133   5.447  20.017  0.00  0.00    +0.000 OA
ENDROOT
BRANCH   1   9
ATOM      4  O   UNL     1       7.196   4.227  11.912  0.00  0.00    +0.000 OA
ATOM      5  C   UNL     1       6.920   4.388  13.089  0.00  0.00    +0.000 C 
ATOM      6  C   UNL     1       5.833   3.653  13.884  0.00  0.00    +0.000 C 
ATOM      7  C   UNL     1       5.973   4.263  15.247  0.00  0.00    +0.000 A 
ATOM      8  C   UNL     1       5.275   3.995  16.409  0.00  0.00    +0.000 A 
ATOM      9  C   UNL     1       5.608   4.738  17.551  0.00  0.00    +0.000 A 
ATOM     10  C   UNL     1       6.646   5.697  17.525  0.00  0.00    +0.000 A 
ATOM     11  C   UNL     1       7.349   5.945  16.341  0.00  0.00    +0.000 A 
ATOM     12  C   UNL     1       6.989   5.217  15.223  0.00  0.00    +0.000 A 
ATOM     13  N   UNL     1       7.540   5.283  13.956  0.00  0.00    +0.000 N 
ATOM     14  H   UNL     1       8.298   5.882  13.666  0.00  0.00    +0.000 HD
ENDBRANCH   1   9
BRANCH   1  15
ATOM     15  N   UNL     1       3.129   4.679  18.717  0.00  0.00    +0.000 N 
ATOM     16  H   UNL     1       2.534   3.888  18.953  0.00  0.00    +0.000 HD
BRANCH  15  17
ATOM     17  C   UNL     1       2.596   5.985  18.879  0.00  0.00    +0.000 A 
ATOM     18  C   UNL     1       2.717   6.914  17.845  0.00  0.00    +0.000 A 
ATOM     19  C   UNL     1       2.240   8.215  18.017  0.00  0.00    +0.000 A 
ATOM     20  C   UNL     1       1.677   8.591  19.234  0.00  0.00    +0.000 A 
ATOM     21  C   UNL     1       1.550   7.653  20.265  0.00  0.00    +0.000 A 
ATOM     22  C   UNL     1       2.005   6.350  20.088  0.00  0.00    +0.000 A 
ATOM     23  O   UNL     1       1.010   7.949  21.490  0.00  0.00    +0.000 OA
ATOM     24  C   UNL     1       0.275   9.177  21.454  0.00  0.00    +0.000 C 
ATOM     25  C   UNL     1       1.057  10.256  20.722  0.00  0.00    +0.000 C 
ATOM     26  O   UNL     1       1.268   9.894  19.353  0.00  0.00    +0.000 OA
ENDBRANCH  15  17
ENDBRANCH   1  15
TORSDOF 3
ENDMDL
MODEL 7
REMARK VINA RESULT:      -8.0      3.531      5.546
REMARK  Name = 
REMARK  3 active torsions:
REMARK  status: ('A' for Active; 'I' for Inactive)
REMARK    1  A    between atoms: C_6  and  S_7
REMARK    2  A    between atoms: S_7  and  N_10
REMARK    3  A    between atoms: N_10  and  C_11
REMARK                            x       y       z     vdW  Elec       q    Type
REMARK                         _______ _______ _______ _____ _____    ______ ____
ROOT
ATOM      1  S   UNL     1       0.848   8.955  21.269  0.00  0.00    +0.000 S 
ATOM      2  O   UNL     1      -0.539   8.602  21.480  0.00  0.00    +0.000 OA
ATOM      3  O   UNL     1       1.727   9.251  22.379  0.00  0.00    +0.000 OA
ENDROOT
BRANCH   1   9
ATOM      4  O   UNL     1       3.576   2.257  18.996  0.00  0.00    +0.000 OA
ATOM      5  C   UNL     1       3.198   3.398  19.207  0.00  0.00    +0.000 C 
ATOM      6  C   UNL     1       2.399   3.887  20.421  0.00  0.00    +0.000 C 
ATOM      7  C   UNL     1       2.241   5.350  20.125  0.00  0.00    +0.000 A 
ATOM      8  C   UNL     1       1.622   6.338  20.866  0.00  0.00    +0.000 A 
ATOM      9  C   UNL     1       1.610   7.635  20.333  0.00  0.00    +0.000 A 
ATOM     10  C   UNL     1       2.243   7.930  19.105  0.00  0.00    +0.000 A 
ATOM     11  C   UNL     1       2.876   6.917  18.376  0.00  0.00    +0.000 A 
ATOM     12  C   UNL     1       2.856   5.643  18.909  0.00  0.00    +0.000 A 
ATOM     13  N   UNL     1       3.416   4.494  18.379  0.00  0.00    +0.000 N 
ATOM     14  H   UNL     1       3.929   4.426  17.512  0.00  0.00    +0.000 HD
ENDBRANCH   1   9
BRANCH   1  15
ATOM     15  N   UNL     1       0.936  10.290  20.236  0.00  0.00    +0.000 N 
ATOM     16  H   UNL     1       1.816  10.336  19.728  0.00  0.00    +0.000 HD
BRANCH  15  17
ATOM     17  C   UNL     1      -0.241  10.723  19.569  0.00  0.00    +0.000 A 
ATOM     18  C   UNL     1      -1.095  11.631  20.196  0.00  0.00    +0.000 A 
ATOM     19  C   UNL     1      -2.278  12.023  19.567  0.00  0.00    +0.000 A 
ATOM     20  C   UNL     1      -2.620  11.478  18.332  0.00  0.00    +0.000 A 
ATOM     21  C   UNL     1      -1.756  10.574  17.704  0.00  0.00    +0.000 A 
ATOM     22  C   UNL     1      -0.565  10.199  18.318  0.00  0.00    +0.000 A 
ATOM     23  O   UNL     1      -2.025   9.994  16.491  0.00  0.00    +0.000 OA
ATOM     24  C   UNL     1      -3.069  10.688  15.800  0.00  0.00    +0.000 C 
ATOM     25  C   UNL     1      -4.228  10.994  16.735  0.00  0.00    +0.000 C 
ATOM     26  O   UNL     1      -3.816  11.871  17.789  0.00  0.00    +0.000 OA
ENDBRANCH  15  17
ENDBRANCH   1  15
TORSDOF 3
ENDMDL
MODEL 8
REMARK VINA RESULT:      -7.9      3.042      5.193
REMARK  Name = 
REMARK  3 active torsions:
REMARK  status: ('A' for Active; 'I' for Inactive)
REMARK    1  A    between atoms: C_6  and  S_7
REMARK    2  A    between atoms: S_7  and  N_10
REMARK    3  A    between atoms: N_10  and  C_11
REMARK                            x       y       z     vdW  Elec       q    Type
REMARK                         _______ _______ _______ _____ _____    ______ ____
ROOT
ATOM      1  S   UNL     1       0.729   8.910  21.322  0.00  0.00    +0.000 S 
ATOM      2  O   UNL     1      -0.661   8.525  21.434  0.00  0.00    +0.000 OA
ATOM      3  O   UNL     1       1.514   9.247  22.490  0.00  0.00    +0.000 OA
ENDROOT
BRANCH   1   9
ATOM      4  O   UNL     1       4.807   4.882  16.362  0.00  0.00    +0.000 OA
ATOM      5  C   UNL     1       4.131   5.377  17.248  0.00  0.00    +0.000 C 
ATOM      6  C   UNL     1       3.773   6.860  17.407  0.00  0.00    +0.000 C 
ATOM      7  C   UNL     1       2.937   6.850  18.652  0.00  0.00    +0.000 A 
ATOM      8  C   UNL     1       2.303   7.895  19.298  0.00  0.00    +0.000 A 
ATOM      9  C   UNL     1       1.592   7.597  20.468  0.00  0.00    +0.000 A 
ATOM     10  C   UNL     1       1.491   6.272  20.949  0.00  0.00    +0.000 A 
ATOM     11  C   UNL     1       2.130   5.226  20.274  0.00  0.00    +0.000 A 
ATOM     12  C   UNL     1       2.843   5.546  19.135  0.00  0.00    +0.000 A 
ATOM     13  N   UNL     1       3.545   4.689  18.306  0.00  0.00    +0.000 N 
ATOM     14  H   UNL     1       3.632   3.690  18.418  0.00  0.00    +0.000 HD
ENDBRANCH   1   9
BRANCH   1  15
ATOM     15  N   UNL     1       0.860  10.232  20.275  0.00  0.00    +0.000 N 
ATOM     16  H   UNL     1       1.751  10.257  19.784  0.00  0.00    +0.000 HD
BRANCH  15  17
ATOM     17  C   UNL     1      -0.295  10.677  19.581  0.00  0.00    +0.000 A 
ATOM     18  C   UNL     1      -1.154  11.595  20.187  0.00  0.00    +0.000 A 
ATOM     19  C   UNL     1      -2.317  12.000  19.529  0.00  0.00    +0.000 A 
ATOM     20  C   UNL     1      -2.636  11.458  18.287  0.00  0.00    +0.000 A 
ATOM     21  C   UNL     1      -1.767  10.545  17.680  0.00  0.00    +0.000 A 
ATOM     22  C   UNL     1      -0.595  10.156  18.322  0.00  0.00    +0.000 A 
ATOM     23  O   UNL     1      -2.013   9.968  16.461  0.00  0.00    +0.000 OA
ATOM     24  C   UNL     1      -3.032  10.673  15.745  0.00  0.00    +0.000 C 
ATOM     25  C   UNL     1      -4.210  10.992  16.652  0.00  0.00    +0.000 C 
ATOM     26  O   UNL     1      -3.813  11.864  17.716  0.00  0.00    +0.000 OA
ENDBRANCH  15  17
ENDBRANCH   1  15
TORSDOF 3
ENDMDL
MODEL 9
REMARK VINA RESULT:      -7.8      1.164      1.571
REMARK  Name = 
REMARK  3 active torsions:
REMARK  status: ('A' for Active; 'I' for Inactive)
REMARK    1  A    between atoms: C_6  and  S_7
REMARK    2  A    between atoms: S_7  and  N_10
REMARK    3  A    between atoms: N_10  and  C_11
REMARK                            x       y       z     vdW  Elec       q    Type
REMARK                         _______ _______ _______ _____ _____    ______ ____
ROOT
ATOM      1  S   UNL     1       2.486   4.759  19.748  0.00  0.00    +0.000 S 
ATOM      2  O   UNL     1       1.138   4.811  19.224  0.00  0.00    +0.000 OA
ATOM      3  O   UNL     1       2.846   3.844  20.809  0.00  0.00    +0.000 OA
ENDROOT
BRANCH   1   9
ATOM      4  O   UNL     1       7.913   5.273  14.481  0.00  0.00    +0.000 OA
ATOM      5  C   UNL     1       6.999   5.035  15.253  0.00  0.00    +0.000 C 
ATOM      6  C   UNL     1       6.571   5.886  16.455  0.00  0.00    +0.000 C 
ATOM      7  C   UNL     1       5.416   5.099  17.001  0.00  0.00    +0.000 A 
ATOM      8  C   UNL     1       4.597   5.369  18.081  0.00  0.00    +0.000 A 
ATOM      9  C   UNL     1       3.591   4.439  18.380  0.00  0.00    +0.000 A 
ATOM     10  C   UNL     1       3.395   3.288  17.582  0.00  0.00    +0.000 A 
ATOM     11  C   UNL     1       4.227   3.040  16.486  0.00  0.00    +0.000 A 
ATOM     12  C   UNL     1       5.226   3.958  16.223  0.00  0.00    +0.000 A 
ATOM     13  N   UNL     1       6.157   3.929  15.200  0.00  0.00    +0.000 N 
ATOM     14  H   UNL     1       6.236   3.220  14.487  0.00  0.00    +0.000 HD
ENDBRANCH   1   9
BRANCH   1  15
ATOM     15  N   UNL     1       2.938   6.297  20.285  0.00  0.00    +0.000 N 
ATOM     16  H   UNL     1       3.944   6.393  20.399  0.00  0.00    +0.000 HD
BRANCH  15  17
ATOM     17  C   UNL     1       2.208   7.427  19.830  0.00  0.00    +0.000 A 
ATOM     18  C   UNL     1       2.331   7.839  18.502  0.00  0.00    +0.000 A 
ATOM     19  C   UNL     1       1.654   8.978  18.061  0.00  0.00    +0.000 A 
ATOM     20  C   UNL     1       0.890   9.721  18.957  0.00  0.00    +0.000 A 
ATOM     21  C   UNL     1       0.764   9.299  20.285  0.00  0.00    +0.000 A 
ATOM     22  C   UNL     1       1.418   8.151  20.722  0.00  0.00    +0.000 A 
ATOM     23  O   UNL     1       0.032   9.978  21.224  0.00  0.00    +0.000 OA
ATOM     24  C   UNL     1      -0.858  10.918  20.614  0.00  0.00    +0.000 C 
ATOM     25  C   UNL     1      -0.149  11.712  19.529  0.00  0.00    +0.000 C 
ATOM     26  O   UNL     1       0.289  10.852  18.471  0.00  0.00    +0.000 OA
ENDBRANCH  15  17
ENDBRANCH   1  15
TORSDOF 3
ENDMDL
