MODEL 1
REMARK VINA RESULT:      -8.6      0.000      0.000
REMARK  Name = 
REMARK  6 active torsions:
REMARK  status: ('A' for Active; 'I' for Inactive)
REMARK    1  A    between atoms: C_2  and  C_3
REMARK    2  A    between atoms: C_3  and  N_4
REMARK    3  A    between atoms: N_4  and  S_5
REMARK    4  A    between atoms: S_5  and  C_8
REMARK    5  A    between atoms: C_8  and  C_9
REMARK    6  A    between atoms: N_15  and  C_16
REMARK                            x       y       z     vdW  Elec       q    Type
REMARK                         _______ _______ _______ _____ _____    ______ ____
ROOT
ATOM      1  O   UNL     1       7.142   7.894  17.096  0.00  0.00    +0.000 OA
ATOM      2  C   UNL     1       7.849   7.549  18.035  0.00  0.00    +0.000 C 
ATOM      3  N   UNL     1       8.677   8.331  18.818  0.00  0.00    +0.000 N 
ATOM      4  H   UNL     1       9.198   7.860  19.514  0.00  0.00    +0.000 HD
ENDROOT
BRANCH   3   5
ATOM      5  C   UNL     1       8.919   9.700  18.790  0.00  0.00    +0.000 A 
ATOM      6  C   UNL     1       8.476  10.592  17.749  0.00  0.00    +0.000 A 
ATOM      7  C   UNL     1       8.760  11.995  17.806  0.00  0.00    +0.000 A 
ATOM      8  C   UNL     1       9.397  12.523  18.931  0.00  0.00    +0.000 A 
ATOM      9  C   UNL     1       9.620  11.605  20.001  0.00  0.00    +0.000 A 
ATOM     10  C   UNL     1       9.509  10.250  19.896  0.00  0.00    +0.000 A 
ATOM     11  C   UNL     1       9.527  12.363  21.321  0.00  0.00    +0.000 C 
ATOM     12  C   UNL     1       8.885  13.631  20.826  0.00  0.00    +0.000 A 
ATOM     13  C   UNL     1       7.824  14.371  21.309  0.00  0.00    +0.000 A 
ATOM     14  C   UNL     1       7.520  15.563  20.651  0.00  0.00    +0.000 A 
ATOM     15  C   UNL     1       8.339  16.008  19.600  0.00  0.00    +0.000 A 
ATOM     16  C   UNL     1       9.217  15.115  18.981  0.00  0.00    +0.000 A 
ATOM     17  C   UNL     1       9.276  13.850  19.501  0.00  0.00    +0.000 A 
ENDBRANCH   3   5
BRANCH   2  18
ATOM     18  C   UNL     1       7.881   6.058  18.466  0.00  0.00    +0.000 C 
BRANCH  18  19
ATOM     19  N   UNL     1       6.736   5.681  19.342  0.00  0.00    +0.000 NA
ATOM     20  H   UNL     1       6.276   6.537  19.679  0.00  0.00    +0.000 HD
BRANCH  19  21
ATOM     21  S   UNL     1       5.602   4.680  18.553  0.00  0.00    +0.000 S 
ATOM     22  O   UNL     1       6.073   4.526  17.208  0.00  0.00    +0.000 OA
ATOM     23  O   UNL     1       5.402   3.542  19.433  0.00  0.00    +0.000 OA
BRANCH  21  24
ATOM     24  C   UNL     1       4.132   5.729  18.561  0.00  0.00    +0.000 C 
BRANCH  24  25
ATOM     25  C   UNL     1       2.950   4.889  18.979  0.00  0.00    +0.000 A 
ATOM     26  C   UNL     1       2.330   4.031  18.060  0.00  0.00    +0.000 A 
ATOM     27  C   UNL     1       1.234   3.257  18.445  0.00  0.00    +0.000 A 
ATOM     28  C   UNL     1       0.746   3.334  19.748  0.00  0.00    +0.000 A 
ATOM     29  C   UNL     1       1.342   4.196  20.665  0.00  0.00    +0.000 A 
ATOM     30  C   UNL     1       2.437   4.972  20.284  0.00  0.00    +0.000 A 
ENDBRANCH  24  25
ENDBRANCH  21  24
ENDBRANCH  19  21
ENDBRANCH  18  19
ENDBRANCH   2  18
TORSDOF 6
ENDMDL
MODEL 2
REMARK VINA RESULT:      -8.5      1.510      1.988
REMARK  Name = 
REMARK  6 active torsions:
REMARK  status: ('A' for Active; 'I' for Inactive)
REMARK    1  A    between atoms: C_2  and  C_3
REMARK    2  A    between atoms: C_3  and  N_4
REMARK    3  A    between atoms: N_4  and  S_5
REMARK    4  A    between atoms: S_5  and  C_8
REMARK    5  A    between atoms: C_8  and  C_9
REMARK    6  A    between atoms: N_15  and  C_16
REMARK                            x       y       z     vdW  Elec       q    Type
REMARK                         _______ _______ _______ _____ _____    ______ ____
ROOT
ATOM      1  O   UNL     1       7.686   9.238  17.253  0.00  0.00    +0.000 OA
ATOM      2  C   UNL     1       8.208   8.617  18.171  0.00  0.00    +0.000 C 
ATOM      3  N   UNL     1       9.091   9.083  19.128  0.00  0.00    +0.000 N 
ATOM      4  H   UNL     1       9.432   8.416  19.772  0.00  0.00    +0.000 HD
ENDROOT
BRANCH   3   5
ATOM      5  C   UNL     1       9.605  10.357  19.339  0.00  0.00    +0.000 A 
ATOM      6  C   UNL     1      10.078  11.236  18.301  0.00  0.00    +0.000 A 
ATOM      7  C   UNL     1      10.582  12.541  18.608  0.00  0.00    +0.000 A 
ATOM      8  C   UNL     1      10.532  13.005  19.924  0.00  0.00    +0.000 A 
ATOM      9  C   UNL     1       9.866  12.152  20.854  0.00  0.00    +0.000 A 
ATOM     10  C   UNL     1       9.535  10.852  20.614  0.00  0.00    +0.000 A 
ATOM     11  C   UNL     1       9.186  13.019  21.910  0.00  0.00    +0.000 C 
ATOM     12  C   UNL     1       9.268  14.352  21.216  0.00  0.00    +0.000 A 
ATOM     13  C   UNL     1       8.328  15.345  21.026  0.00  0.00    +0.000 A 
ATOM     14  C   UNL     1       8.751  16.517  20.397  0.00  0.00    +0.000 A 
ATOM     15  C   UNL     1      10.106  16.681  20.067  0.00  0.00    +0.000 A 
ATOM     16  C   UNL     1      10.949  15.568  20.030  0.00  0.00    +0.000 A 
ATOM     17  C   UNL     1      10.402  14.370  20.399  0.00  0.00    +0.000 A 
ENDBRANCH   3   5
BRANCH   2  18
ATOM     18  C   UNL     1       7.894   7.109  18.356  0.00  0.00    +0.000 C 
BRANCH  18  19
ATOM     19  N   UNL     1       7.406   6.458  17.107  0.00  0.00    +0.000 NA
ATOM     20  H   UNL     1       8.114   6.574  16.371  0.00  0.00    +0.000 HD
BRANCH  19  21
ATOM     21  S   UNL     1       7.048   4.804  17.320  0.00  0.00    +0.000 S 
ATOM     22  O   UNL     1       8.189   4.084  16.837  0.00  0.00    +0.000 OA
ATOM     23  O   UNL     1       6.579   4.675  18.689  0.00  0.00    +0.000 OA
BRANCH  21  24
ATOM     24  C   UNL     1       5.670   4.586  16.174  0.00  0.00    +0.000 C 
BRANCH  24  25
ATOM     25  C   UNL     1       4.382   4.653  16.959  0.00  0.00    +0.000 A 
ATOM     26  C   UNL     1       3.895   5.884  17.417  0.00  0.00    +0.000 A 
ATOM     27  C   UNL     1       2.707   5.946  18.147  0.00  0.00    +0.000 A 
ATOM     28  C   UNL     1       1.996   4.780  18.427  0.00  0.00    +0.000 A 
ATOM     29  C   UNL     1       2.481   3.548  17.994  0.00  0.00    +0.000 A 
ATOM     30  C   UNL     1       3.668   3.482  17.265  0.00  0.00    +0.000 A 
ENDBRANCH  24  25
ENDBRANCH  21  24
ENDBRANCH  19  21
ENDBRANCH  18  19
ENDBRANCH   2  18
TORSDOF 6
ENDMDL
MODEL 3
REMARK VINA RESULT:      -8.5      5.061      6.758
REMARK  Name = 
REMARK  6 active torsions:
REMARK  status: ('A' for Active; 'I' for Inactive)
REMARK    1  A    between atoms: C_2  and  C_3
REMARK    2  A    between atoms: C_3  and  N_4
REMARK    3  A    between atoms: N_4  and  S_5
REMARK    4  A    between atoms: S_5  and  C_8
REMARK    5  A    between atoms: C_8  and  C_9
REMARK    6  A    between atoms: N_15  and  C_16
REMARK                            x       y       z     vdW  Elec       q    Type
REMARK                         _______ _______ _______ _____ _____    ______ ____
ROOT
ATOM      1  O   UNL     1       0.705   4.829  20.610  0.00  0.00    +0.000 OA
ATOM      2  C   UNL     1       1.866   5.207  20.703  0.00  0.00    +0.000 C 
ATOM      3  N   UNL     1       2.362   6.493  20.584  0.00  0.00    +0.000 N 
ATOM      4  H   UNL     1       3.342   6.594  20.659  0.00  0.00    +0.000 HD
ENDROOT
BRANCH   3   5
ATOM      5  C   UNL     1       1.705   7.697  20.360  0.00  0.00    +0.000 A 
ATOM      6  C   UNL     1       1.055   8.482  21.378  0.00  0.00    +0.000 A 
ATOM      7  C   UNL     1       0.411   9.721  21.059  0.00  0.00    +0.000 A 
ATOM      8  C   UNL     1       0.490  10.223  19.758  0.00  0.00    +0.000 A 
ATOM      9  C   UNL     1       1.321   9.485  18.862  0.00  0.00    +0.000 A 
ATOM     10  C   UNL     1       1.797   8.230  19.102  0.00  0.00    +0.000 A 
ATOM     11  C   UNL     1       1.955  10.457  17.872  0.00  0.00    +0.000 C 
ATOM     12  C   UNL     1       1.657  11.751  18.582  0.00  0.00    +0.000 A 
ATOM     13  C   UNL     1       2.448  12.849  18.855  0.00  0.00    +0.000 A 
ATOM     14  C   UNL     1       1.838  13.942  19.473  0.00  0.00    +0.000 A 
ATOM     15  C   UNL     1       0.453  13.926  19.710  0.00  0.00    +0.000 A 
ATOM     16  C   UNL     1      -0.242  12.715  19.668  0.00  0.00    +0.000 A 
ATOM     17  C   UNL     1       0.477  11.604  19.317  0.00  0.00    +0.000 A 
ENDBRANCH   3   5
BRANCH   2  18
ATOM     18  C   UNL     1       2.990   4.176  20.990  0.00  0.00    +0.000 C 
BRANCH  18  19
ATOM     19  N   UNL     1       2.763   2.865  20.321  0.00  0.00    +0.000 NA
ATOM     20  H   UNL     1       1.786   2.816  20.004  0.00  0.00    +0.000 HD
BRANCH  19  21
ATOM     21  S   UNL     1       3.817   2.602  19.007  0.00  0.00    +0.000 S 
ATOM     22  O   UNL     1       5.039   3.277  19.334  0.00  0.00    +0.000 OA
ATOM     23  O   UNL     1       3.774   1.173  18.746  0.00  0.00    +0.000 OA
BRANCH  21  24
ATOM     24  C   UNL     1       2.972   3.494  17.685  0.00  0.00    +0.000 C 
BRANCH  24  25
ATOM     25  C   UNL     1       3.941   4.480  17.080  0.00  0.00    +0.000 A 
ATOM     26  C   UNL     1       4.889   4.056  16.139  0.00  0.00    +0.000 A 
ATOM     27  C   UNL     1       5.789   4.966  15.582  0.00  0.00    +0.000 A 
ATOM     28  C   UNL     1       5.752   6.307  15.961  0.00  0.00    +0.000 A 
ATOM     29  C   UNL     1       4.827   6.737  16.909  0.00  0.00    +0.000 A 
ATOM     30  C   UNL     1       3.927   5.831  17.469  0.00  0.00    +0.000 A 
ENDBRANCH  24  25
ENDBRANCH  21  24
ENDBRANCH  19  21
ENDBRANCH  18  19
ENDBRANCH   2  18
TORSDOF 6
ENDMDL
MODEL 4
REMARK VINA RESULT:      -8.5      0.816      1.239
REMARK  Name = 
REMARK  6 active torsions:
REMARK  status: ('A' for Active; 'I' for Inactive)
REMARK    1  A    between atoms: C_2  and  C_3
REMARK    2  A    between atoms: C_3  and  N_4
REMARK    3  A    between atoms: N_4  and  S_5
REMARK    4  A    between atoms: S_5  and  C_8
REMARK    5  A    between atoms: C_8  and  C_9
REMARK    6  A    between atoms: N_15  and  C_16
REMARK                            x       y       z     vdW  Elec       q    Type
REMARK                         _______ _______ _______ _____ _____    ______ ____
ROOT
ATOM      1  O   UNL     1       7.345   8.491  17.086  0.00  0.00    +0.000 OA
ATOM      2  C   UNL     1       7.947   8.048  18.057  0.00  0.00    +0.000 C 
ATOM      3  N   UNL     1       8.769   8.725  18.939  0.00  0.00    +0.000 N 
ATOM      4  H   UNL     1       9.195   8.182  19.647  0.00  0.00    +0.000 HD
ENDROOT
BRANCH   3   5
ATOM      5  C   UNL     1       9.119  10.069  18.998  0.00  0.00    +0.000 A 
ATOM      6  C   UNL     1       8.962  11.007  17.916  0.00  0.00    +0.000 A 
ATOM      7  C   UNL     1       9.338  12.381  18.068  0.00  0.00    +0.000 A 
ATOM      8  C   UNL     1       9.780  12.840  19.310  0.00  0.00    +0.000 A 
ATOM      9  C   UNL     1       9.714  11.894  20.377  0.00  0.00    +0.000 A 
ATOM     10  C   UNL     1       9.520  10.554  20.214  0.00  0.00    +0.000 A 
ATOM     11  C   UNL     1       9.421  12.640  21.674  0.00  0.00    +0.000 C 
ATOM     12  C   UNL     1       8.992  13.964  21.099  0.00  0.00    +0.000 A 
ATOM     13  C   UNL     1       7.918  14.782  21.386  0.00  0.00    +0.000 A 
ATOM     14  C   UNL     1       7.846  16.004  20.715  0.00  0.00    +0.000 A 
ATOM     15  C   UNL     1       8.889  16.393  19.858  0.00  0.00    +0.000 A 
ATOM     16  C   UNL     1       9.798  15.437  19.398  0.00  0.00    +0.000 A 
ATOM     17  C   UNL     1       9.654  14.166  19.884  0.00  0.00    +0.000 A 
ENDBRANCH   3   5
BRANCH   2  18
ATOM     18  C   UNL     1       7.827   6.542  18.415  0.00  0.00    +0.000 C 
BRANCH  18  19
ATOM     19  N   UNL     1       7.398   5.702  17.262  0.00  0.00    +0.000 NA
ATOM     20  H   UNL     1       8.187   5.115  16.963  0.00  0.00    +0.000 HD
BRANCH  19  21
ATOM     21  S   UNL     1       6.046   4.726  17.622  0.00  0.00    +0.000 S 
ATOM     22  O   UNL     1       5.819   3.915  16.462  0.00  0.00    +0.000 OA
ATOM     23  O   UNL     1       6.314   4.146  18.926  0.00  0.00    +0.000 OA
BRANCH  21  24
ATOM     24  C   UNL     1       4.737   5.963  17.756  0.00  0.00    +0.000 C 
BRANCH  24  25
ATOM     25  C   UNL     1       3.533   5.315  18.396  0.00  0.00    +0.000 A 
ATOM     26  C   UNL     1       3.302   5.454  19.771  0.00  0.00    +0.000 A 
ATOM     27  C   UNL     1       2.191   4.852  20.365  0.00  0.00    +0.000 A 
ATOM     28  C   UNL     1       1.304   4.105  19.592  0.00  0.00    +0.000 A 
ATOM     29  C   UNL     1       1.534   3.943  18.228  0.00  0.00    +0.000 A 
ATOM     30  C   UNL     1       2.643   4.543  17.631  0.00  0.00    +0.000 A 
ENDBRANCH  24  25
ENDBRANCH  21  24
ENDBRANCH  19  21
ENDBRANCH  18  19
ENDBRANCH   2  18
TORSDOF 6
ENDMDL
MODEL 5
REMARK VINA RESULT:      -8.4      1.699      1.868
REMARK  Name = 
REMARK  6 active torsions:
REMARK  status: ('A' for Active; 'I' for Inactive)
REMARK    1  A    between atoms: C_2  and  C_3
REMARK    2  A    between atoms: C_3  and  N_4
REMARK    3  A    between atoms: N_4  and  S_5
REMARK    4  A    between atoms: S_5  and  C_8
REMARK    5  A    between atoms: C_8  and  C_9
REMARK    6  A    between atoms: N_15  and  C_16
REMARK                            x       y       z     vdW  Elec       q    Type
REMARK                         _______ _______ _______ _____ _____    ______ ____
ROOT
ATOM      1  O   UNL     1       7.353   9.375  17.224  0.00  0.00    +0.000 OA
ATOM      2  C   UNL     1       7.971   8.640  17.984  0.00  0.00    +0.000 C 
ATOM      3  N   UNL     1       8.956   8.979  18.893  0.00  0.00    +0.000 N 
ATOM      4  H   UNL     1       9.364   8.233  19.397  0.00  0.00    +0.000 HD
ENDROOT
BRANCH   3   5
ATOM      5  C   UNL     1       9.495  10.218  19.222  0.00  0.00    +0.000 A 
ATOM      6  C   UNL     1       9.979  11.183  18.268  0.00  0.00    +0.000 A 
ATOM      7  C   UNL     1      10.508  12.444  18.695  0.00  0.00    +0.000 A 
ATOM      8  C   UNL     1      10.473  12.782  20.049  0.00  0.00    +0.000 A 
ATOM      9  C   UNL     1       9.795  11.856  20.898  0.00  0.00    +0.000 A 
ATOM     10  C   UNL     1       9.439  10.590  20.538  0.00  0.00    +0.000 A 
ATOM     11  C   UNL     1       9.136  12.630  22.036  0.00  0.00    +0.000 C 
ATOM     12  C   UNL     1       9.239  14.022  21.472  0.00  0.00    +0.000 A 
ATOM     13  C   UNL     1       8.317  15.045  21.383  0.00  0.00    +0.000 A 
ATOM     14  C   UNL     1       8.758  16.264  20.865  0.00  0.00    +0.000 A 
ATOM     15  C   UNL     1      10.115  16.435  20.544  0.00  0.00    +0.000 A 
ATOM     16  C   UNL     1      10.937  15.315  20.396  0.00  0.00    +0.000 A 
ATOM     17  C   UNL     1      10.370  14.097  20.653  0.00  0.00    +0.000 A 
ENDBRANCH   3   5
BRANCH   2  18
ATOM     18  C   UNL     1       7.675   7.116  17.991  0.00  0.00    +0.000 C 
BRANCH  18  19
ATOM     19  N   UNL     1       6.844   6.679  16.834  0.00  0.00    +0.000 NA
ATOM     20  H   UNL     1       7.254   7.052  15.968  0.00  0.00    +0.000 HD
BRANCH  19  21
ATOM     21  S   UNL     1       6.697   4.983  16.729  0.00  0.00    +0.000 S 
ATOM     22  O   UNL     1       5.768   4.728  15.667  0.00  0.00    +0.000 OA
ATOM     23  O   UNL     1       8.056   4.470  16.703  0.00  0.00    +0.000 OA
BRANCH  21  24
ATOM     24  C   UNL     1       5.922   4.593  18.312  0.00  0.00    +0.000 C 
BRANCH  24  25
ATOM     25  C   UNL     1       4.430   4.502  18.103  0.00  0.00    +0.000 A 
ATOM     26  C   UNL     1       3.830   3.271  17.804  0.00  0.00    +0.000 A 
ATOM     27  C   UNL     1       2.451   3.187  17.606  0.00  0.00    +0.000 A 
ATOM     28  C   UNL     1       1.659   4.330  17.702  0.00  0.00    +0.000 A 
ATOM     29  C   UNL     1       2.246   5.562  17.980  0.00  0.00    +0.000 A 
ATOM     30  C   UNL     1       3.624   5.650  18.178  0.00  0.00    +0.000 A 
ENDBRANCH  24  25
ENDBRANCH  21  24
ENDBRANCH  19  21
ENDBRANCH  18  19
ENDBRANCH   2  18
TORSDOF 6
ENDMDL
MODEL 6
REMARK VINA RESULT:      -8.4      1.777      2.129
REMARK  Name = 
REMARK  6 active torsions:
REMARK  status: ('A' for Active; 'I' for Inactive)
REMARK    1  A    between atoms: C_2  and  C_3
REMARK    2  A    between atoms: C_3  and  N_4
REMARK    3  A    between atoms: N_4  and  S_5
REMARK    4  A    between atoms: S_5  and  C_8
REMARK    5  A    between atoms: C_8  and  C_9
REMARK    6  A    between atoms: N_15  and  C_16
REMARK                            x       y       z     vdW  Elec       q    Type
REMARK                         _______ _______ _______ _____ _____    ______ ____
ROOT
ATOM      1  O   UNL     1       8.790   7.833  18.962  0.00  0.00    +0.000 OA
ATOM      2  C   UNL     1       8.117   8.458  18.152  0.00  0.00    +0.000 C 
ATOM      3  N   UNL     1       8.174   9.806  17.846  0.00  0.00    +0.000 N 
ATOM      4  H   UNL     1       7.520  10.134  17.182  0.00  0.00    +0.000 HD
ENDROOT
BRANCH   3   5
ATOM      5  C   UNL     1       9.006  10.808  18.334  0.00  0.00    +0.000 A 
ATOM      6  C   UNL     1       9.460  11.942  17.571  0.00  0.00    +0.000 A 
ATOM      7  C   UNL     1      10.308  12.937  18.158  0.00  0.00    +0.000 A 
ATOM      8  C   UNL     1      10.626  12.856  19.515  0.00  0.00    +0.000 A 
ATOM      9  C   UNL     1       9.972  11.815  20.241  0.00  0.00    +0.000 A 
ATOM     10  C   UNL     1       9.304  10.773  19.670  0.00  0.00    +0.000 A 
ATOM     11  C   UNL     1       9.735  12.292  21.670  0.00  0.00    +0.000 C 
ATOM     12  C   UNL     1       9.992  13.764  21.479  0.00  0.00    +0.000 A 
ATOM     13  C   UNL     1       9.294  14.878  21.899  0.00  0.00    +0.000 A 
ATOM     14  C   UNL     1       9.851  16.127  21.619  0.00  0.00    +0.000 A 
ATOM     15  C   UNL     1      11.115  16.207  21.013  0.00  0.00    +0.000 A 
ATOM     16  C   UNL     1      11.648  15.085  20.373  0.00  0.00    +0.000 A 
ATOM     17  C   UNL     1      10.917  13.931  20.443  0.00  0.00    +0.000 A 
ENDBRANCH   3   5
BRANCH   2  18
ATOM     18  C   UNL     1       7.036   7.720  17.317  0.00  0.00    +0.000 C 
BRANCH  18  19
ATOM     19  N   UNL     1       7.570   6.533  16.593  0.00  0.00    +0.000 NA
ATOM     20  H   UNL     1       8.598   6.564  16.611  0.00  0.00    +0.000 HD
BRANCH  19  21
ATOM     21  S   UNL     1       7.019   5.057  17.247  0.00  0.00    +0.000 S 
ATOM     22  O   UNL     1       8.073   4.108  17.037  0.00  0.00    +0.000 OA
ATOM     23  O   UNL     1       6.522   5.374  18.574  0.00  0.00    +0.000 OA
BRANCH  21  24
ATOM     24  C   UNL     1       5.638   4.673  16.149  0.00  0.00    +0.000 C 
BRANCH  24  25
ATOM     25  C   UNL     1       4.370   4.648  16.968  0.00  0.00    +0.000 A 
ATOM     26  C   UNL     1       3.764   3.429  17.298  0.00  0.00    +0.000 A 
ATOM     27  C   UNL     1       2.589   3.405  18.052  0.00  0.00    +0.000 A 
ATOM     28  C   UNL     1       2.010   4.597  18.482  0.00  0.00    +0.000 A 
ATOM     29  C   UNL     1       2.593   5.816  18.145  0.00  0.00    +0.000 A 
ATOM     30  C   UNL     1       3.766   5.844  17.390  0.00  0.00    +0.000 A 
ENDBRANCH  24  25
ENDBRANCH  21  24
ENDBRANCH  19  21
ENDBRANCH  18  19
ENDBRANCH   2  18
TORSDOF 6
ENDMDL
MODEL 7
REMARK VINA RESULT:      -8.3      1.288      1.590
REMARK  Name = 
REMARK  6 active torsions:
REMARK  status: ('A' for Active; 'I' for Inactive)
REMARK    1  A    between atoms: C_2  and  C_3
REMARK    2  A    between atoms: C_3  and  N_4
REMARK    3  A    between atoms: N_4  and  S_5
REMARK    4  A    between atoms: S_5  and  C_8
REMARK    5  A    between atoms: C_8  and  C_9
REMARK    6  A    between atoms: N_15  and  C_16
REMARK                            x       y       z     vdW  Elec       q    Type
REMARK                         _______ _______ _______ _____ _____    ______ ____
ROOT
ATOM      1  O   UNL     1       7.438   8.562  17.147  0.00  0.00    +0.000 OA
ATOM      2  C   UNL     1       8.024   8.085  18.112  0.00  0.00    +0.000 C 
ATOM      3  N   UNL     1       8.854   8.724  19.014  0.00  0.00    +0.000 N 
ATOM      4  H   UNL     1       9.264   8.157  19.712  0.00  0.00    +0.000 HD
ENDROOT
BRANCH   3   5
ATOM      5  C   UNL     1       9.232  10.059  19.106  0.00  0.00    +0.000 A 
ATOM      6  C   UNL     1       9.319  10.967  17.991  0.00  0.00    +0.000 A 
ATOM      7  C   UNL     1       9.706  12.333  18.178  0.00  0.00    +0.000 A 
ATOM      8  C   UNL     1       9.915  12.818  19.471  0.00  0.00    +0.000 A 
ATOM      9  C   UNL     1       9.611  11.908  20.527  0.00  0.00    +0.000 A 
ATOM     10  C   UNL     1       9.407  10.570  20.363  0.00  0.00    +0.000 A 
ATOM     11  C   UNL     1       9.099  12.703  21.724  0.00  0.00    +0.000 C 
ATOM     12  C   UNL     1       8.835  14.020  21.043  0.00  0.00    +0.000 A 
ATOM     13  C   UNL     1       7.754  14.877  21.095  0.00  0.00    +0.000 A 
ATOM     14  C   UNL     1       7.855  16.079  20.392  0.00  0.00    +0.000 A 
ATOM     15  C   UNL     1       9.057  16.410  19.745  0.00  0.00    +0.000 A 
ATOM     16  C   UNL     1      10.005  15.415  19.495  0.00  0.00    +0.000 A 
ATOM     17  C   UNL     1       9.726  14.165  19.975  0.00  0.00    +0.000 A 
ENDBRANCH   3   5
BRANCH   2  18
ATOM     18  C   UNL     1       7.870   6.574  18.434  0.00  0.00    +0.000 C 
BRANCH  18  19
ATOM     19  N   UNL     1       7.052   5.844  17.425  0.00  0.00    +0.000 NA
ATOM     20  H   UNL     1       7.461   4.913  17.272  0.00  0.00    +0.000 HD
BRANCH  19  21
ATOM     21  S   UNL     1       5.416   5.695  17.883  0.00  0.00    +0.000 S 
ATOM     22  O   UNL     1       5.420   5.363  19.277  0.00  0.00    +0.000 OA
ATOM     23  O   UNL     1       4.755   6.886  17.377  0.00  0.00    +0.000 OA
BRANCH  21  24
ATOM     24  C   UNL     1       4.905   4.254  16.923  0.00  0.00    +0.000 C 
BRANCH  24  25
ATOM     25  C   UNL     1       3.666   3.673  17.558  0.00  0.00    +0.000 A 
ATOM     26  C   UNL     1       2.474   4.409  17.589  0.00  0.00    +0.000 A 
ATOM     27  C   UNL     1       1.328   3.874  18.181  0.00  0.00    +0.000 A 
ATOM     28  C   UNL     1       1.363   2.601  18.748  0.00  0.00    +0.000 A 
ATOM     29  C   UNL     1       2.546   1.868  18.741  0.00  0.00    +0.000 A 
ATOM     30  C   UNL     1       3.694   2.399  18.151  0.00  0.00    +0.000 A 
ENDBRANCH  24  25
ENDBRANCH  21  24
ENDBRANCH  19  21
ENDBRANCH  18  19
ENDBRANCH   2  18
TORSDOF 6
ENDMDL
MODEL 8
REMARK VINA RESULT:      -8.3      5.331      7.260
REMARK  Name = 
REMARK  6 active torsions:
REMARK  status: ('A' for Active; 'I' for Inactive)
REMARK    1  A    between atoms: C_2  and  C_3
REMARK    2  A    between atoms: C_3  and  N_4
REMARK    3  A    between atoms: N_4  and  S_5
REMARK    4  A    between atoms: S_5  and  C_8
REMARK    5  A    between atoms: C_8  and  C_9
REMARK    6  A    between atoms: N_15  and  C_16
REMARK                            x       y       z     vdW  Elec       q    Type
REMARK                         _______ _______ _______ _____ _____    ______ ____
ROOT
ATOM      1  O   UNL     1       2.794   4.060  18.855  0.00  0.00    +0.000 OA
ATOM      2  C   UNL     1       3.752   4.808  18.697  0.00  0.00    +0.000 C 
ATOM      3  N   UNL     1       3.786   6.187  18.781  0.00  0.00    +0.000 N 
ATOM      4  H   UNL     1       4.654   6.618  18.586  0.00  0.00    +0.000 HD
ENDROOT
BRANCH   3   5
ATOM      5  C   UNL     1       2.783   7.099  19.090  0.00  0.00    +0.000 A 
ATOM      6  C   UNL     1       2.131   7.203  20.370  0.00  0.00    +0.000 A 
ATOM      7  C   UNL     1       1.113   8.183  20.605  0.00  0.00    +0.000 A 
ATOM      8  C   UNL     1       0.809   9.111  19.607  0.00  0.00    +0.000 A 
ATOM      9  C   UNL     1       1.639   9.065  18.448  0.00  0.00    +0.000 A 
ATOM     10  C   UNL     1       2.490   8.044  18.143  0.00  0.00    +0.000 A 
ATOM     11  C   UNL     1       1.778  10.478  17.890  0.00  0.00    +0.000 C 
ATOM     12  C   UNL     1       1.256  11.254  19.070  0.00  0.00    +0.000 A 
ATOM     13  C   UNL     1       1.736  12.379  19.711  0.00  0.00    +0.000 A 
ATOM     14  C   UNL     1       0.961  12.907  20.745  0.00  0.00    +0.000 A 
ATOM     15  C   UNL     1      -0.294  12.346  21.033  0.00  0.00    +0.000 A 
ATOM     16  C   UNL     1      -0.609  11.073  20.553  0.00  0.00    +0.000 A 
ATOM     17  C   UNL     1       0.321  10.469  19.752  0.00  0.00    +0.000 A 
ENDBRANCH   3   5
BRANCH   2  18
ATOM     18  C   UNL     1       5.143   4.212  18.353  0.00  0.00    +0.000 C 
BRANCH  18  19
ATOM     19  N   UNL     1       6.233   5.227  18.379  0.00  0.00    +0.000 NA
ATOM     20  H   UNL     1       6.906   4.977  19.115  0.00  0.00    +0.000 HD
BRANCH  19  21
ATOM     21  S   UNL     1       7.034   5.377  16.881  0.00  0.00    +0.000 S 
ATOM     22  O   UNL     1       7.581   6.702  16.851  0.00  0.00    +0.000 OA
ATOM     23  O   UNL     1       7.872   4.196  16.761  0.00  0.00    +0.000 OA
BRANCH  21  24
ATOM     24  C   UNL     1       5.652   5.270  15.724  0.00  0.00    +0.000 C 
BRANCH  24  25
ATOM     25  C   UNL     1       6.181   4.798  14.391  0.00  0.00    +0.000 A 
ATOM     26  C   UNL     1       7.318   5.394  13.830  0.00  0.00    +0.000 A 
ATOM     27  C   UNL     1       7.806   4.962  12.596  0.00  0.00    +0.000 A 
ATOM     28  C   UNL     1       7.163   3.933  11.911  0.00  0.00    +0.000 A 
ATOM     29  C   UNL     1       6.020   3.345  12.449  0.00  0.00    +0.000 A 
ATOM     30  C   UNL     1       5.529   3.775  13.682  0.00  0.00    +0.000 A 
ENDBRANCH  24  25
ENDBRANCH  21  24
ENDBRANCH  19  21
ENDBRANCH  18  19
ENDBRANCH   2  18
TORSDOF 6
ENDMDL
MODEL 9
REMARK VINA RESULT:      -8.3      1.792      1.892
REMARK  Name = 
REMARK  6 active torsions:
REMARK  status: ('A' for Active; 'I' for Inactive)
REMARK    1  A    between atoms: C_2  and  C_3
REMARK    2  A    between atoms: C_3  and  N_4
REMARK    3  A    between atoms: N_4  and  S_5
REMARK    4  A    between atoms: S_5  and  C_8
REMARK    5  A    between atoms: C_8  and  C_9
REMARK    6  A    between atoms: N_15  and  C_16
REMARK                            x       y       z     vdW  Elec       q    Type
REMARK                         _______ _______ _______ _____ _____    ______ ____
ROOT
ATOM      1  O   UNL     1       7.582   9.419  17.268  0.00  0.00    +0.000 OA
ATOM      2  C   UNL     1       8.156   8.739  18.110  0.00  0.00    +0.000 C 
ATOM      3  N   UNL     1       9.085   9.141  19.052  0.00  0.00    +0.000 N 
ATOM      4  H   UNL     1       9.462   8.432  19.627  0.00  0.00    +0.000 HD
ENDROOT
BRANCH   3   5
ATOM      5  C   UNL     1       9.603  10.402  19.329  0.00  0.00    +0.000 A 
ATOM      6  C   UNL     1      10.058  11.340  18.335  0.00  0.00    +0.000 A 
ATOM      7  C   UNL     1      10.567  12.625  18.710  0.00  0.00    +0.000 A 
ATOM      8  C   UNL     1      10.539  13.012  20.051  0.00  0.00    +0.000 A 
ATOM      9  C   UNL     1       9.888  12.106  20.941  0.00  0.00    +0.000 A 
ATOM     10  C   UNL     1       9.553  10.821  20.631  0.00  0.00    +0.000 A 
ATOM     11  C   UNL     1       9.225  12.909  22.056  0.00  0.00    +0.000 C 
ATOM     12  C   UNL     1       9.296  14.281  21.440  0.00  0.00    +0.000 A 
ATOM     13  C   UNL     1       8.354  15.282  21.324  0.00  0.00    +0.000 A 
ATOM     14  C   UNL     1       8.766  16.489  20.757  0.00  0.00    +0.000 A 
ATOM     15  C   UNL     1      10.116  16.673  20.415  0.00  0.00    +0.000 A 
ATOM     16  C   UNL     1      10.958  15.565  20.299  0.00  0.00    +0.000 A 
ATOM     17  C   UNL     1      10.417  14.346  20.607  0.00  0.00    +0.000 A 
ENDBRANCH   3   5
BRANCH   2  18
ATOM     18  C   UNL     1       7.860   7.218  18.201  0.00  0.00    +0.000 C 
BRANCH  18  19
ATOM     19  N   UNL     1       7.493   6.617  16.888  0.00  0.00    +0.000 NA
ATOM     20  H   UNL     1       8.334   6.559  16.299  0.00  0.00    +0.000 HD
BRANCH  19  21
ATOM     21  S   UNL     1       6.782   5.074  17.043  0.00  0.00    +0.000 S 
ATOM     22  O   UNL     1       6.566   4.598  15.707  0.00  0.00    +0.000 OA
ATOM     23  O   UNL     1       7.609   4.351  17.993  0.00  0.00    +0.000 OA
BRANCH  21  24
ATOM     24  C   UNL     1       5.194   5.486  17.797  0.00  0.00    +0.000 C 
BRANCH  24  25
ATOM     25  C   UNL     1       4.455   4.201  18.084  0.00  0.00    +0.000 A 
ATOM     26  C   UNL     1       3.477   3.733  17.196  0.00  0.00    +0.000 A 
ATOM     27  C   UNL     1       2.790   2.548  17.462  0.00  0.00    +0.000 A 
ATOM     28  C   UNL     1       3.072   1.820  18.617  0.00  0.00    +0.000 A 
ATOM     29  C   UNL     1       4.028   2.285  19.517  0.00  0.00    +0.000 A 
ATOM     30  C   UNL     1       4.717   3.470  19.255  0.00  0.00    +0.000 A 
ENDBRANCH  24  25
ENDBRANCH  21  24
ENDBRANCH  19  21
ENDBRANCH  18  19
ENDBRANCH   2  18
TORSDOF 6
ENDMDL
