MODEL 1
REMARK VINA RESULT:      -8.8      0.000      0.000
REMARK  Name = 
REMARK  5 active torsions:
REMARK  status: ('A' for Active; 'I' for Inactive)
REMARK    1  A    between atoms: C_2  and  C_3
REMARK    2  A    between atoms: C_5  and  C_6
REMARK    3  A    between atoms: N_19  and  C_20
REMARK    4  A    between atoms: N_19  and  C_27
REMARK    5  A    between atoms: C_20  and  C_21
REMARK                            x       y       z     vdW  Elec       q    Type
REMARK                         _______ _______ _______ _____ _____    ______ ____
ROOT
ATOM      1  C   UNL     1       3.748   5.974  17.628  0.00  0.00    +0.000 A 
ATOM      2  C   UNL     1       3.181   7.119  18.188  0.00  0.00    +0.000 A 
ATOM      3  C   UNL     1       2.212   7.002  19.169  0.00  0.00    +0.000 A 
ATOM      4  N   UNL     1       1.726   5.792  19.522  0.00  0.00    +0.000 NA
ATOM      5  C   UNL     1       2.171   4.686  18.902  0.00  0.00    +0.000 A 
ATOM      6  C   UNL     1       1.562   3.482  19.230  0.00  0.00    +0.000 A 
ATOM      7  C   UNL     1       1.933   2.276  18.635  0.00  0.00    +0.000 A 
ATOM      8  C   UNL     1       2.960   2.264  17.706  0.00  0.00    +0.000 A 
ATOM      9  C   UNL     1       3.601   3.458  17.373  0.00  0.00    +0.000 A 
ATOM     10  C   UNL     1       3.208   4.700  17.944  0.00  0.00    +0.000 A 
ENDROOT
BRANCH   3  11
ATOM     11  C   UNL     1       1.677   8.169  19.907  0.00  0.00    +0.000 A 
ATOM     12  C   UNL     1       1.329   9.371  19.259  0.00  0.00    +0.000 A 
ATOM     13  C   UNL     1       0.835  10.470  19.968  0.00  0.00    +0.000 A 
ATOM     14  C   UNL     1       0.673  10.394  21.347  0.00  0.00    +0.000 A 
ATOM     15  C   UNL     1       1.015   9.223  22.018  0.00  0.00    +0.000 A 
ATOM     16  C   UNL     1       1.512   8.127  21.305  0.00  0.00    +0.000 A 
ENDBRANCH   3  11
BRANCH   1  18
ATOM     17  O   UNL     1       4.583   6.754  15.587  0.00  0.00    +0.000 OA
ATOM     18  C   UNL     1       4.851   6.156  16.630  0.00  0.00    +0.000 C 
ATOM     19  N   UNL     1       6.153   5.674  16.895  0.00  0.00    +0.000 N 
BRANCH  19  20
ATOM     20  C   UNL     1       6.523   4.849  18.033  0.00  0.00    +0.000 C 
ATOM     21  C   UNL     1       6.849   5.512  19.357  0.00  0.00    +0.000 C 
ATOM     22  C   UNL     1       7.902   4.736  18.634  0.00  0.00    +0.000 C 
ENDBRANCH  19  20
BRANCH  19  23
ATOM     23  C   UNL     1       7.186   5.973  15.889  0.00  0.00    +0.000 C 
BRANCH  23  24
ATOM     24  C   UNL     1       7.107   5.151  14.619  0.00  0.00    +0.000 A 
ATOM     25  C   UNL     1       6.217   4.084  14.510  0.00  0.00    +0.000 A 
ATOM     26  C   UNL     1       6.074   3.443  13.282  0.00  0.00    +0.000 A 
ATOM     27  C   UNL     1       6.821   3.878  12.195  0.00  0.00    +0.000 A 
ATOM     28  C   UNL     1       7.699   4.930  12.387  0.00  0.00    +0.000 A 
ATOM     29  N   UNL     1       7.859   5.571  13.566  0.00  0.00    +0.000 NA
ENDBRANCH  23  24
ENDBRANCH  19  23
ENDBRANCH   1  18
TORSDOF 5
ENDMDL
MODEL 2
REMARK VINA RESULT:      -8.0      0.911      1.293
REMARK  Name = 
REMARK  5 active torsions:
REMARK  status: ('A' for Active; 'I' for Inactive)
REMARK    1  A    between atoms: C_2  and  C_3
REMARK    2  A    between atoms: C_5  and  C_6
REMARK    3  A    between atoms: N_19  and  C_20
REMARK    4  A    between atoms: N_19  and  C_27
REMARK    5  A    between atoms: C_20  and  C_21
REMARK                            x       y       z     vdW  Elec       q    Type
REMARK                         _______ _______ _______ _____ _____    ______ ____
ROOT
ATOM      1  C   UNL     1       3.422   6.291  18.429  0.00  0.00    +0.000 A 
ATOM      2  C   UNL     1       2.753   7.412  18.921  0.00  0.00    +0.000 A 
ATOM      3  C   UNL     1       1.900   7.290  20.003  0.00  0.00    +0.000 A 
ATOM      4  N   UNL     1       1.618   6.077  20.529  0.00  0.00    +0.000 NA
ATOM      5  C   UNL     1       2.155   4.972  19.987  0.00  0.00    +0.000 A 
ATOM      6  C   UNL     1       1.749   3.747  20.499  0.00  0.00    +0.000 A 
ATOM      7  C   UNL     1       2.230   2.537  20.000  0.00  0.00    +0.000 A 
ATOM      8  C   UNL     1       3.164   2.546  18.976  0.00  0.00    +0.000 A 
ATOM      9  C   UNL     1       3.602   3.765  18.456  0.00  0.00    +0.000 A 
ATOM     10  C   UNL     1       3.093   5.006  18.931  0.00  0.00    +0.000 A 
ENDROOT
BRANCH   3  11
ATOM     11  C   UNL     1       1.275   8.458  20.665  0.00  0.00    +0.000 A 
ATOM     12  C   UNL     1       0.972   8.469  22.041  0.00  0.00    +0.000 A 
ATOM     13  C   UNL     1       0.372   9.573  22.652  0.00  0.00    +0.000 A 
ATOM     14  C   UNL     1       0.059  10.701  21.900  0.00  0.00    +0.000 A 
ATOM     15  C   UNL     1       0.338  10.719  20.537  0.00  0.00    +0.000 A 
ATOM     16  C   UNL     1       0.936   9.610  19.929  0.00  0.00    +0.000 A 
ENDBRANCH   3  11
BRANCH   1  18
ATOM     17  O   UNL     1       3.992   7.066  16.298  0.00  0.00    +0.000 OA
ATOM     18  C   UNL     1       4.397   6.494  17.310  0.00  0.00    +0.000 C 
ATOM     19  N   UNL     1       5.737   6.060  17.430  0.00  0.00    +0.000 N 
BRANCH  19  20
ATOM     20  C   UNL     1       6.262   5.266  18.529  0.00  0.00    +0.000 C 
ATOM     21  C   UNL     1       7.365   5.836  19.398  0.00  0.00    +0.000 C 
ATOM     22  C   UNL     1       7.620   4.612  18.579  0.00  0.00    +0.000 C 
ENDBRANCH  19  20
BRANCH  19  23
ATOM     23  C   UNL     1       6.637   6.377  16.310  0.00  0.00    +0.000 C 
BRANCH  23  24
ATOM     24  C   UNL     1       6.609   5.390  15.161  0.00  0.00    +0.000 A 
ATOM     25  C   UNL     1       5.542   4.508  14.999  0.00  0.00    +0.000 A 
ATOM     26  C   UNL     1       5.486   3.716  13.855  0.00  0.00    +0.000 A 
ATOM     27  C   UNL     1       6.491   3.820  12.902  0.00  0.00    +0.000 A 
ATOM     28  C   UNL     1       7.529   4.702  13.145  0.00  0.00    +0.000 A 
ATOM     29  N   UNL     1       7.612   5.483  14.244  0.00  0.00    +0.000 NA
ENDBRANCH  23  24
ENDBRANCH  19  23
ENDBRANCH   1  18
TORSDOF 5
ENDMDL
MODEL 3
REMARK VINA RESULT:      -7.9      0.722      1.384
REMARK  Name = 
REMARK  5 active torsions:
REMARK  status: ('A' for Active; 'I' for Inactive)
REMARK    1  A    between atoms: C_2  and  C_3
REMARK    2  A    between atoms: C_5  and  C_6
REMARK    3  A    between atoms: N_19  and  C_20
REMARK    4  A    between atoms: N_19  and  C_27
REMARK    5  A    between atoms: C_20  and  C_21
REMARK                            x       y       z     vdW  Elec       q    Type
REMARK                         _______ _______ _______ _____ _____    ______ ____
ROOT
ATOM      1  C   UNL     1       3.914   6.047  17.245  0.00  0.00    +0.000 A 
ATOM      2  C   UNL     1       3.358   7.262  17.649  0.00  0.00    +0.000 A 
ATOM      3  C   UNL     1       2.360   7.282  18.607  0.00  0.00    +0.000 A 
ATOM      4  N   UNL     1       1.835   6.132  19.084  0.00  0.00    +0.000 NA
ATOM      5  C   UNL     1       2.270   4.951  18.612  0.00  0.00    +0.000 A 
ATOM      6  C   UNL     1       1.623   3.807  19.059  0.00  0.00    +0.000 A 
ATOM      7  C   UNL     1       1.981   2.533  18.622  0.00  0.00    +0.000 A 
ATOM      8  C   UNL     1       3.034   2.389  17.732  0.00  0.00    +0.000 A 
ATOM      9  C   UNL     1       3.713   3.523  17.282  0.00  0.00    +0.000 A 
ATOM     10  C   UNL     1       3.334   4.832  17.691  0.00  0.00    +0.000 A 
ENDROOT
BRANCH   3  11
ATOM     11  C   UNL     1       1.833   8.539  19.186  0.00  0.00    +0.000 A 
ATOM     12  C   UNL     1       1.394   8.624  20.522  0.00  0.00    +0.000 A 
ATOM     13  C   UNL     1       0.888   9.814  21.053  0.00  0.00    +0.000 A 
ATOM     14  C   UNL     1       0.809  10.953  20.260  0.00  0.00    +0.000 A 
ATOM     15  C   UNL     1       1.227  10.900  18.934  0.00  0.00    +0.000 A 
ATOM     16  C   UNL     1       1.730   9.706  18.405  0.00  0.00    +0.000 A 
ENDBRANCH   3  11
BRANCH   1  18
ATOM     17  O   UNL     1       4.844   6.629  15.180  0.00  0.00    +0.000 OA
ATOM     18  C   UNL     1       5.048   6.088  16.267  0.00  0.00    +0.000 C 
ATOM     19  N   UNL     1       6.309   5.542  16.599  0.00  0.00    +0.000 N 
BRANCH  19  20
ATOM     20  C   UNL     1       6.597   4.775  17.800  0.00  0.00    +0.000 C 
ATOM     21  C   UNL     1       6.795   5.501  19.115  0.00  0.00    +0.000 C 
ATOM     22  C   UNL     1       7.921   4.720  18.519  0.00  0.00    +0.000 C 
ENDBRANCH  19  20
BRANCH  19  23
ATOM     23  C   UNL     1       7.381   5.702  15.603  0.00  0.00    +0.000 C 
BRANCH  23  24
ATOM     24  C   UNL     1       7.123   5.043  14.264  0.00  0.00    +0.000 A 
ATOM     25  C   UNL     1       7.774   5.480  13.112  0.00  0.00    +0.000 A 
ATOM     26  C   UNL     1       7.617   4.760  11.931  0.00  0.00    +0.000 A 
ATOM     27  C   UNL     1       6.815   3.625  11.925  0.00  0.00    +0.000 A 
ATOM     28  C   UNL     1       6.184   3.268  13.102  0.00  0.00    +0.000 A 
ATOM     29  N   UNL     1       6.317   3.946  14.263  0.00  0.00    +0.000 NA
ENDBRANCH  23  24
ENDBRANCH  19  23
ENDBRANCH   1  18
TORSDOF 5
ENDMDL
MODEL 4
REMARK VINA RESULT:      -7.6      1.733      2.184
REMARK  Name = 
REMARK  5 active torsions:
REMARK  status: ('A' for Active; 'I' for Inactive)
REMARK    1  A    between atoms: C_2  and  C_3
REMARK    2  A    between atoms: C_5  and  C_6
REMARK    3  A    between atoms: N_19  and  C_20
REMARK    4  A    between atoms: N_19  and  C_27
REMARK    5  A    between atoms: C_20  and  C_21
REMARK                            x       y       z     vdW  Elec       q    Type
REMARK                         _______ _______ _______ _____ _____    ______ ____
ROOT
ATOM      1  C   UNL     1       3.984   4.749  18.700  0.00  0.00    +0.000 A 
ATOM      2  C   UNL     1       3.504   6.020  18.382  0.00  0.00    +0.000 A 
ATOM      3  C   UNL     1       2.530   6.608  19.168  0.00  0.00    +0.000 A 
ATOM      4  N   UNL     1       1.953   5.927  20.183  0.00  0.00    +0.000 NA
ATOM      5  C   UNL     1       2.313   4.655  20.424  0.00  0.00    +0.000 A 
ATOM      6  C   UNL     1       1.614   3.970  21.409  0.00  0.00    +0.000 A 
ATOM      7  C   UNL     1       1.894   2.642  21.729  0.00  0.00    +0.000 A 
ATOM      8  C   UNL     1       2.917   1.983  21.068  0.00  0.00    +0.000 A 
ATOM      9  C   UNL     1       3.647   2.656  20.086  0.00  0.00    +0.000 A 
ATOM     10  C   UNL     1       3.349   3.999  19.724  0.00  0.00    +0.000 A 
ENDROOT
BRANCH   3  11
ATOM     11  C   UNL     1       2.084   8.008  18.975  0.00  0.00    +0.000 A 
ATOM     12  C   UNL     1       2.419   8.750  17.826  0.00  0.00    +0.000 A 
ATOM     13  C   UNL     1       2.001  10.074  17.660  0.00  0.00    +0.000 A 
ATOM     14  C   UNL     1       1.233  10.690  18.642  0.00  0.00    +0.000 A 
ATOM     15  C   UNL     1       0.891   9.986  19.792  0.00  0.00    +0.000 A 
ATOM     16  C   UNL     1       1.314   8.662  19.956  0.00  0.00    +0.000 A 
ENDBRANCH   3  11
BRANCH   1  18
ATOM     17  O   UNL     1       4.936   3.077  17.371  0.00  0.00    +0.000 OA
ATOM     18  C   UNL     1       5.097   4.193  17.866  0.00  0.00    +0.000 C 
ATOM     19  N   UNL     1       6.277   4.939  17.644  0.00  0.00    +0.000 N 
BRANCH  19  20
ATOM     20  C   UNL     1       6.603   6.199  18.293  0.00  0.00    +0.000 C 
ATOM     21  C   UNL     1       6.783   7.444  17.448  0.00  0.00    +0.000 C 
ATOM     22  C   UNL     1       7.934   6.906  18.235  0.00  0.00    +0.000 C 
ENDBRANCH  19  20
BRANCH  19  23
ATOM     23  C   UNL     1       7.278   4.341  16.745  0.00  0.00    +0.000 C 
BRANCH  23  24
ATOM     24  C   UNL     1       6.976   4.470  15.266  0.00  0.00    +0.000 A 
ATOM     25  C   UNL     1       7.709   5.335  14.457  0.00  0.00    +0.000 A 
ATOM     26  C   UNL     1       7.495   5.321  13.081  0.00  0.00    +0.000 A 
ATOM     27  C   UNL     1       6.557   4.447  12.546  0.00  0.00    +0.000 A 
ATOM     28  C   UNL     1       5.853   3.634  13.416  0.00  0.00    +0.000 A 
ATOM     29  N   UNL     1       6.038   3.626  14.754  0.00  0.00    +0.000 NA
ENDBRANCH  23  24
ENDBRANCH  19  23
ENDBRANCH   1  18
TORSDOF 5
ENDMDL
MODEL 5
REMARK VINA RESULT:      -7.6      1.702      2.208
REMARK  Name = 
REMARK  5 active torsions:
REMARK  status: ('A' for Active; 'I' for Inactive)
REMARK    1  A    between atoms: C_2  and  C_3
REMARK    2  A    between atoms: C_5  and  C_6
REMARK    3  A    between atoms: N_19  and  C_20
REMARK    4  A    between atoms: N_19  and  C_27
REMARK    5  A    between atoms: C_20  and  C_21
REMARK                            x       y       z     vdW  Elec       q    Type
REMARK                         _______ _______ _______ _____ _____    ______ ____
ROOT
ATOM      1  C   UNL     1       4.016   4.749  18.828  0.00  0.00    +0.000 A 
ATOM      2  C   UNL     1       3.549   6.022  18.495  0.00  0.00    +0.000 A 
ATOM      3  C   UNL     1       2.541   6.605  19.241  0.00  0.00    +0.000 A 
ATOM      4  N   UNL     1       1.922   5.918  20.227  0.00  0.00    +0.000 NA
ATOM      5  C   UNL     1       2.273   4.646  20.477  0.00  0.00    +0.000 A 
ATOM      6  C   UNL     1       1.533   3.955  21.428  0.00  0.00    +0.000 A 
ATOM      7  C   UNL     1       1.800   2.626  21.753  0.00  0.00    +0.000 A 
ATOM      8  C   UNL     1       2.852   1.971  21.133  0.00  0.00    +0.000 A 
ATOM      9  C   UNL     1       3.622   2.649  20.188  0.00  0.00    +0.000 A 
ATOM     10  C   UNL     1       3.339   3.994  19.819  0.00  0.00    +0.000 A 
ENDROOT
BRANCH   3  11
ATOM     11  C   UNL     1       2.102   8.005  19.036  0.00  0.00    +0.000 A 
ATOM     12  C   UNL     1       1.348   8.704  19.998  0.00  0.00    +0.000 A 
ATOM     13  C   UNL     1       0.930  10.022  19.787  0.00  0.00    +0.000 A 
ATOM     14  C   UNL     1       1.260  10.676  18.605  0.00  0.00    +0.000 A 
ATOM     15  C   UNL     1       1.998  10.011  17.631  0.00  0.00    +0.000 A 
ATOM     16  C   UNL     1       2.411   8.691  17.845  0.00  0.00    +0.000 A 
ENDBRANCH   3  11
BRANCH   1  18
ATOM     17  O   UNL     1       5.073   3.041  17.629  0.00  0.00    +0.000 OA
ATOM     18  C   UNL     1       5.165   4.198  18.040  0.00  0.00    +0.000 C 
ATOM     19  N   UNL     1       6.301   4.994  17.764  0.00  0.00    +0.000 N 
BRANCH  19  20
ATOM     20  C   UNL     1       6.549   6.315  18.317  0.00  0.00    +0.000 C 
ATOM     21  C   UNL     1       6.741   7.490  17.378  0.00  0.00    +0.000 C 
ATOM     22  C   UNL     1       7.859   7.062  18.273  0.00  0.00    +0.000 C 
ENDBRANCH  19  20
BRANCH  19  23
ATOM     23  C   UNL     1       7.341   4.390  16.915  0.00  0.00    +0.000 C 
BRANCH  23  24
ATOM     24  C   UNL     1       7.047   4.401  15.429  0.00  0.00    +0.000 A 
ATOM     25  C   UNL     1       5.978   3.677  14.904  0.00  0.00    +0.000 A 
ATOM     26  C   UNL     1       5.656   3.826  13.557  0.00  0.00    +0.000 A 
ATOM     27  C   UNL     1       6.405   4.688  12.767  0.00  0.00    +0.000 A 
ATOM     28  C   UNL     1       7.465   5.355  13.356  0.00  0.00    +0.000 A 
ATOM     29  N   UNL     1       7.801   5.232  14.658  0.00  0.00    +0.000 NA
ENDBRANCH  23  24
ENDBRANCH  19  23
ENDBRANCH   1  18
TORSDOF 5
ENDMDL
MODEL 6
REMARK VINA RESULT:      -7.5      4.027      9.553
REMARK  Name = 
REMARK  5 active torsions:
REMARK  status: ('A' for Active; 'I' for Inactive)
REMARK    1  A    between atoms: C_2  and  C_3
REMARK    2  A    between atoms: C_5  and  C_6
REMARK    3  A    between atoms: N_19  and  C_20
REMARK    4  A    between atoms: N_19  and  C_27
REMARK    5  A    between atoms: C_20  and  C_21
REMARK                            x       y       z     vdW  Elec       q    Type
REMARK                         _______ _______ _______ _____ _____    ______ ____
ROOT
ATOM      1  C   UNL     1       0.543  10.425  19.345  0.00  0.00    +0.000 A 
ATOM      2  C   UNL     1       1.405   9.557  18.674  0.00  0.00    +0.000 A 
ATOM      3  C   UNL     1       1.803   8.375  19.273  0.00  0.00    +0.000 A 
ATOM      4  N   UNL     1       1.456   8.094  20.548  0.00  0.00    +0.000 NA
ATOM      5  C   UNL     1       0.732   8.979  21.255  0.00  0.00    +0.000 A 
ATOM      6  C   UNL     1       0.494   8.686  22.591  0.00  0.00    +0.000 A 
ATOM      7  C   UNL     1      -0.231   9.542  23.420  0.00  0.00    +0.000 A 
ATOM      8  C   UNL     1      -0.759  10.711  22.897  0.00  0.00    +0.000 A 
ATOM      9  C   UNL     1      -0.550  11.018  21.552  0.00  0.00    +0.000 A 
ATOM     10  C   UNL     1       0.218  10.173  20.704  0.00  0.00    +0.000 A 
ENDROOT
BRANCH   3  11
ATOM     11  C   UNL     1       2.594   7.345  18.562  0.00  0.00    +0.000 A 
ATOM     12  C   UNL     1       3.599   7.678  17.633  0.00  0.00    +0.000 A 
ATOM     13  C   UNL     1       4.331   6.696  16.960  0.00  0.00    +0.000 A 
ATOM     14  C   UNL     1       4.077   5.350  17.200  0.00  0.00    +0.000 A 
ATOM     15  C   UNL     1       3.085   4.987  18.106  0.00  0.00    +0.000 A 
ATOM     16  C   UNL     1       2.352   5.974  18.775  0.00  0.00    +0.000 A 
ENDBRANCH   3  11
BRANCH   1  18
ATOM     17  O   UNL     1      -0.996  11.584  18.021  0.00  0.00    +0.000 OA
ATOM     18  C   UNL     1       0.078  11.649  18.619  0.00  0.00    +0.000 C 
ATOM     19  N   UNL     1       0.841  12.839  18.643  0.00  0.00    +0.000 N 
BRANCH  19  20
ATOM     20  C   UNL     1       2.174  12.964  19.210  0.00  0.00    +0.000 C 
ATOM     21  C   UNL     1       2.328  13.384  20.659  0.00  0.00    +0.000 C 
ATOM     22  C   UNL     1       2.865  14.256  19.570  0.00  0.00    +0.000 C 
ENDBRANCH  19  20
BRANCH  19  23
ATOM     23  C   UNL     1       0.261  14.010  17.967  0.00  0.00    +0.000 C 
BRANCH  23  24
ATOM     24  C   UNL     1      -0.393  15.025  18.882  0.00  0.00    +0.000 A 
ATOM     25  C   UNL     1      -0.396  16.382  18.562  0.00  0.00    +0.000 A 
ATOM     26  C   UNL     1      -1.127  17.263  19.354  0.00  0.00    +0.000 A 
ATOM     27  C   UNL     1      -1.834  16.774  20.445  0.00  0.00    +0.000 A 
ATOM     28  C   UNL     1      -1.764  15.418  20.711  0.00  0.00    +0.000 A 
ATOM     29  N   UNL     1      -1.064  14.539  19.961  0.00  0.00    +0.000 NA
ENDBRANCH  23  24
ENDBRANCH  19  23
ENDBRANCH   1  18
TORSDOF 5
ENDMDL
MODEL 7
REMARK VINA RESULT:      -7.4      4.066      9.541
REMARK  Name = 
REMARK  5 active torsions:
REMARK  status: ('A' for Active; 'I' for Inactive)
REMARK    1  A    between atoms: C_2  and  C_3
REMARK    2  A    between atoms: C_5  and  C_6
REMARK    3  A    between atoms: N_19  and  C_20
REMARK    4  A    between atoms: N_19  and  C_27
REMARK    5  A    between atoms: C_20  and  C_21
REMARK                            x       y       z     vdW  Elec       q    Type
REMARK                         _______ _______ _______ _____ _____    ______ ____
ROOT
ATOM      1  C   UNL     1       0.543  10.406  19.345  0.00  0.00    +0.000 A 
ATOM      2  C   UNL     1       1.397   9.541  18.660  0.00  0.00    +0.000 A 
ATOM      3  C   UNL     1       1.804   8.359  19.252  0.00  0.00    +0.000 A 
ATOM      4  N   UNL     1       1.474   8.075  20.531  0.00  0.00    +0.000 NA
ATOM      5  C   UNL     1       0.757   8.956  21.249  0.00  0.00    +0.000 A 
ATOM      6  C   UNL     1       0.537   8.661  22.587  0.00  0.00    +0.000 A 
ATOM      7  C   UNL     1      -0.179   9.513  23.427  0.00  0.00    +0.000 A 
ATOM      8  C   UNL     1      -0.715  10.683  22.914  0.00  0.00    +0.000 A 
ATOM      9  C   UNL     1      -0.523  10.994  21.566  0.00  0.00    +0.000 A 
ATOM     10  C   UNL     1       0.236  10.152  20.707  0.00  0.00    +0.000 A 
ENDROOT
BRANCH   3  11
ATOM     11  C   UNL     1       2.587   7.331  18.528  0.00  0.00    +0.000 A 
ATOM     12  C   UNL     1       2.369   5.952  18.715  0.00  0.00    +0.000 A 
ATOM     13  C   UNL     1       3.123   4.991  18.034  0.00  0.00    +0.000 A 
ATOM     14  C   UNL     1       4.115   5.386  17.144  0.00  0.00    +0.000 A 
ATOM     15  C   UNL     1       4.360   6.741  16.943  0.00  0.00    +0.000 A 
ATOM     16  C   UNL     1       3.606   7.700  17.629  0.00  0.00    +0.000 A 
ENDBRANCH   3  11
BRANCH   1  18
ATOM     17  O   UNL     1      -1.007  11.561  18.029  0.00  0.00    +0.000 OA
ATOM     18  C   UNL     1       0.066  11.632  18.627  0.00  0.00    +0.000 C 
ATOM     19  N   UNL     1       0.820  12.828  18.659  0.00  0.00    +0.000 N 
BRANCH  19  20
ATOM     20  C   UNL     1       2.152  12.961  19.227  0.00  0.00    +0.000 C 
ATOM     21  C   UNL     1       2.303  13.364  20.680  0.00  0.00    +0.000 C 
ATOM     22  C   UNL     1       2.829  14.255  19.602  0.00  0.00    +0.000 C 
ENDBRANCH  19  20
BRANCH  19  23
ATOM     23  C   UNL     1       0.229  13.999  17.991  0.00  0.00    +0.000 C 
BRANCH  23  24
ATOM     24  C   UNL     1      -0.444  14.996  18.912  0.00  0.00    +0.000 A 
ATOM     25  C   UNL     1      -1.113  14.573  20.060  0.00  0.00    +0.000 A 
ATOM     26  C   UNL     1      -1.596  15.527  20.952  0.00  0.00    +0.000 A 
ATOM     27  C   UNL     1      -1.402  16.875  20.680  0.00  0.00    +0.000 A 
ATOM     28  C   UNL     1      -0.748  17.216  19.510  0.00  0.00    +0.000 A 
ATOM     29  N   UNL     1      -0.269  16.315  18.626  0.00  0.00    +0.000 NA
ENDBRANCH  23  24
ENDBRANCH  19  23
ENDBRANCH   1  18
TORSDOF 5
ENDMDL
MODEL 8
REMARK VINA RESULT:      -7.4      1.333      2.086
REMARK  Name = 
REMARK  5 active torsions:
REMARK  status: ('A' for Active; 'I' for Inactive)
REMARK    1  A    between atoms: C_2  and  C_3
REMARK    2  A    between atoms: C_5  and  C_6
REMARK    3  A    between atoms: N_19  and  C_20
REMARK    4  A    between atoms: N_19  and  C_27
REMARK    5  A    between atoms: C_20  and  C_21
REMARK                            x       y       z     vdW  Elec       q    Type
REMARK                         _______ _______ _______ _____ _____    ______ ____
ROOT
ATOM      1  C   UNL     1       3.970   5.026  18.971  0.00  0.00    +0.000 A 
ATOM      2  C   UNL     1       3.496   6.314  19.224  0.00  0.00    +0.000 A 
ATOM      3  C   UNL     1       2.265   6.491  19.830  0.00  0.00    +0.000 A 
ATOM      4  N   UNL     1       1.461   5.435  20.086  0.00  0.00    +0.000 NA
ATOM      5  C   UNL     1       1.848   4.198  19.732  0.00  0.00    +0.000 A 
ATOM      6  C   UNL     1       0.939   3.166  19.923  0.00  0.00    +0.000 A 
ATOM      7  C   UNL     1       1.230   1.848  19.576  0.00  0.00    +0.000 A 
ATOM      8  C   UNL     1       2.473   1.541  19.047  0.00  0.00    +0.000 A 
ATOM      9  C   UNL     1       3.411   2.558  18.863  0.00  0.00    +0.000 A 
ATOM     10  C   UNL     1       3.115   3.913  19.179  0.00  0.00    +0.000 A 
ENDROOT
BRANCH   3  11
ATOM     11  C   UNL     1       1.769   7.819  20.259  0.00  0.00    +0.000 A 
ATOM     12  C   UNL     1       1.483   8.114  21.607  0.00  0.00    +0.000 A 
ATOM     13  C   UNL     1       1.005   9.368  21.998  0.00  0.00    +0.000 A 
ATOM     14  C   UNL     1       0.801  10.363  21.048  0.00  0.00    +0.000 A 
ATOM     15  C   UNL     1       1.066  10.100  19.707  0.00  0.00    +0.000 A 
ATOM     16  C   UNL     1       1.542   8.843  19.320  0.00  0.00    +0.000 A 
ENDBRANCH   3  11
BRANCH   1  18
ATOM     17  O   UNL     1       6.228   4.434  19.115  0.00  0.00    +0.000 OA
ATOM     18  C   UNL     1       5.344   4.889  18.389  0.00  0.00    +0.000 C 
ATOM     19  N   UNL     1       5.601   5.253  17.047  0.00  0.00    +0.000 N 
BRANCH  19  20
ATOM     20  C   UNL     1       4.654   5.916  16.166  0.00  0.00    +0.000 C 
ATOM     21  C   UNL     1       5.099   7.133  15.378  0.00  0.00    +0.000 C 
ATOM     22  C   UNL     1       4.019   7.264  16.403  0.00  0.00    +0.000 C 
ENDBRANCH  19  20
BRANCH  19  23
ATOM     23  C   UNL     1       6.963   5.006  16.545  0.00  0.00    +0.000 C 
BRANCH  23  24
ATOM     24  C   UNL     1       7.059   4.709  15.063  0.00  0.00    +0.000 A 
ATOM     25  C   UNL     1       6.203   3.790  14.458  0.00  0.00    +0.000 A 
ATOM     26  C   UNL     1       6.229   3.650  13.073  0.00  0.00    +0.000 A 
ATOM     27  C   UNL     1       7.106   4.425  12.325  0.00  0.00    +0.000 A 
ATOM     28  C   UNL     1       7.940   5.299  12.999  0.00  0.00    +0.000 A 
ATOM     29  N   UNL     1       7.938   5.457  14.341  0.00  0.00    +0.000 NA
ENDBRANCH  23  24
ENDBRANCH  19  23
ENDBRANCH   1  18
TORSDOF 5
ENDMDL
MODEL 9
REMARK VINA RESULT:      -7.3      4.309      7.433
REMARK  Name = 
REMARK  5 active torsions:
REMARK  status: ('A' for Active; 'I' for Inactive)
REMARK    1  A    between atoms: C_2  and  C_3
REMARK    2  A    between atoms: C_5  and  C_6
REMARK    3  A    between atoms: N_19  and  C_20
REMARK    4  A    between atoms: N_19  and  C_27
REMARK    5  A    between atoms: C_20  and  C_21
REMARK                            x       y       z     vdW  Elec       q    Type
REMARK                         _______ _______ _______ _____ _____    ______ ____
ROOT
ATOM      1  C   UNL     1       0.577  10.737  18.440  0.00  0.00    +0.000 A 
ATOM      2  C   UNL     1       1.158  11.991  18.631  0.00  0.00    +0.000 A 
ATOM      3  C   UNL     1       0.359  13.115  18.735  0.00  0.00    +0.000 A 
ATOM      4  N   UNL     1      -0.977  13.036  18.547  0.00  0.00    +0.000 NA
ATOM      5  C   UNL     1      -1.539  11.856  18.236  0.00  0.00    +0.000 A 
ATOM      6  C   UNL     1      -2.898  11.852  17.950  0.00  0.00    +0.000 A 
ATOM      7  C   UNL     1      -3.579  10.687  17.599  0.00  0.00    +0.000 A 
ATOM      8  C   UNL     1      -2.893   9.484  17.557  0.00  0.00    +0.000 A 
ATOM      9  C   UNL     1      -1.531   9.458  17.858  0.00  0.00    +0.000 A 
ATOM     10  C   UNL     1      -0.815  10.644  18.182  0.00  0.00    +0.000 A 
ENDROOT
BRANCH   3  11
ATOM     11  C   UNL     1       0.898  14.450  19.084  0.00  0.00    +0.000 A 
ATOM     12  C   UNL     1       0.150  15.631  18.912  0.00  0.00    +0.000 A 
ATOM     13  C   UNL     1       0.674  16.886  19.235  0.00  0.00    +0.000 A 
ATOM     14  C   UNL     1       1.965  16.992  19.740  0.00  0.00    +0.000 A 
ATOM     15  C   UNL     1       2.734  15.845  19.914  0.00  0.00    +0.000 A 
ATOM     16  C   UNL     1       2.206  14.591  19.587  0.00  0.00    +0.000 A 
ENDBRANCH   3  11
BRANCH   1  18
ATOM     17  O   UNL     1       2.115   9.327  17.384  0.00  0.00    +0.000 OA
ATOM     18  C   UNL     1       1.482   9.543  18.417  0.00  0.00    +0.000 C 
ATOM     19  N   UNL     1       1.613   8.713  19.554  0.00  0.00    +0.000 N 
BRANCH  19  20
ATOM     20  C   UNL     1       0.809   8.818  20.762  0.00  0.00    +0.000 C 
ATOM     21  C   UNL     1       0.882  10.082  21.595  0.00  0.00    +0.000 C 
ATOM     22  C   UNL     1       1.329   8.780  22.177  0.00  0.00    +0.000 C 
ENDBRANCH  19  20
BRANCH  19  23
ATOM     23  C   UNL     1       2.586   7.613  19.461  0.00  0.00    +0.000 C 
BRANCH  23  24
ATOM     24  C   UNL     1       1.984   6.226  19.359  0.00  0.00    +0.000 A 
ATOM     25  C   UNL     1       1.928   5.558  18.137  0.00  0.00    +0.000 A 
ATOM     26  C   UNL     1       1.499   4.233  18.109  0.00  0.00    +0.000 A 
ATOM     27  C   UNL     1       1.134   3.609  19.295  0.00  0.00    +0.000 A 
ATOM     28  C   UNL     1       1.196   4.345  20.464  0.00  0.00    +0.000 A 
ATOM     29  N   UNL     1       1.608   5.630  20.523  0.00  0.00    +0.000 NA
ENDBRANCH  23  24
ENDBRANCH  19  23
ENDBRANCH   1  18
TORSDOF 5
ENDMDL
