MODEL 1
REMARK VINA RESULT:      -8.4      0.000      0.000
REMARK  Name = 
REMARK  5 active torsions:
REMARK  status: ('A' for Active; 'I' for Inactive)
REMARK    1  A    between atoms: C_1  and  C_2
REMARK    2  A    between atoms: C_8  and  C_10
REMARK    3  A    between atoms: N_13  and  C_14
REMARK    4  A    between atoms: C_18  and  C_19
REMARK    5  A    between atoms: C_24  and  C_25
REMARK                            x       y       z     vdW  Elec       q    Type
REMARK                         _______ _______ _______ _____ _____    ______ ____
ROOT
ATOM      1  C   UNL     1       0.550   9.467  21.384  0.00  0.00    +0.000 A 
ATOM      2  C   UNL     1       0.581   9.304  22.787  0.00  0.00    +0.000 A 
ATOM      3  N   UNL     1      -0.067  10.258  23.446  0.00  0.00    +0.000 NA
ATOM      4  N   UNL     1      -0.594  11.048  22.477  0.00  0.00    +0.000 N 
ATOM      5  C   UNL     1      -0.195  10.625  21.200  0.00  0.00    +0.000 A 
ENDROOT
BRANCH   1  13
ATOM      6  C   UNL     1       2.993   2.607  20.648  0.00  0.00    +0.000 C 
ATOM      7  C   UNL     1       2.758   3.956  20.039  0.00  0.00    +0.000 A 
ATOM      8  C   UNL     1       3.048   4.180  18.695  0.00  0.00    +0.000 A 
ATOM      9  C   UNL     1       2.816   5.437  18.176  0.00  0.00    +0.000 A 
ATOM     10  N   UNL     1       2.325   6.460  18.901  0.00  0.00    +0.000 NA
ATOM     11  C   UNL     1       2.051   6.259  20.199  0.00  0.00    +0.000 A 
ATOM     12  N   UNL     1       1.526   7.311  20.969  0.00  0.00    +0.000 N 
ATOM     13  C   UNL     1       1.246   8.565  20.470  0.00  0.00    +0.000 C 
ATOM     14  O   UNL     1       1.570   8.995  19.367  0.00  0.00    +0.000 OA
ATOM     15  C   UNL     1       2.244   5.017  20.803  0.00  0.00    +0.000 A 
ATOM     16  H   UNL     1       1.301   7.120  21.931  0.00  0.00    +0.000 HD
ENDBRANCH   1  13
BRANCH   4  17
ATOM     17  C   UNL     1      -1.367  12.181  22.869  0.00  0.00    +0.000 A 
ATOM     18  C   UNL     1      -0.795  13.450  22.973  0.00  0.00    +0.000 A 
ATOM     19  C   UNL     1      -1.559  14.539  23.393  0.00  0.00    +0.000 A 
ATOM     20  C   UNL     1      -2.907  14.373  23.702  0.00  0.00    +0.000 A 
ATOM     21  C   UNL     1      -3.519  13.119  23.571  0.00  0.00    +0.000 A 
ATOM     22  C   UNL     1      -2.741  12.027  23.139  0.00  0.00    +0.000 A 
BRANCH  21  23
ATOM     23  C   UNL     1      -4.984  12.945  23.896  0.00  0.00    +0.000 C 
ATOM     24  F   UNL     1      -5.206  12.098  24.943  0.00  0.00    +0.000 F 
ATOM     25  F   UNL     1      -5.593  14.114  24.233  0.00  0.00    +0.000 F 
ATOM     26  F   UNL     1      -5.696  12.433  22.854  0.00  0.00    +0.000 F 
ENDBRANCH  21  23
ENDBRANCH   4  17
BRANCH   5  27
ATOM     27  C   UNL     1      -0.406  11.387  19.894  0.00  0.00    +0.000 C 
ATOM     28  C   UNL     1      -1.671  12.112  19.538  0.00  0.00    +0.000 C 
ATOM     29  C   UNL     1      -1.337  10.813  18.858  0.00  0.00    +0.000 C 
ENDBRANCH   5  27
TORSDOF 4
ENDMDL
MODEL 2
REMARK VINA RESULT:      -8.2      5.706     10.337
REMARK  Name = 
REMARK  5 active torsions:
REMARK  status: ('A' for Active; 'I' for Inactive)
REMARK    1  A    between atoms: C_1  and  C_2
REMARK    2  A    between atoms: C_8  and  C_10
REMARK    3  A    between atoms: N_13  and  C_14
REMARK    4  A    between atoms: C_18  and  C_19
REMARK    5  A    between atoms: C_24  and  C_25
REMARK                            x       y       z     vdW  Elec       q    Type
REMARK                         _______ _______ _______ _____ _____    ______ ____
ROOT
ATOM      1  C   UNL     1       1.723   8.288  19.707  0.00  0.00    +0.000 A 
ATOM      2  C   UNL     1       2.107   8.879  18.482  0.00  0.00    +0.000 A 
ATOM      3  N   UNL     1       2.800   8.064  17.695  0.00  0.00    +0.000 NA
ATOM      4  N   UNL     1       2.840   6.887  18.367  0.00  0.00    +0.000 N 
ATOM      5  C   UNL     1       2.235   6.998  19.629  0.00  0.00    +0.000 A 
ENDROOT
BRANCH   1  13
ATOM      6  C   UNL     1      -3.090  13.693  20.798  0.00  0.00    +0.000 C 
ATOM      7  C   UNL     1      -2.269  12.573  21.364  0.00  0.00    +0.000 A 
ATOM      8  C   UNL     1      -2.376  12.236  22.712  0.00  0.00    +0.000 A 
ATOM      9  C   UNL     1      -1.603  11.198  23.190  0.00  0.00    +0.000 A 
ATOM     10  N   UNL     1      -0.748  10.495  22.423  0.00  0.00    +0.000 NA
ATOM     11  C   UNL     1      -0.629  10.817  21.125  0.00  0.00    +0.000 A 
ATOM     12  N   UNL     1       0.247  10.086  20.306  0.00  0.00    +0.000 N 
ATOM     13  C   UNL     1       1.003   9.020  20.745  0.00  0.00    +0.000 C 
ATOM     14  O   UNL     1       1.159   8.675  21.912  0.00  0.00    +0.000 OA
ATOM     15  C   UNL     1      -1.381  11.844  20.556  0.00  0.00    +0.000 A 
ATOM     16  H   UNL     1       0.291  10.331  19.331  0.00  0.00    +0.000 HD
ENDBRANCH   1  13
BRANCH   4  17
ATOM     17  C   UNL     1       3.523   5.786  17.771  0.00  0.00    +0.000 A 
ATOM     18  C   UNL     1       2.854   4.605  17.445  0.00  0.00    +0.000 A 
ATOM     19  C   UNL     1       3.547   3.526  16.897  0.00  0.00    +0.000 A 
ATOM     20  C   UNL     1       4.915   3.621  16.654  0.00  0.00    +0.000 A 
ATOM     21  C   UNL     1       5.608   4.807  16.935  0.00  0.00    +0.000 A 
ATOM     22  C   UNL     1       4.898   5.893  17.482  0.00  0.00    +0.000 A 
BRANCH  21  23
ATOM     23  C   UNL     1       7.090   4.910  16.661  0.00  0.00    +0.000 C 
ATOM     24  F   UNL     1       7.557   6.192  16.702  0.00  0.00    +0.000 F 
ATOM     25  F   UNL     1       7.843   4.216  17.556  0.00  0.00    +0.000 F 
ATOM     26  F   UNL     1       7.431   4.436  15.430  0.00  0.00    +0.000 F 
ENDBRANCH  21  23
ENDBRANCH   4  17
BRANCH   5  27
ATOM     27  C   UNL     1       2.282   5.956  20.743  0.00  0.00    +0.000 C 
ATOM     28  C   UNL     1       2.807   4.561  20.569  0.00  0.00    +0.000 C 
ATOM     29  C   UNL     1       1.327   4.793  20.694  0.00  0.00    +0.000 C 
ENDBRANCH   5  27
TORSDOF 4
ENDMDL
MODEL 3
REMARK VINA RESULT:      -8.2      5.660     10.319
REMARK  Name = 
REMARK  5 active torsions:
REMARK  status: ('A' for Active; 'I' for Inactive)
REMARK    1  A    between atoms: C_1  and  C_2
REMARK    2  A    between atoms: C_8  and  C_10
REMARK    3  A    between atoms: N_13  and  C_14
REMARK    4  A    between atoms: C_18  and  C_19
REMARK    5  A    between atoms: C_24  and  C_25
REMARK                            x       y       z     vdW  Elec       q    Type
REMARK                         _______ _______ _______ _____ _____    ______ ____
ROOT
ATOM      1  C   UNL     1       1.567   8.257  19.700  0.00  0.00    +0.000 A 
ATOM      2  C   UNL     1       1.997   8.867  18.500  0.00  0.00    +0.000 A 
ATOM      3  N   UNL     1       2.742   8.072  17.740  0.00  0.00    +0.000 NA
ATOM      4  N   UNL     1       2.772   6.890  18.404  0.00  0.00    +0.000 N 
ATOM      5  C   UNL     1       2.106   6.978  19.636  0.00  0.00    +0.000 A 
ENDROOT
BRANCH   1  13
ATOM      6  C   UNL     1      -0.242  14.937  22.084  0.00  0.00    +0.000 C 
ATOM      7  C   UNL     1      -0.429  13.452  22.167  0.00  0.00    +0.000 A 
ATOM      8  C   UNL     1      -1.387  12.912  23.022  0.00  0.00    +0.000 A 
ATOM      9  C   UNL     1      -1.526  11.540  23.065  0.00  0.00    +0.000 A 
ATOM     10  N   UNL     1      -0.782  10.695  22.326  0.00  0.00    +0.000 NA
ATOM     11  C   UNL     1       0.150  11.203  21.506  0.00  0.00    +0.000 A 
ATOM     12  N   UNL     1       0.926  10.338  20.717  0.00  0.00    +0.000 N 
ATOM     13  C   UNL     1       0.784   8.967  20.709  0.00  0.00    +0.000 C 
ATOM     14  O   UNL     1       0.112   8.304  21.492  0.00  0.00    +0.000 OA
ATOM     15  C   UNL     1       0.350  12.578  21.391  0.00  0.00    +0.000 A 
ATOM     16  H   UNL     1       1.595  10.751  20.089  0.00  0.00    +0.000 HD
ENDBRANCH   1  13
BRANCH   4  17
ATOM     17  C   UNL     1       3.504   5.807  17.832  0.00  0.00    +0.000 A 
ATOM     18  C   UNL     1       2.869   4.626  17.443  0.00  0.00    +0.000 A 
ATOM     19  C   UNL     1       3.607   3.564  16.920  0.00  0.00    +0.000 A 
ATOM     20  C   UNL     1       4.987   3.677  16.766  0.00  0.00    +0.000 A 
ATOM     21  C   UNL     1       5.648   4.865  17.111  0.00  0.00    +0.000 A 
ATOM     22  C   UNL     1       4.893   5.933  17.633  0.00  0.00    +0.000 A 
BRANCH  21  23
ATOM     23  C   UNL     1       7.142   4.988  16.933  0.00  0.00    +0.000 C 
ATOM     24  F   UNL     1       7.581   4.526  15.726  0.00  0.00    +0.000 F 
ATOM     25  F   UNL     1       7.580   6.273  17.015  0.00  0.00    +0.000 F 
ATOM     26  F   UNL     1       7.842   4.288  17.869  0.00  0.00    +0.000 F 
ENDBRANCH  21  23
ENDBRANCH   4  17
BRANCH   5  27
ATOM     27  C   UNL     1       2.120   5.927  20.743  0.00  0.00    +0.000 C 
ATOM     28  C   UNL     1       2.734   4.565  20.602  0.00  0.00    +0.000 C 
ATOM     29  C   UNL     1       1.238   4.714  20.607  0.00  0.00    +0.000 C 
ENDBRANCH   5  27
TORSDOF 4
ENDMDL
MODEL 4
REMARK VINA RESULT:      -8.0      8.091     10.388
REMARK  Name = 
REMARK  5 active torsions:
REMARK  status: ('A' for Active; 'I' for Inactive)
REMARK    1  A    between atoms: C_1  and  C_2
REMARK    2  A    between atoms: C_8  and  C_10
REMARK    3  A    between atoms: N_13  and  C_14
REMARK    4  A    between atoms: C_18  and  C_19
REMARK    5  A    between atoms: C_24  and  C_25
REMARK                            x       y       z     vdW  Elec       q    Type
REMARK                         _______ _______ _______ _____ _____    ______ ____
ROOT
ATOM      1  C   UNL     1       7.399   6.886  18.330  0.00  0.00    +0.000 A 
ATOM      2  C   UNL     1       7.961   5.876  19.143  0.00  0.00    +0.000 A 
ATOM      3  N   UNL     1       7.137   4.860  19.372  0.00  0.00    +0.000 NA
ATOM      4  N   UNL     1       6.021   5.156  18.659  0.00  0.00    +0.000 N 
ATOM      5  C   UNL     1       6.123   6.415  18.048  0.00  0.00    +0.000 A 
ENDROOT
BRANCH   1  13
ATOM      6  C   UNL     1      10.517  12.822  21.266  0.00  0.00    +0.000 C 
ATOM      7  C   UNL     1      10.234  11.991  20.051  0.00  0.00    +0.000 A 
ATOM      8  C   UNL     1      10.772  12.346  18.816  0.00  0.00    +0.000 A 
ATOM      9  C   UNL     1      10.486  11.552  17.725  0.00  0.00    +0.000 A 
ATOM     10  N   UNL     1       9.711  10.452  17.790  0.00  0.00    +0.000 NA
ATOM     11  C   UNL     1       9.180  10.105  18.972  0.00  0.00    +0.000 A 
ATOM     12  N   UNL     1       8.381   8.954  19.062  0.00  0.00    +0.000 N 
ATOM     13  C   UNL     1       8.109   8.119  17.999  0.00  0.00    +0.000 C 
ATOM     14  O   UNL     1       8.362   8.343  16.820  0.00  0.00    +0.000 OA
ATOM     15  C   UNL     1       9.426  10.844  20.129  0.00  0.00    +0.000 A 
ATOM     16  H   UNL     1       8.022   8.702  19.969  0.00  0.00    +0.000 HD
ENDBRANCH   1  13
BRANCH   4  17
ATOM     17  C   UNL     1       4.929   4.238  18.694  0.00  0.00    +0.000 A 
ATOM     18  C   UNL     1       4.735   3.300  17.678  0.00  0.00    +0.000 A 
ATOM     19  C   UNL     1       3.640   2.436  17.712  0.00  0.00    +0.000 A 
ATOM     20  C   UNL     1       2.735   2.491  18.769  0.00  0.00    +0.000 A 
ATOM     21  C   UNL     1       2.924   3.396  19.823  0.00  0.00    +0.000 A 
ATOM     22  C   UNL     1       4.036   4.260  19.784  0.00  0.00    +0.000 A 
BRANCH  21  23
ATOM     23  C   UNL     1       1.946   3.445  20.973  0.00  0.00    +0.000 C 
ATOM     24  F   UNL     1       0.689   3.819  20.596  0.00  0.00    +0.000 F 
ATOM     25  F   UNL     1       1.801   2.244  21.596  0.00  0.00    +0.000 F 
ATOM     26  F   UNL     1       2.316   4.331  21.940  0.00  0.00    +0.000 F 
ENDBRANCH  21  23
ENDBRANCH   4  17
BRANCH   5  27
ATOM     27  C   UNL     1       4.993   7.172  17.355  0.00  0.00    +0.000 C 
ATOM     28  C   UNL     1       3.612   6.621  17.150  0.00  0.00    +0.000 C 
ATOM     29  C   UNL     1       4.554   6.731  15.984  0.00  0.00    +0.000 C 
ENDBRANCH   5  27
TORSDOF 4
ENDMDL
MODEL 5
REMARK VINA RESULT:      -7.8      5.028      9.250
REMARK  Name = 
REMARK  5 active torsions:
REMARK  status: ('A' for Active; 'I' for Inactive)
REMARK    1  A    between atoms: C_1  and  C_2
REMARK    2  A    between atoms: C_8  and  C_10
REMARK    3  A    between atoms: N_13  and  C_14
REMARK    4  A    between atoms: C_18  and  C_19
REMARK    5  A    between atoms: C_24  and  C_25
REMARK                            x       y       z     vdW  Elec       q    Type
REMARK                         _______ _______ _______ _____ _____    ______ ____
ROOT
ATOM      1  C   UNL     1       1.446   9.365  18.877  0.00  0.00    +0.000 A 
ATOM      2  C   UNL     1       2.161   9.094  17.689  0.00  0.00    +0.000 A 
ATOM      3  N   UNL     1       2.756   7.907  17.687  0.00  0.00    +0.000 NA
ATOM      4  N   UNL     1       2.395   7.339  18.865  0.00  0.00    +0.000 N 
ATOM      5  C   UNL     1       1.634   8.222  19.646  0.00  0.00    +0.000 A 
ENDROOT
BRANCH   1  13
ATOM      6  C   UNL     1       2.469  16.606  19.174  0.00  0.00    +0.000 C 
ATOM      7  C   UNL     1       1.524  15.442  19.206  0.00  0.00    +0.000 A 
ATOM      8  C   UNL     1       0.150  15.655  19.289  0.00  0.00    +0.000 A 
ATOM      9  C   UNL     1      -0.683  14.555  19.315  0.00  0.00    +0.000 A 
ATOM     10  N   UNL     1      -0.236  13.286  19.267  0.00  0.00    +0.000 NA
ATOM     11  C   UNL     1       1.086  13.068  19.197  0.00  0.00    +0.000 A 
ATOM     12  N   UNL     1       1.570  11.750  19.132  0.00  0.00    +0.000 N 
ATOM     13  C   UNL     1       0.763  10.633  19.116  0.00  0.00    +0.000 C 
ATOM     14  O   UNL     1      -0.445  10.609  19.332  0.00  0.00    +0.000 OA
ATOM     15  C   UNL     1       1.999  14.121  19.154  0.00  0.00    +0.000 A 
ATOM     16  H   UNL     1       2.564  11.621  19.048  0.00  0.00    +0.000 HD
ENDBRANCH   1  13
BRANCH   4  17
ATOM     17  C   UNL     1       2.879   6.032  19.166  0.00  0.00    +0.000 A 
ATOM     18  C   UNL     1       4.247   5.748  19.179  0.00  0.00    +0.000 A 
ATOM     19  C   UNL     1       4.699   4.455  19.439  0.00  0.00    +0.000 A 
ATOM     20  C   UNL     1       3.790   3.433  19.702  0.00  0.00    +0.000 A 
ATOM     21  C   UNL     1       2.413   3.694  19.734  0.00  0.00    +0.000 A 
ATOM     22  C   UNL     1       1.966   5.005  19.477  0.00  0.00    +0.000 A 
BRANCH  21  23
ATOM     23  C   UNL     1       1.431   2.586  20.031  0.00  0.00    +0.000 C 
ATOM     24  F   UNL     1       1.777   1.394  19.465  0.00  0.00    +0.000 F 
ATOM     25  F   UNL     1       1.301   2.337  21.362  0.00  0.00    +0.000 F 
ATOM     26  F   UNL     1       0.177   2.859  19.572  0.00  0.00    +0.000 F 
ENDBRANCH  21  23
ENDBRANCH   4  17
BRANCH   5  27
ATOM     27  C   UNL     1       1.239   8.018  21.106  0.00  0.00    +0.000 C 
ATOM     28  C   UNL     1       0.004   8.598  21.732  0.00  0.00    +0.000 C 
ATOM     29  C   UNL     1       1.352   9.177  22.060  0.00  0.00    +0.000 C 
ENDBRANCH   5  27
TORSDOF 4
ENDMDL
MODEL 6
REMARK VINA RESULT:      -7.7      1.834      2.417
REMARK  Name = 
REMARK  5 active torsions:
REMARK  status: ('A' for Active; 'I' for Inactive)
REMARK    1  A    between atoms: C_1  and  C_2
REMARK    2  A    between atoms: C_8  and  C_10
REMARK    3  A    between atoms: N_13  and  C_14
REMARK    4  A    between atoms: C_18  and  C_19
REMARK    5  A    between atoms: C_24  and  C_25
REMARK                            x       y       z     vdW  Elec       q    Type
REMARK                         _______ _______ _______ _____ _____    ______ ____
ROOT
ATOM      1  C   UNL     1       0.663   9.372  21.292  0.00  0.00    +0.000 A 
ATOM      2  C   UNL     1       0.776   9.209  22.691  0.00  0.00    +0.000 A 
ATOM      3  N   UNL     1       0.114  10.128  23.386  0.00  0.00    +0.000 NA
ATOM      4  N   UNL     1      -0.503  10.890  22.449  0.00  0.00    +0.000 N 
ATOM      5  C   UNL     1      -0.149  10.490  21.151  0.00  0.00    +0.000 A 
ENDROOT
BRANCH   1  13
ATOM      6  C   UNL     1       3.295   2.607  20.354  0.00  0.00    +0.000 C 
ATOM      7  C   UNL     1       2.998   3.958  19.777  0.00  0.00    +0.000 A 
ATOM      8  C   UNL     1       3.236   4.214  18.428  0.00  0.00    +0.000 A 
ATOM      9  C   UNL     1       2.947   5.471  17.940  0.00  0.00    +0.000 A 
ATOM     10  N   UNL     1       2.449   6.466  18.699  0.00  0.00    +0.000 NA
ATOM     11  C   UNL     1       2.224   6.234  20.002  0.00  0.00    +0.000 A 
ATOM     12  N   UNL     1       1.692   7.255  20.806  0.00  0.00    +0.000 N 
ATOM     13  C   UNL     1       1.356   8.508  20.339  0.00  0.00    +0.000 C 
ATOM     14  O   UNL     1       1.630   8.966  19.235  0.00  0.00    +0.000 OA
ATOM     15  C   UNL     1       2.477   4.989  20.576  0.00  0.00    +0.000 A 
ATOM     16  H   UNL     1       1.505   7.041  21.772  0.00  0.00    +0.000 HD
ENDBRANCH   1  13
BRANCH   4  17
ATOM     17  C   UNL     1      -1.312  11.981  22.885  0.00  0.00    +0.000 A 
ATOM     18  C   UNL     1      -2.632  11.786  23.299  0.00  0.00    +0.000 A 
ATOM     19  C   UNL     1      -3.419  12.871  23.687  0.00  0.00    +0.000 A 
ATOM     20  C   UNL     1      -2.891  14.160  23.678  0.00  0.00    +0.000 A 
ATOM     21  C   UNL     1      -1.559  14.382  23.304  0.00  0.00    +0.000 A 
ATOM     22  C   UNL     1      -0.770  13.280  22.920  0.00  0.00    +0.000 A 
BRANCH  21  23
ATOM     23  C   UNL     1      -0.987  15.780  23.305  0.00  0.00    +0.000 C 
ATOM     24  F   UNL     1      -0.023  15.968  22.357  0.00  0.00    +0.000 F 
ATOM     25  F   UNL     1      -1.926  16.736  23.068  0.00  0.00    +0.000 F 
ATOM     26  F   UNL     1      -0.403  16.107  24.491  0.00  0.00    +0.000 F 
ENDBRANCH  21  23
ENDBRANCH   4  17
BRANCH   5  27
ATOM     27  C   UNL     1      -0.469  11.241  19.861  0.00  0.00    +0.000 C 
ATOM     28  C   UNL     1      -1.793  11.882  19.566  0.00  0.00    +0.000 C 
ATOM     29  C   UNL     1      -1.405  10.611  18.864  0.00  0.00    +0.000 C 
ENDBRANCH   5  27
TORSDOF 4
ENDMDL
MODEL 7
REMARK VINA RESULT:      -7.7      4.438      9.133
REMARK  Name = 
REMARK  5 active torsions:
REMARK  status: ('A' for Active; 'I' for Inactive)
REMARK    1  A    between atoms: C_1  and  C_2
REMARK    2  A    between atoms: C_8  and  C_10
REMARK    3  A    between atoms: N_13  and  C_14
REMARK    4  A    between atoms: C_18  and  C_19
REMARK    5  A    between atoms: C_24  and  C_25
REMARK                            x       y       z     vdW  Elec       q    Type
REMARK                         _______ _______ _______ _____ _____    ______ ____
ROOT
ATOM      1  C   UNL     1       1.213   9.961  19.095  0.00  0.00    +0.000 A 
ATOM      2  C   UNL     1       1.849   9.990  17.834  0.00  0.00    +0.000 A 
ATOM      3  N   UNL     1       2.419   8.838  17.502  0.00  0.00    +0.000 NA
ATOM      4  N   UNL     1       2.119   7.998  18.524  0.00  0.00    +0.000 N 
ATOM      5  C   UNL     1       1.424   8.664  19.545  0.00  0.00    +0.000 A 
ENDROOT
BRANCH   1  13
ATOM      6  C   UNL     1      -5.269  13.210  20.093  0.00  0.00    +0.000 C 
ATOM      7  C   UNL     1      -3.796  13.175  20.370  0.00  0.00    +0.000 A 
ATOM      8  C   UNL     1      -3.224  14.102  21.239  0.00  0.00    +0.000 A 
ATOM      9  C   UNL     1      -1.865  14.032  21.466  0.00  0.00    +0.000 A 
ATOM     10  N   UNL     1      -1.062  13.117  20.890  0.00  0.00    +0.000 NA
ATOM     11  C   UNL     1      -1.601  12.226  20.045  0.00  0.00    +0.000 A 
ATOM     12  N   UNL     1      -0.782  11.254  19.445  0.00  0.00    +0.000 N 
ATOM     13  C   UNL     1       0.571  11.135  19.682  0.00  0.00    +0.000 C 
ATOM     14  O   UNL     1       1.274  11.938  20.286  0.00  0.00    +0.000 OA
ATOM     15  C   UNL     1      -2.967  12.216  19.767  0.00  0.00    +0.000 A 
ATOM     16  H   UNL     1      -1.220  10.580  18.841  0.00  0.00    +0.000 HD
ENDBRANCH   1  13
BRANCH   4  17
ATOM     17  C   UNL     1       2.594   6.654  18.462  0.00  0.00    +0.000 A 
ATOM     18  C   UNL     1       3.814   6.342  17.859  0.00  0.00    +0.000 A 
ATOM     19  C   UNL     1       4.244   5.018  17.776  0.00  0.00    +0.000 A 
ATOM     20  C   UNL     1       3.465   3.992  18.306  0.00  0.00    +0.000 A 
ATOM     21  C   UNL     1       2.254   4.277  18.951  0.00  0.00    +0.000 A 
ATOM     22  C   UNL     1       1.831   5.618  19.036  0.00  0.00    +0.000 A 
BRANCH  21  23
ATOM     23  C   UNL     1       1.417   3.164  19.534  0.00  0.00    +0.000 C 
ATOM     24  F   UNL     1       0.559   2.605  18.631  0.00  0.00    +0.000 F 
ATOM     25  F   UNL     1       2.166   2.135  20.014  0.00  0.00    +0.000 F 
ATOM     26  F   UNL     1       0.637   3.580  20.570  0.00  0.00    +0.000 F 
ENDBRANCH  21  23
ENDBRANCH   4  17
BRANCH   5  27
ATOM     27  C   UNL     1       1.114   8.107  20.932  0.00  0.00    +0.000 C 
ATOM     28  C   UNL     1      -0.031   8.566  21.787  0.00  0.00    +0.000 C 
ATOM     29  C   UNL     1       1.374   8.969  22.139  0.00  0.00    +0.000 C 
ENDBRANCH   5  27
TORSDOF 4
ENDMDL
MODEL 8
REMARK VINA RESULT:      -7.7      4.456      9.033
REMARK  Name = 
REMARK  5 active torsions:
REMARK  status: ('A' for Active; 'I' for Inactive)
REMARK    1  A    between atoms: C_1  and  C_2
REMARK    2  A    between atoms: C_8  and  C_10
REMARK    3  A    between atoms: N_13  and  C_14
REMARK    4  A    between atoms: C_18  and  C_19
REMARK    5  A    between atoms: C_24  and  C_25
REMARK                            x       y       z     vdW  Elec       q    Type
REMARK                         _______ _______ _______ _____ _____    ______ ____
ROOT
ATOM      1  C   UNL     1       1.129   9.704  19.131  0.00  0.00    +0.000 A 
ATOM      2  C   UNL     1       1.826   9.630  17.904  0.00  0.00    +0.000 A 
ATOM      3  N   UNL     1       2.512   8.504  17.751  0.00  0.00    +0.000 NA
ATOM      4  N   UNL     1       2.234   7.777  18.862  0.00  0.00    +0.000 N 
ATOM      5  C   UNL     1       1.430   8.500  19.757  0.00  0.00    +0.000 A 
ENDROOT
BRANCH   1  13
ATOM      6  C   UNL     1      -5.634  12.499  19.260  0.00  0.00    +0.000 C 
ATOM      7  C   UNL     1      -4.191  12.615  19.650  0.00  0.00    +0.000 A 
ATOM      8  C   UNL     1      -3.763  13.673  20.449  0.00  0.00    +0.000 A 
ATOM      9  C   UNL     1      -2.426  13.740  20.785  0.00  0.00    +0.000 A 
ATOM     10  N   UNL     1      -1.513  12.837  20.379  0.00  0.00    +0.000 NA
ATOM     11  C   UNL     1      -1.912  11.819  19.601  0.00  0.00    +0.000 A 
ATOM     12  N   UNL     1      -0.977  10.859  19.180  0.00  0.00    +0.000 N 
ATOM     13  C   UNL     1       0.356  10.877  19.531  0.00  0.00    +0.000 C 
ATOM     14  O   UNL     1       0.945  11.795  20.091  0.00  0.00    +0.000 OA
ATOM     15  C   UNL     1      -3.246  11.667  19.224  0.00  0.00    +0.000 A 
ATOM     16  H   UNL     1      -1.313  10.090  18.624  0.00  0.00    +0.000 HD
ENDBRANCH   1  13
BRANCH   4  17
ATOM     17  C   UNL     1       2.828   6.488  18.998  0.00  0.00    +0.000 A 
ATOM     18  C   UNL     1       4.046   6.181  18.386  0.00  0.00    +0.000 A 
ATOM     19  C   UNL     1       4.593   4.903  18.501  0.00  0.00    +0.000 A 
ATOM     20  C   UNL     1       3.936   3.921  19.239  0.00  0.00    +0.000 A 
ATOM     21  C   UNL     1       2.732   4.210  19.897  0.00  0.00    +0.000 A 
ATOM     22  C   UNL     1       2.190   5.505  19.781  0.00  0.00    +0.000 A 
BRANCH  21  23
ATOM     23  C   UNL     1       2.028   3.147  20.706  0.00  0.00    +0.000 C 
ATOM     24  F   UNL     1       2.717   2.777  21.824  0.00  0.00    +0.000 F 
ATOM     25  F   UNL     1       0.801   3.542  21.144  0.00  0.00    +0.000 F 
ATOM     26  F   UNL     1       1.827   1.998  20.002  0.00  0.00    +0.000 F 
ENDBRANCH  21  23
ENDBRANCH   4  17
BRANCH   5  27
ATOM     27  C   UNL     1       1.098   8.099  21.192  0.00  0.00    +0.000 C 
ATOM     28  C   UNL     1      -0.033   8.680  21.988  0.00  0.00    +0.000 C 
ATOM     29  C   UNL     1       1.383   9.073  22.305  0.00  0.00    +0.000 C 
ENDBRANCH   5  27
TORSDOF 4
ENDMDL
MODEL 9
REMARK VINA RESULT:      -7.7      4.794      9.320
REMARK  Name = 
REMARK  5 active torsions:
REMARK  status: ('A' for Active; 'I' for Inactive)
REMARK    1  A    between atoms: C_1  and  C_2
REMARK    2  A    between atoms: C_8  and  C_10
REMARK    3  A    between atoms: N_13  and  C_14
REMARK    4  A    between atoms: C_18  and  C_19
REMARK    5  A    between atoms: C_24  and  C_25
REMARK                            x       y       z     vdW  Elec       q    Type
REMARK                         _______ _______ _______ _____ _____    ______ ____
ROOT
ATOM      1  C   UNL     1       1.249   9.569  18.959  0.00  0.00    +0.000 A 
ATOM      2  C   UNL     1       1.949   9.520  17.732  0.00  0.00    +0.000 A 
ATOM      3  N   UNL     1       2.638   8.398  17.559  0.00  0.00    +0.000 NA
ATOM      4  N   UNL     1       2.359   7.650  18.656  0.00  0.00    +0.000 N 
ATOM      5  C   UNL     1       1.552   8.354  19.563  0.00  0.00    +0.000 A 
ENDROOT
BRANCH   1  13
ATOM      6  C   UNL     1      -5.525  12.332  19.156  0.00  0.00    +0.000 C 
ATOM      7  C   UNL     1      -4.081  12.448  19.542  0.00  0.00    +0.000 A 
ATOM      8  C   UNL     1      -3.654  13.497  20.354  0.00  0.00    +0.000 A 
ATOM      9  C   UNL     1      -2.317  13.564  20.686  0.00  0.00    +0.000 A 
ATOM     10  N   UNL     1      -1.401  12.672  20.263  0.00  0.00    +0.000 NA
ATOM     11  C   UNL     1      -1.799  11.663  19.472  0.00  0.00    +0.000 A 
ATOM     12  N   UNL     1      -0.861  10.714  19.033  0.00  0.00    +0.000 N 
ATOM     13  C   UNL     1       0.473  10.732  19.379  0.00  0.00    +0.000 C 
ATOM     14  O   UNL     1       1.060  11.645  19.950  0.00  0.00    +0.000 OA
ATOM     15  C   UNL     1      -3.134  11.511  19.098  0.00  0.00    +0.000 A 
ATOM     16  H   UNL     1      -1.196   9.952  18.468  0.00  0.00    +0.000 HD
ENDBRANCH   1  13
BRANCH   4  17
ATOM     17  C   UNL     1       2.956   6.359  18.769  0.00  0.00    +0.000 A 
ATOM     18  C   UNL     1       4.314   6.210  19.057  0.00  0.00    +0.000 A 
ATOM     19  C   UNL     1       4.887   4.940  19.127  0.00  0.00    +0.000 A 
ATOM     20  C   UNL     1       4.106   3.805  18.923  0.00  0.00    +0.000 A 
ATOM     21  C   UNL     1       2.732   3.921  18.670  0.00  0.00    +0.000 A 
ATOM     22  C   UNL     1       2.161   5.207  18.608  0.00  0.00    +0.000 A 
BRANCH  21  23
ATOM     23  C   UNL     1       1.885   2.688  18.460  0.00  0.00    +0.000 C 
ATOM     24  F   UNL     1       0.564   2.969  18.268  0.00  0.00    +0.000 F 
ATOM     25  F   UNL     1       2.268   1.963  17.375  0.00  0.00    +0.000 F 
ATOM     26  F   UNL     1       1.928   1.835  19.521  0.00  0.00    +0.000 F 
ENDBRANCH  21  23
ENDBRANCH   4  17
BRANCH   5  27
ATOM     27  C   UNL     1       1.217   7.925  20.989  0.00  0.00    +0.000 C 
ATOM     28  C   UNL     1       0.024   8.414  21.757  0.00  0.00    +0.000 C 
ATOM     29  C   UNL     1       1.397   8.916  22.109  0.00  0.00    +0.000 C 
ENDBRANCH   5  27
TORSDOF 4
ENDMDL
