MODEL 1
REMARK VINA RESULT:      -8.7      0.000      0.000
REMARK  Name = 
REMARK  4 active torsions:
REMARK  status: ('A' for Active; 'I' for Inactive)
REMARK    1  A    between atoms: C_5  and  C_6
REMARK    2  A    between atoms: C_9  and  C_10
REMARK    3  A    between atoms: C_10  and  N_11
REMARK    4  A    between atoms: N_11  and  C_12
REMARK                            x       y       z     vdW  Elec       q    Type
REMARK                         _______ _______ _______ _____ _____    ______ ____
ROOT
ATOM      1  C   UNL     1       7.814   5.791  18.803  0.00  0.00    +0.000 C 
ENDROOT
BRANCH   1   5
ATOM      2  C   UNL     1       8.605   9.216  18.350  0.00  0.00    +0.000 A 
ATOM      3  N   UNL     1       7.786   9.106  17.322  0.00  0.00    +0.000 NA
ATOM      4  N   UNL     1       7.322   7.804  17.321  0.00  0.00    +0.000 NA
ATOM      5  C   UNL     1       7.894   7.210  18.349  0.00  0.00    +0.000 A 
ATOM      6  O   UNL     1       8.726   8.042  19.048  0.00  0.00    +0.000 OA
BRANCH   2  11
ATOM      7  F   UNL     1      11.342  13.727  20.213  0.00  0.00    +0.000 F 
ATOM      8  C   UNL     1      10.708  12.632  19.774  0.00  0.00    +0.000 A 
ATOM      9  C   UNL     1      10.648  12.375  18.409  0.00  0.00    +0.000 A 
ATOM     10  C   UNL     1       9.973  11.242  17.949  0.00  0.00    +0.000 A 
ATOM     11  C   UNL     1       9.348  10.365  18.852  0.00  0.00    +0.000 A 
ATOM     12  C   UNL     1       9.440  10.637  20.229  0.00  0.00    +0.000 A 
ATOM     13  C   UNL     1      10.117  11.771  20.688  0.00  0.00    +0.000 A 
ENDBRANCH   2  11
ENDBRANCH   1   5
BRANCH   1  14
ATOM     14  N   UNL     1       6.501   5.342  19.301  0.00  0.00    +0.000 N 
ATOM     15  H   UNL     1       6.089   6.057  19.894  0.00  0.00    +0.000 HD
BRANCH  14  16
ATOM     16  C   UNL     1       5.586   4.865  18.334  0.00  0.00    +0.000 A 
ATOM     17  C   UNL     1       6.047   4.363  17.103  0.00  0.00    +0.000 A 
ATOM     18  C   UNL     1       5.177   3.847  16.145  0.00  0.00    +0.000 A 
ATOM     19  C   UNL     1       3.821   3.781  16.412  0.00  0.00    +0.000 A 
ATOM     20  C   UNL     1       3.322   4.201  17.651  0.00  0.00    +0.000 A 
ATOM     21  C   UNL     1       4.200   4.747  18.624  0.00  0.00    +0.000 A 
ATOM     22  C   UNL     1       3.643   5.139  19.982  0.00  0.00    +0.000 C 
ATOM     23  C   UNL     1       2.124   5.316  20.020  0.00  0.00    +0.000 C 
ATOM     24  C   UNL     1       1.430   4.149  19.338  0.00  0.00    +0.000 C 
ATOM     25  C   UNL     1       1.831   4.101  17.871  0.00  0.00    +0.000 C 
ENDBRANCH  14  16
ENDBRANCH   1  14
TORSDOF 4
ENDMDL
MODEL 2
REMARK VINA RESULT:      -8.3      0.946      1.596
REMARK  Name = 
REMARK  4 active torsions:
REMARK  status: ('A' for Active; 'I' for Inactive)
REMARK    1  A    between atoms: C_5  and  C_6
REMARK    2  A    between atoms: C_9  and  C_10
REMARK    3  A    between atoms: C_10  and  N_11
REMARK    4  A    between atoms: N_11  and  C_12
REMARK                            x       y       z     vdW  Elec       q    Type
REMARK                         _______ _______ _______ _____ _____    ______ ____
ROOT
ATOM      1  C   UNL     1       7.843   5.873  18.993  0.00  0.00    +0.000 C 
ENDROOT
BRANCH   1   5
ATOM      2  C   UNL     1       8.663   9.259  18.344  0.00  0.00    +0.000 A 
ATOM      3  N   UNL     1       7.910   9.073  17.279  0.00  0.00    +0.000 NA
ATOM      4  N   UNL     1       7.446   7.772  17.343  0.00  0.00    +0.000 NA
ATOM      5  C   UNL     1       7.952   7.256  18.444  0.00  0.00    +0.000 A 
ATOM      6  O   UNL     1       8.740   8.139  19.132  0.00  0.00    +0.000 OA
BRANCH   2  11
ATOM      7  F   UNL     1      11.517  13.708  20.181  0.00  0.00    +0.000 F 
ATOM      8  C   UNL     1      10.813  12.660  19.736  0.00  0.00    +0.000 A 
ATOM      9  C   UNL     1      10.213  11.799  20.649  0.00  0.00    +0.000 A 
ATOM     10  C   UNL     1       9.493  10.695  20.185  0.00  0.00    +0.000 A 
ATOM     11  C   UNL     1       9.375  10.444  18.807  0.00  0.00    +0.000 A 
ATOM     12  C   UNL     1       9.975  11.341  17.906  0.00  0.00    +0.000 A 
ATOM     13  C   UNL     1      10.695  12.445  18.370  0.00  0.00    +0.000 A 
ENDBRANCH   2  11
ENDBRANCH   1   5
BRANCH   1  14
ATOM     14  N   UNL     1       7.961   4.775  18.016  0.00  0.00    +0.000 N 
ATOM     15  H   UNL     1       8.196   3.909  18.491  0.00  0.00    +0.000 HD
BRANCH  14  16
ATOM     16  C   UNL     1       6.885   4.610  17.113  0.00  0.00    +0.000 A 
ATOM     17  C   UNL     1       7.110   4.640  15.725  0.00  0.00    +0.000 A 
ATOM     18  C   UNL     1       6.080   4.441  14.807  0.00  0.00    +0.000 A 
ATOM     19  C   UNL     1       4.801   4.165  15.259  0.00  0.00    +0.000 A 
ATOM     20  C   UNL     1       4.543   4.053  16.630  0.00  0.00    +0.000 A 
ATOM     21  C   UNL     1       5.583   4.275  17.571  0.00  0.00    +0.000 A 
ATOM     22  C   UNL     1       5.291   4.088  19.050  0.00  0.00    +0.000 C 
ATOM     23  C   UNL     1       3.805   4.107  19.412  0.00  0.00    +0.000 C 
ATOM     24  C   UNL     1       3.011   3.218  18.470  0.00  0.00    +0.000 C 
ATOM     25  C   UNL     1       3.123   3.749  17.048  0.00  0.00    +0.000 C 
ENDBRANCH  14  16
ENDBRANCH   1  14
TORSDOF 4
ENDMDL
MODEL 3
REMARK VINA RESULT:      -8.1      1.638      2.551
REMARK  Name = 
REMARK  4 active torsions:
REMARK  status: ('A' for Active; 'I' for Inactive)
REMARK    1  A    between atoms: C_5  and  C_6
REMARK    2  A    between atoms: C_9  and  C_10
REMARK    3  A    between atoms: C_10  and  N_11
REMARK    4  A    between atoms: N_11  and  C_12
REMARK                            x       y       z     vdW  Elec       q    Type
REMARK                         _______ _______ _______ _____ _____    ______ ____
ROOT
ATOM      1  C   UNL     1       5.506   6.708  16.382  0.00  0.00    +0.000 C 
ENDROOT
BRANCH   1   5
ATOM      2  C   UNL     1       8.022   8.514  18.105  0.00  0.00    +0.000 A 
ATOM      3  N   UNL     1       8.352   7.319  18.554  0.00  0.00    +0.000 NA
ATOM      4  N   UNL     1       7.479   6.421  17.968  0.00  0.00    +0.000 NA
ATOM      5  C   UNL     1       6.677   7.133  17.204  0.00  0.00    +0.000 A 
ATOM      6  O   UNL     1       6.957   8.473  17.243  0.00  0.00    +0.000 OA
BRANCH   2  11
ATOM      7  F   UNL     1      10.163  13.583  19.123  0.00  0.00    +0.000 F 
ATOM      8  C   UNL     1       9.674  12.363  18.868  0.00  0.00    +0.000 A 
ATOM      9  C   UNL     1       8.811  12.181  17.794  0.00  0.00    +0.000 A 
ATOM     10  C   UNL     1       8.287  10.911  17.537  0.00  0.00    +0.000 A 
ATOM     11  C   UNL     1       8.619   9.820  18.358  0.00  0.00    +0.000 A 
ATOM     12  C   UNL     1       9.509  10.028  19.427  0.00  0.00    +0.000 A 
ATOM     13  C   UNL     1      10.033  11.298  19.682  0.00  0.00    +0.000 A 
ENDBRANCH   2  11
ENDBRANCH   1   5
BRANCH   1  14
ATOM     14  N   UNL     1       4.839   5.462  16.800  0.00  0.00    +0.000 N 
ATOM     15  H   UNL     1       5.531   4.757  17.036  0.00  0.00    +0.000 HD
BRANCH  14  16
ATOM     16  C   UNL     1       3.842   5.579  17.797  0.00  0.00    +0.000 A 
ATOM     17  C   UNL     1       3.529   6.836  18.346  0.00  0.00    +0.000 A 
ATOM     18  C   UNL     1       2.525   6.994  19.300  0.00  0.00    +0.000 A 
ATOM     19  C   UNL     1       1.777   5.900  19.698  0.00  0.00    +0.000 A 
ATOM     20  C   UNL     1       2.002   4.642  19.127  0.00  0.00    +0.000 A 
ATOM     21  C   UNL     1       3.037   4.469  18.170  0.00  0.00    +0.000 A 
ATOM     22  C   UNL     1       3.221   3.109  17.521  0.00  0.00    +0.000 C 
ATOM     23  C   UNL     1       2.564   1.950  18.274  0.00  0.00    +0.000 C 
ATOM     24  C   UNL     1       1.139   2.303  18.665  0.00  0.00    +0.000 C 
ATOM     25  C   UNL     1       1.147   3.494  19.611  0.00  0.00    +0.000 C 
ENDBRANCH  14  16
ENDBRANCH   1  14
TORSDOF 4
ENDMDL
MODEL 4
REMARK VINA RESULT:      -8.1      5.317      7.198
REMARK  Name = 
REMARK  4 active torsions:
REMARK  status: ('A' for Active; 'I' for Inactive)
REMARK    1  A    between atoms: C_5  and  C_6
REMARK    2  A    between atoms: C_9  and  C_10
REMARK    3  A    between atoms: C_10  and  N_11
REMARK    4  A    between atoms: N_11  and  C_12
REMARK                            x       y       z     vdW  Elec       q    Type
REMARK                         _______ _______ _______ _____ _____    ______ ____
ROOT
ATOM      1  C   UNL     1       2.107   5.309  19.788  0.00  0.00    +0.000 C 
ENDROOT
BRANCH   1   5
ATOM      2  C   UNL     1       4.962   4.395  17.897  0.00  0.00    +0.000 A 
ATOM      3  N   UNL     1       5.306   3.777  19.009  0.00  0.00    +0.000 NA
ATOM      4  N   UNL     1       4.283   3.990  19.914  0.00  0.00    +0.000 NA
ATOM      5  C   UNL     1       3.387   4.726  19.289  0.00  0.00    +0.000 A 
ATOM      6  O   UNL     1       3.750   5.028  18.004  0.00  0.00    +0.000 OA
BRANCH   2  11
ATOM      7  F   UNL     1       7.465   4.840  12.912  0.00  0.00    +0.000 F 
ATOM      8  C   UNL     1       6.880   4.711  14.109  0.00  0.00    +0.000 A 
ATOM      9  C   UNL     1       5.571   4.247  14.186  0.00  0.00    +0.000 A 
ATOM     10  C   UNL     1       4.954   4.128  15.434  0.00  0.00    +0.000 A 
ATOM     11  C   UNL     1       5.640   4.478  16.609  0.00  0.00    +0.000 A 
ATOM     12  C   UNL     1       6.969   4.926  16.505  0.00  0.00    +0.000 A 
ATOM     13  C   UNL     1       7.586   5.044  15.256  0.00  0.00    +0.000 A 
ENDBRANCH   2  11
ENDBRANCH   1   5
BRANCH   1  14
ATOM     14  N   UNL     1       2.223   6.548  20.579  0.00  0.00    +0.000 N 
ATOM     15  H   UNL     1       3.125   6.580  21.046  0.00  0.00    +0.000 HD
BRANCH  14  16
ATOM     16  C   UNL     1       1.930   7.759  19.909  0.00  0.00    +0.000 A 
ATOM     17  C   UNL     1       2.287   7.930  18.559  0.00  0.00    +0.000 A 
ATOM     18  C   UNL     1       1.978   9.093  17.857  0.00  0.00    +0.000 A 
ATOM     19  C   UNL     1       1.263  10.102  18.479  0.00  0.00    +0.000 A 
ATOM     20  C   UNL     1       0.823   9.948  19.799  0.00  0.00    +0.000 A 
ATOM     21  C   UNL     1       1.152   8.774  20.528  0.00  0.00    +0.000 A 
ATOM     22  C   UNL     1       0.612   8.605  21.937  0.00  0.00    +0.000 C 
ATOM     23  C   UNL     1       0.132   9.901  22.594  0.00  0.00    +0.000 C 
ATOM     24  C   UNL     1      -0.751  10.689  21.643  0.00  0.00    +0.000 C 
ATOM     25  C   UNL     1       0.049  11.091  20.413  0.00  0.00    +0.000 C 
ENDBRANCH  14  16
ENDBRANCH   1  14
TORSDOF 4
ENDMDL
MODEL 5
REMARK VINA RESULT:      -8.1      5.471      7.113
REMARK  Name = 
REMARK  4 active torsions:
REMARK  status: ('A' for Active; 'I' for Inactive)
REMARK    1  A    between atoms: C_5  and  C_6
REMARK    2  A    between atoms: C_9  and  C_10
REMARK    3  A    between atoms: C_10  and  N_11
REMARK    4  A    between atoms: N_11  and  C_12
REMARK                            x       y       z     vdW  Elec       q    Type
REMARK                         _______ _______ _______ _____ _____    ______ ____
ROOT
ATOM      1  C   UNL     1       2.855   5.031  19.528  0.00  0.00    +0.000 C 
ENDROOT
BRANCH   1   5
ATOM      2  C   UNL     1       5.534   4.506  17.268  0.00  0.00    +0.000 A 
ATOM      3  N   UNL     1       6.213   4.272  18.373  0.00  0.00    +0.000 NA
ATOM      4  N   UNL     1       5.322   4.404  19.422  0.00  0.00    +0.000 NA
ATOM      5  C   UNL     1       4.161   4.713  18.881  0.00  0.00    +0.000 A 
ATOM      6  O   UNL     1       4.218   4.800  17.515  0.00  0.00    +0.000 OA
BRANCH   2  11
ATOM      7  F   UNL     1       7.264   4.266  11.952  0.00  0.00    +0.000 F 
ATOM      8  C   UNL     1       6.834   4.344  13.217  0.00  0.00    +0.000 A 
ATOM      9  C   UNL     1       7.619   4.981  14.171  0.00  0.00    +0.000 A 
ATOM     10  C   UNL     1       7.178   5.047  15.495  0.00  0.00    +0.000 A 
ATOM     11  C   UNL     1       5.953   4.471  15.872  0.00  0.00    +0.000 A 
ATOM     12  C   UNL     1       5.169   3.850  14.884  0.00  0.00    +0.000 A 
ATOM     13  C   UNL     1       5.610   3.784  13.559  0.00  0.00    +0.000 A 
ENDBRANCH   2  11
ENDBRANCH   1   5
BRANCH   1  14
ATOM     14  N   UNL     1       2.808   6.277  20.315  0.00  0.00    +0.000 N 
ATOM     15  H   UNL     1       3.706   6.443  20.760  0.00  0.00    +0.000 HD
BRANCH  14  16
ATOM     16  C   UNL     1       2.324   7.429  19.652  0.00  0.00    +0.000 A 
ATOM     17  C   UNL     1       2.544   7.602  18.274  0.00  0.00    +0.000 A 
ATOM     18  C   UNL     1       2.046   8.704  17.581  0.00  0.00    +0.000 A 
ATOM     19  C   UNL     1       1.277   9.644  18.245  0.00  0.00    +0.000 A 
ATOM     20  C   UNL     1       0.971   9.478  19.601  0.00  0.00    +0.000 A 
ATOM     21  C   UNL     1       1.491   8.368  20.318  0.00  0.00    +0.000 A 
ATOM     22  C   UNL     1       1.095   8.178  21.772  0.00  0.00    +0.000 C 
ATOM     23  C   UNL     1       0.528   9.430  22.445  0.00  0.00    +0.000 C 
ATOM     24  C   UNL     1      -0.516  10.089  21.561  0.00  0.00    +0.000 C 
ATOM     25  C   UNL     1       0.127  10.544  20.259  0.00  0.00    +0.000 C 
ENDBRANCH  14  16
ENDBRANCH   1  14
TORSDOF 4
ENDMDL
MODEL 6
REMARK VINA RESULT:      -8.1      6.556      9.026
REMARK  Name = 
REMARK  4 active torsions:
REMARK  status: ('A' for Active; 'I' for Inactive)
REMARK    1  A    between atoms: C_5  and  C_6
REMARK    2  A    between atoms: C_9  and  C_10
REMARK    3  A    between atoms: C_10  and  N_11
REMARK    4  A    between atoms: N_11  and  C_12
REMARK                            x       y       z     vdW  Elec       q    Type
REMARK                         _______ _______ _______ _____ _____    ______ ____
ROOT
ATOM      1  C   UNL     1       2.282   8.452  17.658  0.00  0.00    +0.000 C 
ENDROOT
BRANCH   1   5
ATOM      2  C   UNL     1      -0.661  10.287  18.392  0.00  0.00    +0.000 A 
ATOM      3  N   UNL     1      -0.001  10.602  19.490  0.00  0.00    +0.000 NA
ATOM      4  N   UNL     1       1.234   9.988  19.400  0.00  0.00    +0.000 NA
ATOM      5  C   UNL     1       1.239   9.338  18.254  0.00  0.00    +0.000 A 
ATOM      6  O   UNL     1       0.068   9.477  17.559  0.00  0.00    +0.000 OA
BRANCH   2  11
ATOM      7  F   UNL     1      -5.706  11.956  16.641  0.00  0.00    +0.000 F 
ATOM      8  C   UNL     1      -4.509  11.532  17.065  0.00  0.00    +0.000 A 
ATOM      9  C   UNL     1      -4.075  11.868  18.343  0.00  0.00    +0.000 A 
ATOM     10  C   UNL     1      -2.819  11.439  18.779  0.00  0.00    +0.000 A 
ATOM     11  C   UNL     1      -1.989  10.680  17.938  0.00  0.00    +0.000 A 
ATOM     12  C   UNL     1      -2.459  10.339  16.657  0.00  0.00    +0.000 A 
ATOM     13  C   UNL     1      -3.716  10.766  16.222  0.00  0.00    +0.000 A 
ENDBRANCH   2  11
ENDBRANCH   1   5
BRANCH   1  14
ATOM     14  N   UNL     1       2.904   7.477  18.572  0.00  0.00    +0.000 N 
ATOM     15  H   UNL     1       2.441   7.500  19.475  0.00  0.00    +0.000 HD
BRANCH  14  16
ATOM     16  C   UNL     1       3.051   6.157  18.086  0.00  0.00    +0.000 A 
ATOM     17  C   UNL     1       1.977   5.250  18.151  0.00  0.00    +0.000 A 
ATOM     18  C   UNL     1       2.074   3.955  17.645  0.00  0.00    +0.000 A 
ATOM     19  C   UNL     1       3.240   3.547  17.021  0.00  0.00    +0.000 A 
ATOM     20  C   UNL     1       4.310   4.436  16.867  0.00  0.00    +0.000 A 
ATOM     21  C   UNL     1       4.226   5.750  17.398  0.00  0.00    +0.000 A 
ATOM     22  C   UNL     1       5.376   6.714  17.166  0.00  0.00    +0.000 C 
ATOM     23  C   UNL     1       6.694   6.048  16.762  0.00  0.00    +0.000 C 
ATOM     24  C   UNL     1       6.463   5.025  15.664  0.00  0.00    +0.000 C 
ATOM     25  C   UNL     1       5.551   3.920  16.176  0.00  0.00    +0.000 C 
ENDBRANCH  14  16
ENDBRANCH   1  14
TORSDOF 4
ENDMDL
MODEL 7
REMARK VINA RESULT:      -8.1      3.283      9.193
REMARK  Name = 
REMARK  4 active torsions:
REMARK  status: ('A' for Active; 'I' for Inactive)
REMARK    1  A    between atoms: C_5  and  C_6
REMARK    2  A    between atoms: C_9  and  C_10
REMARK    3  A    between atoms: C_10  and  N_11
REMARK    4  A    between atoms: N_11  and  C_12
REMARK                            x       y       z     vdW  Elec       q    Type
REMARK                         _______ _______ _______ _____ _____    ______ ____
ROOT
ATOM      1  C   UNL     1       8.151   9.488  17.964  0.00  0.00    +0.000 C 
ENDROOT
BRANCH   1   5
ATOM      2  C   UNL     1       6.141   6.671  17.201  0.00  0.00    +0.000 A 
ATOM      3  N   UNL     1       7.212   6.284  16.535  0.00  0.00    +0.000 NA
ATOM      4  N   UNL     1       8.170   7.264  16.722  0.00  0.00    +0.000 NA
ATOM      5  C   UNL     1       7.613   8.181  17.487  0.00  0.00    +0.000 A 
ATOM      6  O   UNL     1       6.323   7.876  17.829  0.00  0.00    +0.000 OA
BRANCH   2  11
ATOM      7  F   UNL     1       1.254   4.075  18.033  0.00  0.00    +0.000 F 
ATOM      8  C   UNL     1       2.414   4.706  17.810  0.00  0.00    +0.000 A 
ATOM      9  C   UNL     1       3.501   3.992  17.320  0.00  0.00    +0.000 A 
ATOM     10  C   UNL     1       4.716   4.647  17.103  0.00  0.00    +0.000 A 
ATOM     11  C   UNL     1       4.851   6.017  17.384  0.00  0.00    +0.000 A 
ATOM     12  C   UNL     1       3.731   6.720  17.862  0.00  0.00    +0.000 A 
ATOM     13  C   UNL     1       2.516   6.065  18.077  0.00  0.00    +0.000 A 
ENDBRANCH   2  11
ENDBRANCH   1   5
BRANCH   1  14
ATOM     14  N   UNL     1       9.145   9.423  19.051  0.00  0.00    +0.000 N 
ATOM     15  H   UNL     1       9.986   8.953  18.729  0.00  0.00    +0.000 HD
BRANCH  14  16
ATOM     16  C   UNL     1       9.438  10.636  19.717  0.00  0.00    +0.000 A 
ATOM     17  C   UNL     1       9.033  10.832  21.050  0.00  0.00    +0.000 A 
ATOM     18  C   UNL     1       9.339  11.997  21.750  0.00  0.00    +0.000 A 
ATOM     19  C   UNL     1      10.098  12.983  21.143  0.00  0.00    +0.000 A 
ATOM     20  C   UNL     1      10.585  12.803  19.843  0.00  0.00    +0.000 A 
ATOM     21  C   UNL     1      10.260  11.627  19.117  0.00  0.00    +0.000 A 
ATOM     22  C   UNL     1      10.850  11.429  17.732  0.00  0.00    +0.000 C 
ATOM     23  C   UNL     1      11.382  12.706  17.079  0.00  0.00    +0.000 C 
ATOM     24  C   UNL     1      12.245  13.488  18.053  0.00  0.00    +0.000 C 
ATOM     25  C   UNL     1      11.406  13.922  19.246  0.00  0.00    +0.000 C 
ENDBRANCH  14  16
ENDBRANCH   1  14
TORSDOF 4
ENDMDL
MODEL 8
REMARK VINA RESULT:      -8.1      6.747      8.941
REMARK  Name = 
REMARK  4 active torsions:
REMARK  status: ('A' for Active; 'I' for Inactive)
REMARK    1  A    between atoms: C_5  and  C_6
REMARK    2  A    between atoms: C_9  and  C_10
REMARK    3  A    between atoms: C_10  and  N_11
REMARK    4  A    between atoms: N_11  and  C_12
REMARK                            x       y       z     vdW  Elec       q    Type
REMARK                         _______ _______ _______ _____ _____    ______ ____
ROOT
ATOM      1  C   UNL     1       2.058   8.623  17.945  0.00  0.00    +0.000 C 
ENDROOT
BRANCH   1   5
ATOM      2  C   UNL     1      -0.798  10.674  18.394  0.00  0.00    +0.000 A 
ATOM      3  N   UNL     1      -0.045  11.250  19.310  0.00  0.00    +0.000 NA
ATOM      4  N   UNL     1       1.174  10.598  19.290  0.00  0.00    +0.000 NA
ATOM      5  C   UNL     1       1.077   9.667  18.363  0.00  0.00    +0.000 A 
ATOM      6  O   UNL     1      -0.149   9.650  17.753  0.00  0.00    +0.000 OA
BRANCH   2  11
ATOM      7  F   UNL     1      -5.976  11.979  16.724  0.00  0.00    +0.000 F 
ATOM      8  C   UNL     1      -4.745  11.641  17.128  0.00  0.00    +0.000 A 
ATOM      9  C   UNL     1      -4.332  11.967  18.414  0.00  0.00    +0.000 A 
ATOM     10  C   UNL     1      -3.041  11.630  18.830  0.00  0.00    +0.000 A 
ATOM     11  C   UNL     1      -2.157  10.971  17.959  0.00  0.00    +0.000 A 
ATOM     12  C   UNL     1      -2.607  10.636  16.670  0.00  0.00    +0.000 A 
ATOM     13  C   UNL     1      -3.898  10.973  16.255  0.00  0.00    +0.000 A 
ENDBRANCH   2  11
ENDBRANCH   1   5
BRANCH   1  14
ATOM     14  N   UNL     1       2.392   7.604  18.956  0.00  0.00    +0.000 N 
ATOM     15  H   UNL     1       1.608   7.469  19.588  0.00  0.00    +0.000 HD
BRANCH  14  16
ATOM     16  C   UNL     1       2.902   6.376  18.475  0.00  0.00    +0.000 A 
ATOM     17  C   UNL     1       3.879   6.359  17.463  0.00  0.00    +0.000 A 
ATOM     18  C   UNL     1       4.433   5.169  16.993  0.00  0.00    +0.000 A 
ATOM     19  C   UNL     1       4.052   3.964  17.557  0.00  0.00    +0.000 A 
ATOM     20  C   UNL     1       3.136   3.935  18.615  0.00  0.00    +0.000 A 
ATOM     21  C   UNL     1       2.552   5.141  19.085  0.00  0.00    +0.000 A 
ATOM     22  C   UNL     1       1.609   5.089  20.274  0.00  0.00    +0.000 C 
ATOM     23  C   UNL     1       1.039   3.701  20.574  0.00  0.00    +0.000 C 
ATOM     24  C   UNL     1       2.140   2.655  20.564  0.00  0.00    +0.000 C 
ATOM     25  C   UNL     1       2.767   2.583  19.180  0.00  0.00    +0.000 C 
ENDBRANCH  14  16
ENDBRANCH   1  14
TORSDOF 4
ENDMDL
MODEL 9
REMARK VINA RESULT:      -8.0      6.030      7.675
REMARK  Name = 
REMARK  4 active torsions:
REMARK  status: ('A' for Active; 'I' for Inactive)
REMARK    1  A    between atoms: C_5  and  C_6
REMARK    2  A    between atoms: C_9  and  C_10
REMARK    3  A    between atoms: C_10  and  N_11
REMARK    4  A    between atoms: N_11  and  C_12
REMARK                            x       y       z     vdW  Elec       q    Type
REMARK                         _______ _______ _______ _____ _____    ______ ____
ROOT
ATOM      1  C   UNL     1       2.180   8.312  17.848  0.00  0.00    +0.000 C 
ENDROOT
BRANCH   1   5
ATOM      2  C   UNL     1       0.610  10.844  19.768  0.00  0.00    +0.000 A 
ATOM      3  N   UNL     1       1.332  11.646  19.012  0.00  0.00    +0.000 NA
ATOM      4  N   UNL     1       2.036  10.839  18.137  0.00  0.00    +0.000 NA
ATOM      5  C   UNL     1       1.694   9.600  18.424  0.00  0.00    +0.000 A 
ATOM      6  O   UNL     1       0.794   9.522  19.453  0.00  0.00    +0.000 OA
BRANCH   2  11
ATOM      7  F   UNL     1      -2.921  12.067  23.933  0.00  0.00    +0.000 F 
ATOM      8  C   UNL     1      -2.096  11.759  22.925  0.00  0.00    +0.000 A 
ATOM      9  C   UNL     1      -1.126  10.780  23.107  0.00  0.00    +0.000 A 
ATOM     10  C   UNL     1      -0.254  10.471  22.060  0.00  0.00    +0.000 A 
ATOM     11  C   UNL     1      -0.343  11.144  20.830  0.00  0.00    +0.000 A 
ATOM     12  C   UNL     1      -1.345  12.117  20.667  0.00  0.00    +0.000 A 
ATOM     13  C   UNL     1      -2.218  12.426  21.714  0.00  0.00    +0.000 A 
ENDBRANCH   2  11
ENDBRANCH   1   5
BRANCH   1  14
ATOM     14  N   UNL     1       2.675   7.315  18.814  0.00  0.00    +0.000 N 
ATOM     15  H   UNL     1       2.019   7.218  19.583  0.00  0.00    +0.000 HD
BRANCH  14  16
ATOM     16  C   UNL     1       3.066   6.062  18.289  0.00  0.00    +0.000 A 
ATOM     17  C   UNL     1       4.074   5.982  17.312  0.00  0.00    +0.000 A 
ATOM     18  C   UNL     1       4.512   4.762  16.801  0.00  0.00    +0.000 A 
ATOM     19  C   UNL     1       3.978   3.581  17.290  0.00  0.00    +0.000 A 
ATOM     20  C   UNL     1       3.024   3.606  18.314  0.00  0.00    +0.000 A 
ATOM     21  C   UNL     1       2.559   4.847  18.824  0.00  0.00    +0.000 A 
ATOM     22  C   UNL     1       1.569   4.846  19.976  0.00  0.00    +0.000 C 
ATOM     23  C   UNL     1       0.839   3.518  20.186  0.00  0.00    +0.000 C 
ATOM     24  C   UNL     1       1.818   2.357  20.161  0.00  0.00    +0.000 C 
ATOM     25  C   UNL     1       2.486   2.279  18.797  0.00  0.00    +0.000 C 
ENDBRANCH  14  16
ENDBRANCH   1  14
TORSDOF 4
ENDMDL
