MODEL 1
REMARK VINA RESULT:      -7.8      0.000      0.000
REMARK  Name = 
REMARK  6 active torsions:
REMARK  status: ('A' for Active; 'I' for Inactive)
REMARK    1  A    between atoms: C_1  and  N_2
REMARK    2  A    between atoms: C_6  and  C_7
REMARK    3  A    between atoms: C_7  and  C_8
REMARK    4  A    between atoms: C_8  and  C_9
REMARK    5  A    between atoms: C_13  and  N_14
REMARK    6  A    between atoms: C_17  and  C_18
REMARK                            x       y       z     vdW  Elec       q    Type
REMARK                         _______ _______ _______ _____ _____    ______ ____
ROOT
ATOM      1  C   UNL     1      -3.875  11.504  17.943  0.00  0.00    +0.000 A 
ATOM      2  C   UNL     1      -3.806  10.821  16.713  0.00  0.00    +0.000 A 
ATOM      3  C   UNL     1      -2.723  10.014  16.381  0.00  0.00    +0.000 A 
ATOM      4  C   UNL     1      -1.616   9.977  17.213  0.00  0.00    +0.000 A 
ATOM      5  C   UNL     1      -1.529  10.890  18.273  0.00  0.00    +0.000 A 
ATOM      6  C   UNL     1      -2.698  11.520  18.714  0.00  0.00    +0.000 A 
ENDROOT
BRANCH   5   7
ATOM      7  N   UNL     1      -0.256  11.553  18.554  0.00  0.00    +0.000 N 
ATOM      8  C   UNL     1       0.617  10.634  19.322  0.00  0.00    +0.000 C 
ATOM      9  C   UNL     1       0.172  10.912  20.731  0.00  0.00    +0.000 A 
ATOM     10  C   UNL     1      -0.201  10.025  21.736  0.00  0.00    +0.000 A 
ATOM     11  C   UNL     1      -0.937  10.552  22.811  0.00  0.00    +0.000 A 
ATOM     12  C   UNL     1      -1.279  11.913  22.855  0.00  0.00    +0.000 A 
ATOM     13  F   UNL     1      -2.071  12.345  23.846  0.00  0.00    +0.000 F 
ATOM     14  C   UNL     1      -0.924  12.790  21.839  0.00  0.00    +0.000 A 
ATOM     15  C   UNL     1      -0.231  12.246  20.773  0.00  0.00    +0.000 A 
ATOM     16  C   UNL     1      -0.346  12.716  19.369  0.00  0.00    +0.000 C 
ATOM     17  O   UNL     1      -0.679  13.840  19.046  0.00  0.00    +0.000 OA
BRANCH  10  18
ATOM     18  C   UNL     1      -0.067   8.538  21.583  0.00  0.00    +0.000 C 
ATOM     19  F   UNL     1       1.232   8.130  21.499  0.00  0.00    +0.000 F 
ENDBRANCH  10  18
ENDBRANCH   5   7
BRANCH   1  20
ATOM     20  C   UNL     1      -5.229  12.226  18.432  0.00  0.00    +0.000 C 
ATOM     21  C   UNL     1      -6.041  12.992  17.336  0.00  0.00    +0.000 C 
ATOM     22  N   UNL     1      -6.997  11.880  17.246  0.00  0.00    +0.000 NA
ATOM     23  C   UNL     1      -6.472  11.280  18.475  0.00  0.00    +0.000 C 
ATOM     24  H   UNL     1      -6.842  11.298  16.420  0.00  0.00    +0.000 HD
BRANCH  20  25
ATOM     25  C   UNL     1      -5.032  12.998  19.760  0.00  0.00    +0.000 C 
BRANCH  25  31
ATOM     26  C   UNL     1      -7.780  14.520  20.082  0.00  0.00    +0.000 C 
ATOM     27  N   UNL     1      -7.264  13.472  20.919  0.00  0.00    +0.000 N 
ATOM     28  C   UNL     1      -7.901  12.966  22.013  0.00  0.00    +0.000 A 
ATOM     29  N   UNL     1      -7.184  11.997  22.529  0.00  0.00    +0.000 NA
ATOM     30  N   UNL     1      -6.041  11.881  21.774  0.00  0.00    +0.000 NA
ATOM     31  C   UNL     1      -6.089  12.763  20.794  0.00  0.00    +0.000 A 
ENDBRANCH  25  31
ENDBRANCH  20  25
ENDBRANCH   1  20
TORSDOF 5
ENDMDL
MODEL 2
REMARK VINA RESULT:      -7.7      8.788     12.507
REMARK  Name = 
REMARK  6 active torsions:
REMARK  status: ('A' for Active; 'I' for Inactive)
REMARK    1  A    between atoms: C_1  and  N_2
REMARK    2  A    between atoms: C_6  and  C_7
REMARK    3  A    between atoms: C_7  and  C_8
REMARK    4  A    between atoms: C_8  and  C_9
REMARK    5  A    between atoms: C_13  and  N_14
REMARK    6  A    between atoms: C_17  and  C_18
REMARK                            x       y       z     vdW  Elec       q    Type
REMARK                         _______ _______ _______ _____ _____    ______ ____
ROOT
ATOM      1  C   UNL     1       4.981   6.060  17.530  0.00  0.00    +0.000 A 
ATOM      2  C   UNL     1       4.462   7.330  17.208  0.00  0.00    +0.000 A 
ATOM      3  C   UNL     1       3.173   7.708  17.566  0.00  0.00    +0.000 A 
ATOM      4  C   UNL     1       2.317   6.778  18.134  0.00  0.00    +0.000 A 
ATOM      5  C   UNL     1       2.703   5.431  18.168  0.00  0.00    +0.000 A 
ATOM      6  C   UNL     1       4.058   5.115  18.017  0.00  0.00    +0.000 A 
ENDROOT
BRANCH   5   7
ATOM      7  N   UNL     1       1.726   4.391  17.845  0.00  0.00    +0.000 N 
ATOM      8  C   UNL     1       1.056   3.943  19.088  0.00  0.00    +0.000 C 
ATOM      9  C   UNL     1       2.008   2.886  19.574  0.00  0.00    +0.000 A 
ATOM     10  C   UNL     1       2.575   2.712  20.832  0.00  0.00    +0.000 A 
ATOM     11  C   UNL     1       3.715   1.892  20.909  0.00  0.00    +0.000 A 
ATOM     12  C   UNL     1       4.250   1.286  19.761  0.00  0.00    +0.000 A 
ATOM     13  F   UNL     1       5.396   0.601  19.871  0.00  0.00    +0.000 F 
ATOM     14  C   UNL     1       3.693   1.481  18.505  0.00  0.00    +0.000 A 
ATOM     15  C   UNL     1       2.594   2.318  18.443  0.00  0.00    +0.000 A 
ATOM     16  C   UNL     1       2.272   3.199  17.291  0.00  0.00    +0.000 C 
ATOM     17  O   UNL     1       2.633   2.994  16.148  0.00  0.00    +0.000 OA
BRANCH  10  18
ATOM     18  C   UNL     1       2.175   3.545  22.014  0.00  0.00    +0.000 C 
ATOM     19  F   UNL     1       2.356   4.881  21.803  0.00  0.00    +0.000 F 
ENDBRANCH  10  18
ENDBRANCH   5   7
BRANCH   1  20
ATOM     20  C   UNL     1       6.543   5.715  17.345  0.00  0.00    +0.000 C 
ATOM     21  C   UNL     1       7.499   6.931  17.117  0.00  0.00    +0.000 C 
ATOM     22  N   UNL     1       7.936   6.870  18.518  0.00  0.00    +0.000 NA
ATOM     23  C   UNL     1       7.319   5.553  18.693  0.00  0.00    +0.000 C 
ATOM     24  H   UNL     1       7.503   7.593  19.096  0.00  0.00    +0.000 HD
BRANCH  20  25
ATOM     25  C   UNL     1       6.767   4.517  16.390  0.00  0.00    +0.000 C 
BRANCH  25  31
ATOM     26  C   UNL     1       5.333   3.658  13.711  0.00  0.00    +0.000 C 
ATOM     27  N   UNL     1       6.517   4.462  13.844  0.00  0.00    +0.000 N 
ATOM     28  C   UNL     1       7.221   4.986  12.801  0.00  0.00    +0.000 A 
ATOM     29  N   UNL     1       8.220   5.701  13.261  0.00  0.00    +0.000 NA
ATOM     30  N   UNL     1       8.186   5.623  14.633  0.00  0.00    +0.000 NA
ATOM     31  C   UNL     1       7.152   4.884  14.991  0.00  0.00    +0.000 A 
ENDBRANCH  25  31
ENDBRANCH  20  25
ENDBRANCH   1  20
TORSDOF 5
ENDMDL
MODEL 3
REMARK VINA RESULT:      -7.7      5.360      9.364
REMARK  Name = 
REMARK  6 active torsions:
REMARK  status: ('A' for Active; 'I' for Inactive)
REMARK    1  A    between atoms: C_1  and  N_2
REMARK    2  A    between atoms: C_6  and  C_7
REMARK    3  A    between atoms: C_7  and  C_8
REMARK    4  A    between atoms: C_8  and  C_9
REMARK    5  A    between atoms: C_13  and  N_14
REMARK    6  A    between atoms: C_17  and  C_18
REMARK                            x       y       z     vdW  Elec       q    Type
REMARK                         _______ _______ _______ _____ _____    ______ ____
ROOT
ATOM      1  C   UNL     1       2.345   5.953  18.781  0.00  0.00    +0.000 A 
ATOM      2  C   UNL     1       2.238   6.835  17.688  0.00  0.00    +0.000 A 
ATOM      3  C   UNL     1       2.157   8.212  17.861  0.00  0.00    +0.000 A 
ATOM      4  C   UNL     1       2.041   8.738  19.138  0.00  0.00    +0.000 A 
ATOM      5  C   UNL     1       1.823   7.867  20.215  0.00  0.00    +0.000 A 
ATOM      6  C   UNL     1       2.127   6.511  20.055  0.00  0.00    +0.000 A 
ENDROOT
BRANCH   5   7
ATOM      7  N   UNL     1       0.850   8.225  21.247  0.00  0.00    +0.000 N 
ATOM      8  C   UNL     1      -0.462   8.495  20.613  0.00  0.00    +0.000 C 
ATOM      9  C   UNL     1      -0.322   9.949  20.254  0.00  0.00    +0.000 A 
ATOM     10  C   UNL     1      -0.567  10.592  19.045  0.00  0.00    +0.000 A 
ATOM     11  C   UNL     1       0.009  11.862  18.870  0.00  0.00    +0.000 A 
ATOM     12  C   UNL     1       0.798  12.443  19.876  0.00  0.00    +0.000 A 
ATOM     13  F   UNL     1       1.410  13.607  19.620  0.00  0.00    +0.000 F 
ATOM     14  C   UNL     1       1.057  11.787  21.072  0.00  0.00    +0.000 A 
ATOM     15  C   UNL     1       0.512  10.525  21.211  0.00  0.00    +0.000 A 
ATOM     16  C   UNL     1       1.145   9.415  21.969  0.00  0.00    +0.000 C 
ATOM     17  O   UNL     1       1.933   9.569  22.882  0.00  0.00    +0.000 OA
BRANCH  10  18
ATOM     18  C   UNL     1      -1.187   9.887  17.874  0.00  0.00    +0.000 C 
ATOM     19  F   UNL     1      -2.540  10.047  17.817  0.00  0.00    +0.000 F 
ENDBRANCH  10  18
ENDBRANCH   5   7
BRANCH   1  20
ATOM     20  C   UNL     1       2.693   4.394  18.576  0.00  0.00    +0.000 C 
ATOM     21  C   UNL     1       2.564   3.484  19.841  0.00  0.00    +0.000 C 
ATOM     22  N   UNL     1       1.274   2.972  19.360  0.00  0.00    +0.000 NA
ATOM     23  C   UNL     1       1.500   3.544  18.031  0.00  0.00    +0.000 C 
ATOM     24  H   UNL     1       0.480   3.393  19.846  0.00  0.00    +0.000 HD
BRANCH  20  25
ATOM     25  C   UNL     1       3.987   4.189  17.750  0.00  0.00    +0.000 C 
BRANCH  25  31
ATOM     26  C   UNL     1       5.688   6.585  16.593  0.00  0.00    +0.000 C 
ATOM     27  N   UNL     1       5.953   5.826  17.786  0.00  0.00    +0.000 N 
ATOM     28  C   UNL     1       7.013   6.032  18.618  0.00  0.00    +0.000 A 
ATOM     29  N   UNL     1       6.942   5.203  19.631  0.00  0.00    +0.000 NA
ATOM     30  N   UNL     1       5.827   4.420  19.448  0.00  0.00    +0.000 NA
ATOM     31  C   UNL     1       5.220   4.800  18.339  0.00  0.00    +0.000 A 
ENDBRANCH  25  31
ENDBRANCH  20  25
ENDBRANCH   1  20
TORSDOF 5
ENDMDL
MODEL 4
REMARK VINA RESULT:      -7.5      5.151      7.857
REMARK  Name = 
REMARK  6 active torsions:
REMARK  status: ('A' for Active; 'I' for Inactive)
REMARK    1  A    between atoms: C_1  and  N_2
REMARK    2  A    between atoms: C_6  and  C_7
REMARK    3  A    between atoms: C_7  and  C_8
REMARK    4  A    between atoms: C_8  and  C_9
REMARK    5  A    between atoms: C_13  and  N_14
REMARK    6  A    between atoms: C_17  and  C_18
REMARK                            x       y       z     vdW  Elec       q    Type
REMARK                         _______ _______ _______ _____ _____    ______ ____
ROOT
ATOM      1  C   UNL     1       1.544   8.887  19.303  0.00  0.00    +0.000 A 
ATOM      2  C   UNL     1       2.238   9.213  18.122  0.00  0.00    +0.000 A 
ATOM      3  C   UNL     1       2.931   8.255  17.389  0.00  0.00    +0.000 A 
ATOM      4  C   UNL     1       3.064   6.971  17.892  0.00  0.00    +0.000 A 
ATOM      5  C   UNL     1       2.659   6.710  19.208  0.00  0.00    +0.000 A 
ATOM      6  C   UNL     1       1.780   7.603  19.831  0.00  0.00    +0.000 A 
ENDROOT
BRANCH   5   7
ATOM      7  N   UNL     1       3.495   5.873  20.069  0.00  0.00    +0.000 N 
ATOM      8  C   UNL     1       4.490   5.155  19.239  0.00  0.00    +0.000 C 
ATOM      9  C   UNL     1       3.710   3.938  18.827  0.00  0.00    +0.000 A 
ATOM     10  C   UNL     1       3.526   3.387  17.563  0.00  0.00    +0.000 A 
ATOM     11  C   UNL     1       2.451   2.495  17.406  0.00  0.00    +0.000 A 
ATOM     12  C   UNL     1       1.605   2.185  18.483  0.00  0.00    +0.000 A 
ATOM     13  F   UNL     1       0.533   1.413  18.257  0.00  0.00    +0.000 F 
ATOM     14  C   UNL     1       1.780   2.756  19.737  0.00  0.00    +0.000 A 
ATOM     15  C   UNL     1       2.820   3.657  19.862  0.00  0.00    +0.000 A 
ATOM     16  C   UNL     1       2.804   4.839  20.762  0.00  0.00    +0.000 C 
ATOM     17  O   UNL     1       2.129   4.926  21.770  0.00  0.00    +0.000 OA
BRANCH  10  18
ATOM     18  C   UNL     1       4.254   3.895  16.353  0.00  0.00    +0.000 C 
ATOM     19  F   UNL     1       5.578   3.565  16.355  0.00  0.00    +0.000 F 
ENDBRANCH  10  18
ENDBRANCH   5   7
BRANCH   1  20
ATOM     20  C   UNL     1       0.539   9.930  20.006  0.00  0.00    +0.000 C 
ATOM     21  C   UNL     1      -0.570   9.315  20.920  0.00  0.00    +0.000 C 
ATOM     22  N   UNL     1       0.198   9.674  22.120  0.00  0.00    +0.000 NA
ATOM     23  C   UNL     1       1.087  10.537  21.339  0.00  0.00    +0.000 C 
ATOM     24  H   UNL     1       0.680   8.871  22.530  0.00  0.00    +0.000 HD
BRANCH  20  25
ATOM     25  C   UNL     1       0.047  11.021  19.023  0.00  0.00    +0.000 C 
BRANCH  25  31
ATOM     26  C   UNL     1      -2.791  12.296  19.562  0.00  0.00    +0.000 C 
ATOM     27  N   UNL     1      -2.466  11.269  18.610  0.00  0.00    +0.000 N 
ATOM     28  C   UNL     1      -3.363  10.670  17.776  0.00  0.00    +0.000 A 
ATOM     29  N   UNL     1      -2.740   9.809  17.008  0.00  0.00    +0.000 NA
ATOM     30  N   UNL     1      -1.412   9.823  17.362  0.00  0.00    +0.000 NA
ATOM     31  C   UNL     1      -1.239  10.712  18.323  0.00  0.00    +0.000 A 
ENDBRANCH  25  31
ENDBRANCH  20  25
ENDBRANCH   1  20
TORSDOF 5
ENDMDL
MODEL 5
REMARK VINA RESULT:      -7.5      4.847      8.581
REMARK  Name = 
REMARK  6 active torsions:
REMARK  status: ('A' for Active; 'I' for Inactive)
REMARK    1  A    between atoms: C_1  and  N_2
REMARK    2  A    between atoms: C_6  and  C_7
REMARK    3  A    between atoms: C_7  and  C_8
REMARK    4  A    between atoms: C_8  and  C_9
REMARK    5  A    between atoms: C_13  and  N_14
REMARK    6  A    between atoms: C_17  and  C_18
REMARK                            x       y       z     vdW  Elec       q    Type
REMARK                         _______ _______ _______ _____ _____    ______ ____
ROOT
ATOM      1  C   UNL     1       2.423   7.493  18.593  0.00  0.00    +0.000 A 
ATOM      2  C   UNL     1       2.391   8.485  17.594  0.00  0.00    +0.000 A 
ATOM      3  C   UNL     1       2.062   9.806  17.881  0.00  0.00    +0.000 A 
ATOM      4  C   UNL     1       1.623  10.143  19.151  0.00  0.00    +0.000 A 
ATOM      5  C   UNL     1       1.342   9.120  20.068  0.00  0.00    +0.000 A 
ATOM      6  C   UNL     1       1.881   7.849  19.843  0.00  0.00    +0.000 A 
ENDROOT
BRANCH   5   7
ATOM      7  N   UNL     1       0.146   9.210  20.906  0.00  0.00    +0.000 N 
ATOM      8  C   UNL     1      -1.058   9.008  20.065  0.00  0.00    +0.000 C 
ATOM      9  C   UNL     1      -1.311  10.405  19.571  0.00  0.00    +0.000 A 
ATOM     10  C   UNL     1      -1.532  10.862  18.275  0.00  0.00    +0.000 A 
ATOM     11  C   UNL     1      -1.351  12.237  18.045  0.00  0.00    +0.000 A 
ATOM     12  C   UNL     1      -0.961  13.099  19.082  0.00  0.00    +0.000 A 
ATOM     13  F   UNL     1      -0.701  14.380  18.789  0.00  0.00    +0.000 F 
ATOM     14  C   UNL     1      -0.721  12.634  20.368  0.00  0.00    +0.000 A 
ATOM     15  C   UNL     1      -0.869  11.274  20.567  0.00  0.00    +0.000 A 
ATOM     16  C   UNL     1      -0.065  10.473  21.526  0.00  0.00    +0.000 C 
ATOM     17  O   UNL     1       0.471  10.926  22.519  0.00  0.00    +0.000 OA
BRANCH  10  18
ATOM     18  C   UNL     1      -1.697   9.927  17.113  0.00  0.00    +0.000 C 
ATOM     19  F   UNL     1      -3.003   9.621  16.863  0.00  0.00    +0.000 F 
ENDBRANCH  10  18
ENDBRANCH   5   7
BRANCH   1  20
ATOM     20  C   UNL     1       3.045   6.034  18.314  0.00  0.00    +0.000 C 
ATOM     21  C   UNL     1       4.227   5.969  17.293  0.00  0.00    +0.000 C 
ATOM     22  N   UNL     1       5.193   5.863  18.394  0.00  0.00    +0.000 NA
ATOM     23  C   UNL     1       4.123   5.594  19.358  0.00  0.00    +0.000 C 
ATOM     24  H   UNL     1       5.679   6.744  18.574  0.00  0.00    +0.000 HD
BRANCH  20  25
ATOM     25  C   UNL     1       1.947   4.960  18.115  0.00  0.00    +0.000 C 
BRANCH  25  31
ATOM     26  C   UNL     1       3.071   2.020  18.380  0.00  0.00    +0.000 C 
ATOM     27  N   UNL     1       2.250   2.725  19.326  0.00  0.00    +0.000 N 
ATOM     28  C   UNL     1       1.818   2.213  20.513  0.00  0.00    +0.000 A 
ATOM     29  N   UNL     1       1.126   3.123  21.157  0.00  0.00    +0.000 NA
ATOM     30  N   UNL     1       1.082   4.246  20.366  0.00  0.00    +0.000 NA
ATOM     31  C   UNL     1       1.769   4.014  19.262  0.00  0.00    +0.000 A 
ENDBRANCH  25  31
ENDBRANCH  20  25
ENDBRANCH   1  20
TORSDOF 5
ENDMDL
MODEL 6
REMARK VINA RESULT:      -7.4      5.146      7.980
REMARK  Name = 
REMARK  6 active torsions:
REMARK  status: ('A' for Active; 'I' for Inactive)
REMARK    1  A    between atoms: C_1  and  N_2
REMARK    2  A    between atoms: C_6  and  C_7
REMARK    3  A    between atoms: C_7  and  C_8
REMARK    4  A    between atoms: C_8  and  C_9
REMARK    5  A    between atoms: C_13  and  N_14
REMARK    6  A    between atoms: C_17  and  C_18
REMARK                            x       y       z     vdW  Elec       q    Type
REMARK                         _______ _______ _______ _____ _____    ______ ____
ROOT
ATOM      1  C   UNL     1       1.399   8.757  19.528  0.00  0.00    +0.000 A 
ATOM      2  C   UNL     1       2.083   9.203  18.380  0.00  0.00    +0.000 A 
ATOM      3  C   UNL     1       2.830   8.338  17.589  0.00  0.00    +0.000 A 
ATOM      4  C   UNL     1       3.029   7.030  18.000  0.00  0.00    +0.000 A 
ATOM      5  C   UNL     1       2.629   6.654  19.290  0.00  0.00    +0.000 A 
ATOM      6  C   UNL     1       1.700   7.453  19.966  0.00  0.00    +0.000 A 
ENDROOT
BRANCH   5   7
ATOM      7  N   UNL     1       3.502   5.803  20.098  0.00  0.00    +0.000 N 
ATOM      8  C   UNL     1       4.476   5.120  19.214  0.00  0.00    +0.000 C 
ATOM      9  C   UNL     1       3.694   3.905  18.795  0.00  0.00    +0.000 A 
ATOM     10  C   UNL     1       3.472   3.388  17.523  0.00  0.00    +0.000 A 
ATOM     11  C   UNL     1       2.401   2.489  17.379  0.00  0.00    +0.000 A 
ATOM     12  C   UNL     1       1.596   2.140  18.475  0.00  0.00    +0.000 A 
ATOM     13  F   UNL     1       0.525   1.363  18.265  0.00  0.00    +0.000 F 
ATOM     14  C   UNL     1       1.808   2.677  19.738  0.00  0.00    +0.000 A 
ATOM     15  C   UNL     1       2.843   3.586  19.853  0.00  0.00    +0.000 A 
ATOM     16  C   UNL     1       2.846   4.743  20.785  0.00  0.00    +0.000 C 
ATOM     17  O   UNL     1       2.206   4.794  21.818  0.00  0.00    +0.000 OA
BRANCH  10  18
ATOM     18  C   UNL     1       4.152   3.937  16.304  0.00  0.00    +0.000 C 
ATOM     19  F   UNL     1       5.485   3.650  16.269  0.00  0.00    +0.000 F 
ENDBRANCH  10  18
ENDBRANCH   5   7
BRANCH   1  20
ATOM     20  C   UNL     1       0.335   9.693  20.293  0.00  0.00    +0.000 C 
ATOM     21  C   UNL     1      -0.323   9.088  21.576  0.00  0.00    +0.000 C 
ATOM     22  N   UNL     1       0.571   9.884  22.428  0.00  0.00    +0.000 NA
ATOM     23  C   UNL     1       0.985  10.707  21.290  0.00  0.00    +0.000 C 
ATOM     24  H   UNL     1       1.336   9.330  22.819  0.00  0.00    +0.000 HD
BRANCH  20  25
ATOM     25  C   UNL     1      -0.649  10.380  19.314  0.00  0.00    +0.000 C 
BRANCH  25  31
ATOM     26  C   UNL     1      -2.422  12.477  20.874  0.00  0.00    +0.000 C 
ATOM     27  N   UNL     1      -1.369  12.756  19.936  0.00  0.00    +0.000 N 
ATOM     28  C   UNL     1      -0.970  14.005  19.565  0.00  0.00    +0.000 A 
ATOM     29  N   UNL     1       0.036  13.913  18.728  0.00  0.00    +0.000 NA
ATOM     30  N   UNL     1       0.286  12.577  18.526  0.00  0.00    +0.000 NA
ATOM     31  C   UNL     1      -0.554  11.873  19.262  0.00  0.00    +0.000 A 
ENDBRANCH  25  31
ENDBRANCH  20  25
ENDBRANCH   1  20
TORSDOF 5
ENDMDL
MODEL 7
REMARK VINA RESULT:      -7.4      1.263      1.540
REMARK  Name = 
REMARK  6 active torsions:
REMARK  status: ('A' for Active; 'I' for Inactive)
REMARK    1  A    between atoms: C_1  and  N_2
REMARK    2  A    between atoms: C_6  and  C_7
REMARK    3  A    between atoms: C_7  and  C_8
REMARK    4  A    between atoms: C_8  and  C_9
REMARK    5  A    between atoms: C_13  and  N_14
REMARK    6  A    between atoms: C_17  and  C_18
REMARK                            x       y       z     vdW  Elec       q    Type
REMARK                         _______ _______ _______ _____ _____    ______ ____
ROOT
ATOM      1  C   UNL     1      -3.904  11.415  18.202  0.00  0.00    +0.000 A 
ATOM      2  C   UNL     1      -3.764  10.798  16.944  0.00  0.00    +0.000 A 
ATOM      3  C   UNL     1      -2.598  10.138  16.575  0.00  0.00    +0.000 A 
ATOM      4  C   UNL     1      -1.487  10.194  17.402  0.00  0.00    +0.000 A 
ATOM      5  C   UNL     1      -1.500  11.064  18.501  0.00  0.00    +0.000 A 
ATOM      6  C   UNL     1      -2.731  11.534  18.972  0.00  0.00    +0.000 A 
ENDROOT
BRANCH   5   7
ATOM      7  N   UNL     1      -0.311  11.859  18.808  0.00  0.00    +0.000 N 
ATOM      8  C   UNL     1       0.893  11.001  18.702  0.00  0.00    +0.000 C 
ATOM      9  C   UNL     1       0.950  10.399  20.079  0.00  0.00    +0.000 A 
ATOM     10  C   UNL     1       1.084   9.069  20.462  0.00  0.00    +0.000 A 
ATOM     11  C   UNL     1       0.719   8.745  21.780  0.00  0.00    +0.000 A 
ATOM     12  C   UNL     1       0.238   9.728  22.660  0.00  0.00    +0.000 A 
ATOM     13  F   UNL     1      -0.195   9.351  23.871  0.00  0.00    +0.000 F 
ATOM     14  C   UNL     1       0.086  11.050  22.266  0.00  0.00    +0.000 A 
ATOM     15  C   UNL     1       0.416  11.343  20.956  0.00  0.00    +0.000 A 
ATOM     16  C   UNL     1      -0.256  12.380  20.131  0.00  0.00    +0.000 C 
ATOM     17  O   UNL     1      -0.829  13.352  20.584  0.00  0.00    +0.000 OA
BRANCH  10  18
ATOM     18  C   UNL     1       1.349   7.973  19.472  0.00  0.00    +0.000 C 
ATOM     19  F   UNL     1       2.512   7.305  19.722  0.00  0.00    +0.000 F 
ENDBRANCH  10  18
ENDBRANCH   5   7
BRANCH   1  20
ATOM     20  C   UNL     1      -5.329  11.952  18.725  0.00  0.00    +0.000 C 
ATOM     21  C   UNL     1      -6.463  12.066  17.654  0.00  0.00    +0.000 C 
ATOM     22  N   UNL     1      -7.068  10.819  18.140  0.00  0.00    +0.000 NA
ATOM     23  C   UNL     1      -6.237  10.840  19.346  0.00  0.00    +0.000 C 
ATOM     24  H   UNL     1      -6.867  10.023  17.531  0.00  0.00    +0.000 HD
BRANCH  20  25
ATOM     25  C   UNL     1      -5.184  13.180  19.658  0.00  0.00    +0.000 C 
BRANCH  25  31
ATOM     26  C   UNL     1      -7.913  13.736  21.147  0.00  0.00    +0.000 C 
ATOM     27  N   UNL     1      -6.702  13.212  21.718  0.00  0.00    +0.000 N 
ATOM     28  C   UNL     1      -6.544  12.870  23.028  0.00  0.00    +0.000 A 
ATOM     29  N   UNL     1      -5.339  12.389  23.214  0.00  0.00    +0.000 NA
ATOM     30  N   UNL     1      -4.683  12.439  22.008  0.00  0.00    +0.000 NA
ATOM     31  C   UNL     1      -5.506  12.926  21.098  0.00  0.00    +0.000 A 
ENDBRANCH  25  31
ENDBRANCH  20  25
ENDBRANCH   1  20
TORSDOF 5
ENDMDL
MODEL 8
REMARK VINA RESULT:      -7.3      3.284      6.800
REMARK  Name = 
REMARK  6 active torsions:
REMARK  status: ('A' for Active; 'I' for Inactive)
REMARK    1  A    between atoms: C_1  and  N_2
REMARK    2  A    between atoms: C_6  and  C_7
REMARK    3  A    between atoms: C_7  and  C_8
REMARK    4  A    between atoms: C_8  and  C_9
REMARK    5  A    between atoms: C_13  and  N_14
REMARK    6  A    between atoms: C_17  and  C_18
REMARK                            x       y       z     vdW  Elec       q    Type
REMARK                         _______ _______ _______ _____ _____    ______ ____
ROOT
ATOM      1  C   UNL     1      -1.319  12.045  20.668  0.00  0.00    +0.000 A 
ATOM      2  C   UNL     1      -0.765  11.711  21.919  0.00  0.00    +0.000 A 
ATOM      3  C   UNL     1      -1.534  11.672  23.077  0.00  0.00    +0.000 A 
ATOM      4  C   UNL     1      -2.852  12.099  23.039  0.00  0.00    +0.000 A 
ATOM      5  C   UNL     1      -3.329  12.735  21.884  0.00  0.00    +0.000 A 
ATOM      6  C   UNL     1      -2.628  12.564  20.685  0.00  0.00    +0.000 A 
ENDROOT
BRANCH   5   7
ATOM      7  N   UNL     1      -4.176  13.920  22.009  0.00  0.00    +0.000 N 
ATOM      8  C   UNL     1      -3.431  15.109  21.532  0.00  0.00    +0.000 C 
ATOM      9  C   UNL     1      -2.694  15.516  22.777  0.00  0.00    +0.000 A 
ATOM     10  C   UNL     1      -1.344  15.804  22.956  0.00  0.00    +0.000 A 
ATOM     11  C   UNL     1      -0.855  15.773  24.273  0.00  0.00    +0.000 A 
ATOM     12  C   UNL     1      -1.698  15.461  25.351  0.00  0.00    +0.000 A 
ATOM     13  F   UNL     1      -1.162  15.341  26.573  0.00  0.00    +0.000 F 
ATOM     14  C   UNL     1      -3.039  15.152  25.165  0.00  0.00    +0.000 A 
ATOM     15  C   UNL     1      -3.494  15.153  23.859  0.00  0.00    +0.000 A 
ATOM     16  C   UNL     1      -4.557  14.255  23.340  0.00  0.00    +0.000 C 
ATOM     17  O   UNL     1      -5.428  13.754  24.024  0.00  0.00    +0.000 OA
BRANCH  10  18
ATOM     18  C   UNL     1      -0.384  15.888  21.806  0.00  0.00    +0.000 C 
ATOM     19  F   UNL     1       0.451  14.812  21.735  0.00  0.00    +0.000 F 
ENDBRANCH  10  18
ENDBRANCH   5   7
BRANCH   1  20
ATOM     20  C   UNL     1      -0.495  11.845  19.300  0.00  0.00    +0.000 C 
ATOM     21  C   UNL     1      -1.199  11.004  18.185  0.00  0.00    +0.000 C 
ATOM     22  N   UNL     1      -1.557  12.232  17.463  0.00  0.00    +0.000 NA
ATOM     23  C   UNL     1      -0.647  13.028  18.289  0.00  0.00    +0.000 C 
ATOM     24  H   UNL     1      -2.538  12.488  17.589  0.00  0.00    +0.000 HD
BRANCH  20  25
ATOM     25  C   UNL     1       0.987  11.479  19.559  0.00  0.00    +0.000 C 
BRANCH  25  31
ATOM     26  C   UNL     1       1.072   8.582  20.813  0.00  0.00    +0.000 C 
ATOM     27  N   UNL     1       1.504   8.973  19.499  0.00  0.00    +0.000 N 
ATOM     28  C   UNL     1       2.034   8.127  18.572  0.00  0.00    +0.000 A 
ATOM     29  N   UNL     1       2.285   8.788  17.467  0.00  0.00    +0.000 NA
ATOM     30  N   UNL     1       1.936  10.100  17.682  0.00  0.00    +0.000 NA
ATOM     31  C   UNL     1       1.453  10.215  18.906  0.00  0.00    +0.000 A 
ENDBRANCH  25  31
ENDBRANCH  20  25
ENDBRANCH   1  20
TORSDOF 5
ENDMDL
MODEL 9
REMARK VINA RESULT:      -7.3      5.172      7.916
REMARK  Name = 
REMARK  6 active torsions:
REMARK  status: ('A' for Active; 'I' for Inactive)
REMARK    1  A    between atoms: C_1  and  N_2
REMARK    2  A    between atoms: C_6  and  C_7
REMARK    3  A    between atoms: C_7  and  C_8
REMARK    4  A    between atoms: C_8  and  C_9
REMARK    5  A    between atoms: C_13  and  N_14
REMARK    6  A    between atoms: C_17  and  C_18
REMARK                            x       y       z     vdW  Elec       q    Type
REMARK                         _______ _______ _______ _____ _____    ______ ____
ROOT
ATOM      1  C   UNL     1       1.386   8.791  19.541  0.00  0.00    +0.000 A 
ATOM      2  C   UNL     1       2.062   9.216  18.381  0.00  0.00    +0.000 A 
ATOM      3  C   UNL     1       2.795   8.335  17.594  0.00  0.00    +0.000 A 
ATOM      4  C   UNL     1       2.988   7.031  18.022  0.00  0.00    +0.000 A 
ATOM      5  C   UNL     1       2.598   6.676  19.321  0.00  0.00    +0.000 A 
ATOM      6  C   UNL     1       1.681   7.491  19.994  0.00  0.00    +0.000 A 
ENDROOT
BRANCH   5   7
ATOM      7  N   UNL     1       3.472   5.829  20.132  0.00  0.00    +0.000 N 
ATOM      8  C   UNL     1       4.464   5.164  19.253  0.00  0.00    +0.000 C 
ATOM      9  C   UNL     1       3.701   3.944  18.817  0.00  0.00    +0.000 A 
ATOM     10  C   UNL     1       3.499   3.433  17.539  0.00  0.00    +0.000 A 
ATOM     11  C   UNL     1       2.441   2.523  17.377  0.00  0.00    +0.000 A 
ATOM     12  C   UNL     1       1.628   2.156  18.462  0.00  0.00    +0.000 A 
ATOM     13  F   UNL     1       0.569   1.368  18.234  0.00  0.00    +0.000 F 
ATOM     14  C   UNL     1       1.820   2.686  19.730  0.00  0.00    +0.000 A 
ATOM     15  C   UNL     1       2.843   3.607  19.863  0.00  0.00    +0.000 A 
ATOM     16  C   UNL     1       2.822   4.756  20.804  0.00  0.00    +0.000 C 
ATOM     17  O   UNL     1       2.170   4.792  21.830  0.00  0.00    +0.000 OA
BRANCH  10  18
ATOM     18  C   UNL     1       4.186   4.000  16.332  0.00  0.00    +0.000 C 
ATOM     19  F   UNL     1       5.413   3.446  16.113  0.00  0.00    +0.000 F 
ENDBRANCH  10  18
ENDBRANCH   5   7
BRANCH   1  20
ATOM     20  C   UNL     1       0.337   9.745  20.304  0.00  0.00    +0.000 C 
ATOM     21  C   UNL     1      -0.308   9.166  21.605  0.00  0.00    +0.000 C 
ATOM     22  N   UNL     1       0.600   9.971  22.433  0.00  0.00    +0.000 NA
ATOM     23  C   UNL     1       1.004  10.773  21.275  0.00  0.00    +0.000 C 
ATOM     24  H   UNL     1       1.366   9.419  22.823  0.00  0.00    +0.000 HD
BRANCH  20  25
ATOM     25  C   UNL     1      -0.656  10.421  19.326  0.00  0.00    +0.000 C 
BRANCH  25  31
ATOM     26  C   UNL     1       0.659  13.149  18.431  0.00  0.00    +0.000 C 
ATOM     27  N   UNL     1      -0.458  12.973  19.318  0.00  0.00    +0.000 N 
ATOM     28  C   UNL     1      -1.133  13.987  19.928  0.00  0.00    +0.000 A 
ATOM     29  N   UNL     1      -2.120  13.493  20.637  0.00  0.00    +0.000 NA
ATOM     30  N   UNL     1      -2.076  12.125  20.511  0.00  0.00    +0.000 NA
ATOM     31  C   UNL     1      -1.079  11.806  19.706  0.00  0.00    +0.000 A 
ENDBRANCH  25  31
ENDBRANCH  20  25
ENDBRANCH   1  20
TORSDOF 5
ENDMDL
