MODEL 1
REMARK VINA RESULT:      -9.1      0.000      0.000
REMARK  Name = 
REMARK  6 active torsions:
REMARK  status: ('A' for Active; 'I' for Inactive)
REMARK    1  A    between atoms: C_8  and  S_9
REMARK    2  A    between atoms: S_9  and  N_12
REMARK    3  A    between atoms: N_12  and  C_13
REMARK    4  A    between atoms: C_13  and  C_14
REMARK    5  A    between atoms: C_14  and  C_15
REMARK    6  A    between atoms: C_14  and  C_21
REMARK                            x       y       z     vdW  Elec       q    Type
REMARK                         _______ _______ _______ _____ _____    ______ ____
ROOT
ATOM      1  N   UNL     1       3.348   3.406  17.002  0.00  0.00    +0.000 NA
ATOM      2  H   UNL     1       2.709   4.085  16.587  0.00  0.00    +0.000 HD
ENDROOT
BRANCH   1   3
ATOM      3  S   UNL     1       3.122   3.224  18.673  0.00  0.00    +0.000 S 
ATOM      4  O   UNL     1       4.410   2.929  19.258  0.00  0.00    +0.000 OA
ATOM      5  O   UNL     1       1.972   2.368  18.850  0.00  0.00    +0.000 OA
BRANCH   3  13
ATOM      6  O   UNL     1       2.138  10.514  17.473  0.00  0.00    +0.000 OA
ATOM      7  C   UNL     1       1.982   9.541  18.209  0.00  0.00    +0.000 C 
ATOM      8  C   UNL     1       1.173   9.592  19.504  0.00  0.00    +0.000 C 
ATOM      9  O   UNL     1       1.370   8.592  20.492  0.00  0.00    +0.000 OA
ATOM     10  C   UNL     1       1.788   7.385  20.006  0.00  0.00    +0.000 A 
ATOM     11  C   UNL     1       1.703   6.305  20.885  0.00  0.00    +0.000 A 
ATOM     12  C   UNL     1       2.137   5.041  20.485  0.00  0.00    +0.000 A 
ATOM     13  C   UNL     1       2.652   4.865  19.196  0.00  0.00    +0.000 A 
ATOM     14  C   UNL     1       2.761   5.947  18.311  0.00  0.00    +0.000 A 
ATOM     15  C   UNL     1       2.325   7.207  18.726  0.00  0.00    +0.000 A 
ATOM     16  N   UNL     1       2.454   8.302  17.868  0.00  0.00    +0.000 N 
ATOM     17  H   UNL     1       2.931   8.224  16.980  0.00  0.00    +0.000 HD
ENDBRANCH   3  13
ENDBRANCH   1   3
BRANCH   1  18
ATOM     18  C   UNL     1       4.745   3.405  16.539  0.00  0.00    +0.000 C 
BRANCH  18  19
ATOM     19  C   UNL     1       5.236   4.748  15.950  0.00  0.00    +0.000 C 
BRANCH  19  20
ATOM     20  C   UNL     1       6.189   5.506  16.880  0.00  0.00    +0.000 A 
ATOM     21  C   UNL     1       6.992   4.836  17.818  0.00  0.00    +0.000 A 
ATOM     22  C   UNL     1       7.889   5.539  18.627  0.00  0.00    +0.000 A 
ATOM     23  C   UNL     1       8.000   6.921  18.510  0.00  0.00    +0.000 A 
ATOM     24  C   UNL     1       7.215   7.604  17.585  0.00  0.00    +0.000 A 
ATOM     25  C   UNL     1       6.315   6.902  16.776  0.00  0.00    +0.000 A 
ENDBRANCH  19  20
BRANCH  19  26
ATOM     26  C   UNL     1       5.872   4.532  14.567  0.00  0.00    +0.000 A 
ATOM     27  C   UNL     1       7.085   5.162  14.253  0.00  0.00    +0.000 A 
ATOM     28  C   UNL     1       7.716   4.925  13.027  0.00  0.00    +0.000 A 
ATOM     29  C   UNL     1       7.143   4.061  12.095  0.00  0.00    +0.000 A 
ATOM     30  C   UNL     1       5.932   3.445  12.378  0.00  0.00    +0.000 A 
ATOM     31  C   UNL     1       5.305   3.675  13.602  0.00  0.00    +0.000 A 
ENDBRANCH  19  26
ENDBRANCH  18  19
ENDBRANCH   1  18
TORSDOF 6
ENDMDL
MODEL 2
REMARK VINA RESULT:      -8.9      0.537      1.059
REMARK  Name = 
REMARK  6 active torsions:
REMARK  status: ('A' for Active; 'I' for Inactive)
REMARK    1  A    between atoms: C_8  and  S_9
REMARK    2  A    between atoms: S_9  and  N_12
REMARK    3  A    between atoms: N_12  and  C_13
REMARK    4  A    between atoms: C_13  and  C_14
REMARK    5  A    between atoms: C_14  and  C_15
REMARK    6  A    between atoms: C_14  and  C_21
REMARK                            x       y       z     vdW  Elec       q    Type
REMARK                         _______ _______ _______ _____ _____    ______ ____
ROOT
ATOM      1  N   UNL     1       4.653   3.260  17.854  0.00  0.00    +0.000 NA
ATOM      2  H   UNL     1       5.298   2.735  18.445  0.00  0.00    +0.000 HD
ENDROOT
BRANCH   1   3
ATOM      3  S   UNL     1       3.034   3.084  18.327  0.00  0.00    +0.000 S 
ATOM      4  O   UNL     1       3.002   2.168  19.444  0.00  0.00    +0.000 OA
ATOM      5  O   UNL     1       2.265   2.870  17.123  0.00  0.00    +0.000 OA
BRANCH   3  13
ATOM      6  O   UNL     1       2.167  10.442  17.516  0.00  0.00    +0.000 OA
ATOM      7  C   UNL     1       2.015   9.438  18.209  0.00  0.00    +0.000 C 
ATOM      8  C   UNL     1       1.250   9.441  19.532  0.00  0.00    +0.000 C 
ATOM      9  O   UNL     1       1.459   8.390  20.464  0.00  0.00    +0.000 OA
ATOM     10  C   UNL     1       1.834   7.200  19.905  0.00  0.00    +0.000 A 
ATOM     11  C   UNL     1       1.756   6.080  20.734  0.00  0.00    +0.000 A 
ATOM     12  C   UNL     1       2.149   4.829  20.259  0.00  0.00    +0.000 A 
ATOM     13  C   UNL     1       2.617   4.706  18.946  0.00  0.00    +0.000 A 
ATOM     14  C   UNL     1       2.719   5.828  18.111  0.00  0.00    +0.000 A 
ATOM     15  C   UNL     1       2.325   7.075  18.601  0.00  0.00    +0.000 A 
ATOM     16  N   UNL     1       2.449   8.207  17.793  0.00  0.00    +0.000 N 
ATOM     17  H   UNL     1       2.895   8.164  16.887  0.00  0.00    +0.000 HD
ENDBRANCH   3  13
ENDBRANCH   1   3
BRANCH   1  18
ATOM     18  C   UNL     1       4.901   3.265  16.403  0.00  0.00    +0.000 C 
BRANCH  18  19
ATOM     19  C   UNL     1       5.320   4.636  15.821  0.00  0.00    +0.000 C 
BRANCH  19  20
ATOM     20  C   UNL     1       6.263   5.421  16.739  0.00  0.00    +0.000 A 
ATOM     21  C   UNL     1       6.242   6.825  16.790  0.00  0.00    +0.000 A 
ATOM     22  C   UNL     1       7.077   7.523  17.667  0.00  0.00    +0.000 A 
ATOM     23  C   UNL     1       7.943   6.831  18.508  0.00  0.00    +0.000 A 
ATOM     24  C   UNL     1       7.976   5.439  18.474  0.00  0.00    +0.000 A 
ATOM     25  C   UNL     1       7.143   4.739  17.596  0.00  0.00    +0.000 A 
ENDBRANCH  19  20
BRANCH  19  26
ATOM     26  C   UNL     1       5.931   4.464  14.421  0.00  0.00    +0.000 A 
ATOM     27  C   UNL     1       7.117   5.137  14.091  0.00  0.00    +0.000 A 
ATOM     28  C   UNL     1       7.726   4.942  12.848  0.00  0.00    +0.000 A 
ATOM     29  C   UNL     1       7.159   4.077  11.913  0.00  0.00    +0.000 A 
ATOM     30  C   UNL     1       5.975   3.419  12.211  0.00  0.00    +0.000 A 
ATOM     31  C   UNL     1       5.369   3.607  13.452  0.00  0.00    +0.000 A 
ENDBRANCH  19  26
ENDBRANCH  18  19
ENDBRANCH   1  18
TORSDOF 6
ENDMDL
MODEL 3
REMARK VINA RESULT:      -8.8      2.877      7.088
REMARK  Name = 
REMARK  6 active torsions:
REMARK  status: ('A' for Active; 'I' for Inactive)
REMARK    1  A    between atoms: C_8  and  S_9
REMARK    2  A    between atoms: S_9  and  N_12
REMARK    3  A    between atoms: N_12  and  C_13
REMARK    4  A    between atoms: C_13  and  C_14
REMARK    5  A    between atoms: C_14  and  C_15
REMARK    6  A    between atoms: C_14  and  C_21
REMARK                            x       y       z     vdW  Elec       q    Type
REMARK                         _______ _______ _______ _____ _____    ______ ____
ROOT
ATOM      1  N   UNL     1       5.552   6.207  19.002  0.00  0.00    +0.000 NA
ATOM      2  H   UNL     1       6.210   6.979  18.890  0.00  0.00    +0.000 HD
ENDROOT
BRANCH   1   3
ATOM      3  S   UNL     1       6.275   4.689  18.786  0.00  0.00    +0.000 S 
ATOM      4  O   UNL     1       5.406   3.702  19.385  0.00  0.00    +0.000 OA
ATOM      5  O   UNL     1       7.664   4.828  19.157  0.00  0.00    +0.000 OA
BRANCH   3  13
ATOM      6  O   UNL     1       8.522   6.221  11.848  0.00  0.00    +0.000 OA
ATOM      7  C   UNL     1       7.864   5.509  12.604  0.00  0.00    +0.000 C 
ATOM      8  C   UNL     1       7.143   4.242  12.146  0.00  0.00    +0.000 C 
ATOM      9  O   UNL     1       6.090   3.711  12.938  0.00  0.00    +0.000 OA
ATOM     10  C   UNL     1       6.187   3.986  14.273  0.00  0.00    +0.000 A 
ATOM     11  C   UNL     1       5.358   3.244  15.116  0.00  0.00    +0.000 A 
ATOM     12  C   UNL     1       5.367   3.479  16.491  0.00  0.00    +0.000 A 
ATOM     13  C   UNL     1       6.214   4.461  17.017  0.00  0.00    +0.000 A 
ATOM     14  C   UNL     1       7.036   5.227  16.178  0.00  0.00    +0.000 A 
ATOM     15  C   UNL     1       7.015   4.982  14.803  0.00  0.00    +0.000 A 
ATOM     16  N   UNL     1       7.804   5.756  13.950  0.00  0.00    +0.000 N 
ATOM     17  H   UNL     1       8.333   6.548  14.291  0.00  0.00    +0.000 HD
ENDBRANCH   3  13
ENDBRANCH   1   3
BRANCH   1  18
ATOM     18  C   UNL     1       4.205   6.365  18.429  0.00  0.00    +0.000 C 
BRANCH  18  19
ATOM     19  C   UNL     1       3.061   6.430  19.468  0.00  0.00    +0.000 C 
BRANCH  19  20
ATOM     20  C   UNL     1       2.188   7.682  19.329  0.00  0.00    +0.000 A 
ATOM     21  C   UNL     1       2.012   8.325  18.093  0.00  0.00    +0.000 A 
ATOM     22  C   UNL     1       1.174   9.438  17.977  0.00  0.00    +0.000 A 
ATOM     23  C   UNL     1       0.499   9.925  19.092  0.00  0.00    +0.000 A 
ATOM     24  C   UNL     1       0.659   9.300  20.326  0.00  0.00    +0.000 A 
ATOM     25  C   UNL     1       1.498   8.187  20.445  0.00  0.00    +0.000 A 
ENDBRANCH  19  20
BRANCH  19  26
ATOM     26  C   UNL     1       2.207   5.153  19.411  0.00  0.00    +0.000 A 
ATOM     27  C   UNL     1       1.966   4.531  18.178  0.00  0.00    +0.000 A 
ATOM     28  C   UNL     1       1.249   3.332  18.111  0.00  0.00    +0.000 A 
ATOM     29  C   UNL     1       0.757   2.739  19.273  0.00  0.00    +0.000 A 
ATOM     30  C   UNL     1       0.966   3.351  20.501  0.00  0.00    +0.000 A 
ATOM     31  C   UNL     1       1.685   4.543  20.571  0.00  0.00    +0.000 A 
ENDBRANCH  19  26
ENDBRANCH  18  19
ENDBRANCH   1  18
TORSDOF 6
ENDMDL
MODEL 4
REMARK VINA RESULT:      -8.7      3.921      6.539
REMARK  Name = 
REMARK  6 active torsions:
REMARK  status: ('A' for Active; 'I' for Inactive)
REMARK    1  A    between atoms: C_8  and  S_9
REMARK    2  A    between atoms: S_9  and  N_12
REMARK    3  A    between atoms: N_12  and  C_13
REMARK    4  A    between atoms: C_13  and  C_14
REMARK    5  A    between atoms: C_14  and  C_15
REMARK    6  A    between atoms: C_14  and  C_21
REMARK                            x       y       z     vdW  Elec       q    Type
REMARK                         _______ _______ _______ _____ _____    ______ ____
ROOT
ATOM      1  N   UNL     1       1.639   8.812  18.146  0.00  0.00    +0.000 NA
ATOM      2  H   UNL     1       2.116   9.048  17.276  0.00  0.00    +0.000 HD
ENDROOT
BRANCH   1   3
ATOM      3  S   UNL     1       1.080  10.176  18.984  0.00  0.00    +0.000 S 
ATOM      4  O   UNL     1       1.829  11.317  18.508  0.00  0.00    +0.000 OA
ATOM      5  O   UNL     1       1.018   9.815  20.381  0.00  0.00    +0.000 OA
BRANCH   3  13
ATOM      6  O   UNL     1      -5.760  13.115  19.316  0.00  0.00    +0.000 OA
ATOM      7  C   UNL     1      -4.941  12.430  18.706  0.00  0.00    +0.000 C 
ATOM      8  C   UNL     1      -5.193  11.872  17.306  0.00  0.00    +0.000 C 
ATOM      9  O   UNL     1      -4.418  10.776  16.840  0.00  0.00    +0.000 OA
ATOM     10  C   UNL     1      -3.168  10.689  17.385  0.00  0.00    +0.000 A 
ATOM     11  C   UNL     1      -2.277   9.827  16.746  0.00  0.00    +0.000 A 
ATOM     12  C   UNL     1      -0.989   9.651  17.252  0.00  0.00    +0.000 A 
ATOM     13  C   UNL     1      -0.598  10.347  18.401  0.00  0.00    +0.000 A 
ATOM     14  C   UNL     1      -1.492  11.201  19.063  0.00  0.00    +0.000 A 
ATOM     15  C   UNL     1      -2.779  11.366  18.547  0.00  0.00    +0.000 A 
ATOM     16  N   UNL     1      -3.691  12.189  19.211  0.00  0.00    +0.000 N 
ATOM     17  H   UNL     1      -3.472  12.607  20.105  0.00  0.00    +0.000 HD
ENDBRANCH   3  13
ENDBRANCH   1   3
BRANCH   1  18
ATOM     18  C   UNL     1       2.214   7.739  18.975  0.00  0.00    +0.000 C 
BRANCH  18  19
ATOM     19  C   UNL     1       2.654   6.479  18.194  0.00  0.00    +0.000 C 
BRANCH  19  20
ATOM     20  C   UNL     1       4.175   6.309  18.125  0.00  0.00    +0.000 A 
ATOM     21  C   UNL     1       4.877   5.556  19.081  0.00  0.00    +0.000 A 
ATOM     22  C   UNL     1       6.259   5.373  18.976  0.00  0.00    +0.000 A 
ATOM     23  C   UNL     1       6.960   5.937  17.915  0.00  0.00    +0.000 A 
ATOM     24  C   UNL     1       6.282   6.685  16.955  0.00  0.00    +0.000 A 
ATOM     25  C   UNL     1       4.900   6.871  17.059  0.00  0.00    +0.000 A 
ENDBRANCH  19  20
BRANCH  19  26
ATOM     26  C   UNL     1       1.984   5.222  18.775  0.00  0.00    +0.000 A 
ATOM     27  C   UNL     1       1.706   4.132  17.938  0.00  0.00    +0.000 A 
ATOM     28  C   UNL     1       1.161   2.954  18.458  0.00  0.00    +0.000 A 
ATOM     29  C   UNL     1       0.880   2.849  19.820  0.00  0.00    +0.000 A 
ATOM     30  C   UNL     1       1.128   3.924  20.660  0.00  0.00    +0.000 A 
ATOM     31  C   UNL     1       1.677   5.097  20.145  0.00  0.00    +0.000 A 
ENDBRANCH  19  26
ENDBRANCH  18  19
ENDBRANCH   1  18
TORSDOF 6
ENDMDL
MODEL 5
REMARK VINA RESULT:      -8.7      3.571      6.242
REMARK  Name = 
REMARK  6 active torsions:
REMARK  status: ('A' for Active; 'I' for Inactive)
REMARK    1  A    between atoms: C_8  and  S_9
REMARK    2  A    between atoms: S_9  and  N_12
REMARK    3  A    between atoms: N_12  and  C_13
REMARK    4  A    between atoms: C_13  and  C_14
REMARK    5  A    between atoms: C_14  and  C_15
REMARK    6  A    between atoms: C_14  and  C_21
REMARK                            x       y       z     vdW  Elec       q    Type
REMARK                         _______ _______ _______ _____ _____    ______ ____
ROOT
ATOM      1  N   UNL     1       1.568   8.645  18.973  0.00  0.00    +0.000 NA
ATOM      2  H   UNL     1       1.970   9.176  18.200  0.00  0.00    +0.000 HD
ENDROOT
BRANCH   1   3
ATOM      3  S   UNL     1       0.794   9.628  20.116  0.00  0.00    +0.000 S 
ATOM      4  O   UNL     1       1.691  10.714  20.437  0.00  0.00    +0.000 OA
ATOM      5  O   UNL     1       0.246   8.749  21.124  0.00  0.00    +0.000 OA
BRANCH   3  13
ATOM      6  O   UNL     1      -3.512  10.108  14.053  0.00  0.00    +0.000 OA
ATOM      7  C   UNL     1      -3.317  10.413  15.227  0.00  0.00    +0.000 C 
ATOM      8  C   UNL     1      -4.329  11.188  16.071  0.00  0.00    +0.000 C 
ATOM      9  O   UNL     1      -3.894  11.857  17.245  0.00  0.00    +0.000 OA
ATOM     10  C   UNL     1      -2.801  11.300  17.848  0.00  0.00    +0.000 A 
ATOM     11  C   UNL     1      -2.527  11.732  19.146  0.00  0.00    +0.000 A 
ATOM     12  C   UNL     1      -1.414  11.240  19.827  0.00  0.00    +0.000 A 
ATOM     13  C   UNL     1      -0.577  10.310  19.200  0.00  0.00    +0.000 A 
ATOM     14  C   UNL     1      -0.831   9.885  17.888  0.00  0.00    +0.000 A 
ATOM     15  C   UNL     1      -1.949  10.387  17.217  0.00  0.00    +0.000 A 
ATOM     16  N   UNL     1      -2.199   9.997  15.900  0.00  0.00    +0.000 N 
ATOM     17  H   UNL     1      -1.546   9.421  15.386  0.00  0.00    +0.000 HD
ENDBRANCH   3  13
ENDBRANCH   1   3
BRANCH   1  18
ATOM     18  C   UNL     1       2.351   7.522  19.515  0.00  0.00    +0.000 C 
BRANCH  18  19
ATOM     19  C   UNL     1       2.691   6.413  18.491  0.00  0.00    +0.000 C 
BRANCH  19  20
ATOM     20  C   UNL     1       4.196   6.258  18.244  0.00  0.00    +0.000 A 
ATOM     21  C   UNL     1       4.836   6.894  17.167  0.00  0.00    +0.000 A 
ATOM     22  C   UNL     1       6.217   6.779  16.984  0.00  0.00    +0.000 A 
ATOM     23  C   UNL     1       6.980   6.029  17.874  0.00  0.00    +0.000 A 
ATOM     24  C   UNL     1       6.364   5.393  18.950  0.00  0.00    +0.000 A 
ATOM     25  C   UNL     1       4.983   5.506  19.133  0.00  0.00    +0.000 A 
ENDBRANCH  19  20
BRANCH  19  26
ATOM     26  C   UNL     1       2.062   5.076  18.914  0.00  0.00    +0.000 A 
ATOM     27  C   UNL     1       1.705   4.867  20.254  0.00  0.00    +0.000 A 
ATOM     28  C   UNL     1       1.069   3.685  20.648  0.00  0.00    +0.000 A 
ATOM     29  C   UNL     1       0.785   2.692  19.712  0.00  0.00    +0.000 A 
ATOM     30  C   UNL     1       1.149   2.871  18.385  0.00  0.00    +0.000 A 
ATOM     31  C   UNL     1       1.778   4.050  17.989  0.00  0.00    +0.000 A 
ENDBRANCH  19  26
ENDBRANCH  18  19
ENDBRANCH   1  18
TORSDOF 6
ENDMDL
MODEL 6
REMARK VINA RESULT:      -8.7      0.723      3.503
REMARK  Name = 
REMARK  6 active torsions:
REMARK  status: ('A' for Active; 'I' for Inactive)
REMARK    1  A    between atoms: C_8  and  S_9
REMARK    2  A    between atoms: S_9  and  N_12
REMARK    3  A    between atoms: N_12  and  C_13
REMARK    4  A    between atoms: C_13  and  C_14
REMARK    5  A    between atoms: C_14  and  C_15
REMARK    6  A    between atoms: C_14  and  C_21
REMARK                            x       y       z     vdW  Elec       q    Type
REMARK                         _______ _______ _______ _____ _____    ______ ____
ROOT
ATOM      1  N   UNL     1       4.470   2.928  17.614  0.00  0.00    +0.000 NA
ATOM      2  H   UNL     1       4.932   2.018  17.591  0.00  0.00    +0.000 HD
ENDROOT
BRANCH   1   3
ATOM      3  S   UNL     1       2.850   2.831  18.107  0.00  0.00    +0.000 S 
ATOM      4  O   UNL     1       2.776   1.861  19.176  0.00  0.00    +0.000 OA
ATOM      5  O   UNL     1       2.052   2.730  16.908  0.00  0.00    +0.000 OA
BRANCH   3  13
ATOM      6  O   UNL     1       2.000  10.218  17.598  0.00  0.00    +0.000 OA
ATOM      7  C   UNL     1       1.927   9.198  18.281  0.00  0.00    +0.000 C 
ATOM      8  C   UNL     1       1.351   9.177  19.697  0.00  0.00    +0.000 C 
ATOM      9  O   UNL     1       1.668   8.100  20.566  0.00  0.00    +0.000 OA
ATOM     10  C   UNL     1       1.944   6.920  19.933  0.00  0.00    +0.000 A 
ATOM     11  C   UNL     1       1.962   5.780  20.737  0.00  0.00    +0.000 A 
ATOM     12  C   UNL     1       2.266   4.536  20.183  0.00  0.00    +0.000 A 
ATOM     13  C   UNL     1       2.548   4.442  18.815  0.00  0.00    +0.000 A 
ATOM     14  C   UNL     1       2.553   5.583  18.001  0.00  0.00    +0.000 A 
ATOM     15  C   UNL     1       2.250   6.822  18.570  0.00  0.00    +0.000 A 
ATOM     16  N   UNL     1       2.280   7.973  17.781  0.00  0.00    +0.000 N 
ATOM     17  H   UNL     1       2.597   7.948  16.821  0.00  0.00    +0.000 HD
ENDBRANCH   3  13
ENDBRANCH   1   3
BRANCH   1  18
ATOM     18  C   UNL     1       4.754   3.871  16.520  0.00  0.00    +0.000 C 
BRANCH  18  19
ATOM     19  C   UNL     1       6.255   4.068  16.205  0.00  0.00    +0.000 C 
BRANCH  19  20
ATOM     20  C   UNL     1       6.542   4.251  14.711  0.00  0.00    +0.000 A 
ATOM     21  C   UNL     1       7.603   5.052  14.257  0.00  0.00    +0.000 A 
ATOM     22  C   UNL     1       7.879   5.170  12.892  0.00  0.00    +0.000 A 
ATOM     23  C   UNL     1       7.101   4.490  11.960  0.00  0.00    +0.000 A 
ATOM     24  C   UNL     1       6.047   3.688  12.390  0.00  0.00    +0.000 A 
ATOM     25  C   UNL     1       5.768   3.570  13.755  0.00  0.00    +0.000 A 
ENDBRANCH  19  20
BRANCH  19  26
ATOM     26  C   UNL     1       6.830   5.235  17.024  0.00  0.00    +0.000 A 
ATOM     27  C   UNL     1       7.582   4.972  18.178  0.00  0.00    +0.000 A 
ATOM     28  C   UNL     1       8.171   6.016  18.899  0.00  0.00    +0.000 A 
ATOM     29  C   UNL     1       8.014   7.337  18.482  0.00  0.00    +0.000 A 
ATOM     30  C   UNL     1       7.255   7.620  17.355  0.00  0.00    +0.000 A 
ATOM     31  C   UNL     1       6.672   6.581  16.632  0.00  0.00    +0.000 A 
ENDBRANCH  19  26
ENDBRANCH  18  19
ENDBRANCH   1  18
TORSDOF 6
ENDMDL
MODEL 7
REMARK VINA RESULT:      -8.6      2.711      7.187
REMARK  Name = 
REMARK  6 active torsions:
REMARK  status: ('A' for Active; 'I' for Inactive)
REMARK    1  A    between atoms: C_8  and  S_9
REMARK    2  A    between atoms: S_9  and  N_12
REMARK    3  A    between atoms: N_12  and  C_13
REMARK    4  A    between atoms: C_13  and  C_14
REMARK    5  A    between atoms: C_14  and  C_15
REMARK    6  A    between atoms: C_14  and  C_21
REMARK                            x       y       z     vdW  Elec       q    Type
REMARK                         _______ _______ _______ _____ _____    ______ ____
ROOT
ATOM      1  N   UNL     1       4.736   5.869  19.358  0.00  0.00    +0.000 NA
ATOM      2  H   UNL     1       5.049   6.489  20.105  0.00  0.00    +0.000 HD
ENDROOT
BRANCH   1   3
ATOM      3  S   UNL     1       5.787   4.563  19.101  0.00  0.00    +0.000 S 
ATOM      4  O   UNL     1       5.141   3.376  19.612  0.00  0.00    +0.000 OA
ATOM      5  O   UNL     1       7.097   4.986  19.540  0.00  0.00    +0.000 OA
BRANCH   3  13
ATOM      6  O   UNL     1       8.806   6.035  12.448  0.00  0.00    +0.000 OA
ATOM      7  C   UNL     1       7.986   5.403  13.111  0.00  0.00    +0.000 C 
ATOM      8  C   UNL     1       7.115   4.291  12.528  0.00  0.00    +0.000 C 
ATOM      9  O   UNL     1       5.932   3.899  13.208  0.00  0.00    +0.000 OA
ATOM     10  C   UNL     1       5.960   4.093  14.561  0.00  0.00    +0.000 A 
ATOM     11  C   UNL     1       4.960   3.455  15.295  0.00  0.00    +0.000 A 
ATOM     12  C   UNL     1       4.893   3.622  16.678  0.00  0.00    +0.000 A 
ATOM     13  C   UNL     1       5.836   4.430  17.322  0.00  0.00    +0.000 A 
ATOM     14  C   UNL     1       6.834   5.093  16.592  0.00  0.00    +0.000 A 
ATOM     15  C   UNL     1       6.888   4.918  15.207  0.00  0.00    +0.000 A 
ATOM     16  N   UNL     1       7.855   5.595  14.461  0.00  0.00    +0.000 N 
ATOM     17  H   UNL     1       8.470   6.275  14.886  0.00  0.00    +0.000 HD
ENDBRANCH   3  13
ENDBRANCH   1   3
BRANCH   1  18
ATOM     18  C   UNL     1       4.169   6.486  18.147  0.00  0.00    +0.000 C 
BRANCH  18  19
ATOM     19  C   UNL     1       2.625   6.456  18.066  0.00  0.00    +0.000 C 
BRANCH  19  20
ATOM     20  C   UNL     1       2.008   5.202  18.696  0.00  0.00    +0.000 A 
ATOM     21  C   UNL     1       1.602   4.109  17.914  0.00  0.00    +0.000 A 
ATOM     22  C   UNL     1       1.084   2.954  18.509  0.00  0.00    +0.000 A 
ATOM     23  C   UNL     1       0.967   2.874  19.893  0.00  0.00    +0.000 A 
ATOM     24  C   UNL     1       1.367   3.947  20.686  0.00  0.00    +0.000 A 
ATOM     25  C   UNL     1       1.883   5.103  20.092  0.00  0.00    +0.000 A 
ENDBRANCH  19  20
BRANCH  19  26
ATOM     26  C   UNL     1       2.027   7.733  18.682  0.00  0.00    +0.000 A 
ATOM     27  C   UNL     1       1.709   8.820  17.857  0.00  0.00    +0.000 A 
ATOM     28  C   UNL     1       1.102   9.964  18.386  0.00  0.00    +0.000 A 
ATOM     29  C   UNL     1       0.810  10.041  19.747  0.00  0.00    +0.000 A 
ATOM     30  C   UNL     1       1.137   8.984  20.584  0.00  0.00    +0.000 A 
ATOM     31  C   UNL     1       1.737   7.841  20.058  0.00  0.00    +0.000 A 
ENDBRANCH  19  26
ENDBRANCH  18  19
ENDBRANCH   1  18
TORSDOF 6
ENDMDL
MODEL 8
REMARK VINA RESULT:      -8.5      3.103      7.060
REMARK  Name = 
REMARK  6 active torsions:
REMARK  status: ('A' for Active; 'I' for Inactive)
REMARK    1  A    between atoms: C_8  and  S_9
REMARK    2  A    between atoms: S_9  and  N_12
REMARK    3  A    between atoms: N_12  and  C_13
REMARK    4  A    between atoms: C_13  and  C_14
REMARK    5  A    between atoms: C_14  and  C_15
REMARK    6  A    between atoms: C_14  and  C_21
REMARK                            x       y       z     vdW  Elec       q    Type
REMARK                         _______ _______ _______ _____ _____    ______ ____
ROOT
ATOM      1  N   UNL     1       5.725   5.626  19.416  0.00  0.00    +0.000 NA
ATOM      2  H   UNL     1       5.823   5.934  20.384  0.00  0.00    +0.000 HD
ENDROOT
BRANCH   1   3
ATOM      3  S   UNL     1       7.174   5.732  18.542  0.00  0.00    +0.000 S 
ATOM      4  O   UNL     1       8.119   4.824  19.150  0.00  0.00    +0.000 OA
ATOM      5  O   UNL     1       7.453   7.138  18.360  0.00  0.00    +0.000 OA
BRANCH   3  13
ATOM      6  O   UNL     1       7.777   5.402  11.121  0.00  0.00    +0.000 OA
ATOM      7  C   UNL     1       7.327   4.921  12.159  0.00  0.00    +0.000 C 
ATOM      8  C   UNL     1       6.566   3.597  12.208  0.00  0.00    +0.000 C 
ATOM      9  O   UNL     1       5.733   3.309  13.322  0.00  0.00    +0.000 OA
ATOM     10  C   UNL     1       6.114   3.911  14.489  0.00  0.00    +0.000 A 
ATOM     11  C   UNL     1       5.518   3.427  15.654  0.00  0.00    +0.000 A 
ATOM     12  C   UNL     1       5.823   4.002  16.887  0.00  0.00    +0.000 A 
ATOM     13  C   UNL     1       6.731   5.065  16.947  0.00  0.00    +0.000 A 
ATOM     14  C   UNL     1       7.320   5.574  15.780  0.00  0.00    +0.000 A 
ATOM     15  C   UNL     1       7.004   4.989  14.552  0.00  0.00    +0.000 A 
ATOM     16  N   UNL     1       7.558   5.503  13.377  0.00  0.00    +0.000 N 
ATOM     17  H   UNL     1       8.121   6.343  13.381  0.00  0.00    +0.000 HD
ENDBRANCH   3  13
ENDBRANCH   1   3
BRANCH   1  18
ATOM     18  C   UNL     1       4.506   6.018  18.690  0.00  0.00    +0.000 C 
BRANCH  18  19
ATOM     19  C   UNL     1       3.233   6.114  19.563  0.00  0.00    +0.000 C 
BRANCH  19  20
ATOM     20  C   UNL     1       2.421   7.390  19.312  0.00  0.00    +0.000 A 
ATOM     21  C   UNL     1       1.672   7.999  20.332  0.00  0.00    +0.000 A 
ATOM     22  C   UNL     1       0.975   9.188  20.098  0.00  0.00    +0.000 A 
ATOM     23  C   UNL     1       1.017   9.787  18.842  0.00  0.00    +0.000 A 
ATOM     24  C   UNL     1       1.756   9.199  17.819  0.00  0.00    +0.000 A 
ATOM     25  C   UNL     1       2.453   8.009  18.051  0.00  0.00    +0.000 A 
ENDBRANCH  19  20
BRANCH  19  26
ATOM     26  C   UNL     1       2.359   4.861  19.385  0.00  0.00    +0.000 A 
ATOM     27  C   UNL     1       2.322   4.210  18.144  0.00  0.00    +0.000 A 
ATOM     28  C   UNL     1       1.588   3.030  17.979  0.00  0.00    +0.000 A 
ATOM     29  C   UNL     1       0.877   2.488  19.048  0.00  0.00    +0.000 A 
ATOM     30  C   UNL     1       0.884   3.129  20.278  0.00  0.00    +0.000 A 
ATOM     31  C   UNL     1       1.619   4.302  20.447  0.00  0.00    +0.000 A 
ENDBRANCH  19  26
ENDBRANCH  18  19
ENDBRANCH   1  18
TORSDOF 6
ENDMDL
MODEL 9
REMARK VINA RESULT:      -8.4      1.097      1.969
REMARK  Name = 
REMARK  6 active torsions:
REMARK  status: ('A' for Active; 'I' for Inactive)
REMARK    1  A    between atoms: C_8  and  S_9
REMARK    2  A    between atoms: S_9  and  N_12
REMARK    3  A    between atoms: N_12  and  C_13
REMARK    4  A    between atoms: C_13  and  C_14
REMARK    5  A    between atoms: C_14  and  C_15
REMARK    6  A    between atoms: C_14  and  C_21
REMARK                            x       y       z     vdW  Elec       q    Type
REMARK                         _______ _______ _______ _____ _____    ______ ____
ROOT
ATOM      1  N   UNL     1       4.121   2.996  17.293  0.00  0.00    +0.000 NA
ATOM      2  H   UNL     1       3.341   3.277  16.699  0.00  0.00    +0.000 HD
ENDROOT
BRANCH   1   3
ATOM      3  S   UNL     1       3.820   3.255  18.942  0.00  0.00    +0.000 S 
ATOM      4  O   UNL     1       5.099   3.338  19.611  0.00  0.00    +0.000 OA
ATOM      5  O   UNL     1       2.797   2.314  19.335  0.00  0.00    +0.000 OA
BRANCH   3  13
ATOM      6  O   UNL     1       0.782   9.077  22.463  0.00  0.00    +0.000 OA
ATOM      7  C   UNL     1       1.235   8.599  21.425  0.00  0.00    +0.000 C 
ATOM      8  C   UNL     1       1.436   9.411  20.147  0.00  0.00    +0.000 C 
ATOM      9  O   UNL     1       1.558   8.739  18.902  0.00  0.00    +0.000 OA
ATOM     10  C   UNL     1       2.072   7.475  18.986  0.00  0.00    +0.000 A 
ATOM     11  C   UNL     1       2.488   6.899  17.784  0.00  0.00    +0.000 A 
ATOM     12  C   UNL     1       2.996   5.600  17.769  0.00  0.00    +0.000 A 
ATOM     13  C   UNL     1       3.088   4.882  18.967  0.00  0.00    +0.000 A 
ATOM     14  C   UNL     1       2.655   5.443  20.177  0.00  0.00    +0.000 A 
ATOM     15  C   UNL     1       2.146   6.744  20.176  0.00  0.00    +0.000 A 
ATOM     16  N   UNL     1       1.681   7.306  21.367  0.00  0.00    +0.000 N 
ATOM     17  H   UNL     1       1.626   6.766  22.221  0.00  0.00    +0.000 HD
ENDBRANCH   3  13
ENDBRANCH   1   3
BRANCH   1  18
ATOM     18  C   UNL     1       5.484   3.308  16.831  0.00  0.00    +0.000 C 
BRANCH  18  19
ATOM     19  C   UNL     1       5.644   4.699  16.175  0.00  0.00    +0.000 C 
BRANCH  19  20
ATOM     20  C   UNL     1       6.549   5.645  16.973  0.00  0.00    +0.000 A 
ATOM     21  C   UNL     1       6.611   7.020  16.690  0.00  0.00    +0.000 A 
ATOM     22  C   UNL     1       7.407   7.874  17.458  0.00  0.00    +0.000 A 
ATOM     23  C   UNL     1       8.152   7.370  18.520  0.00  0.00    +0.000 A 
ATOM     24  C   UNL     1       8.102   6.011  18.818  0.00  0.00    +0.000 A 
ATOM     25  C   UNL     1       7.308   5.154  18.050  0.00  0.00    +0.000 A 
ENDBRANCH  19  20
BRANCH  19  26
ATOM     26  C   UNL     1       6.135   4.560  14.725  0.00  0.00    +0.000 A 
ATOM     27  C   UNL     1       7.314   5.205  14.324  0.00  0.00    +0.000 A 
ATOM     28  C   UNL     1       7.815   5.036  13.029  0.00  0.00    +0.000 A 
ATOM     29  C   UNL     1       7.145   4.226  12.114  0.00  0.00    +0.000 A 
ATOM     30  C   UNL     1       5.965   3.596  12.485  0.00  0.00    +0.000 A 
ATOM     31  C   UNL     1       5.467   3.758  13.777  0.00  0.00    +0.000 A 
ENDBRANCH  19  26
ENDBRANCH  18  19
ENDBRANCH   1  18
TORSDOF 6
ENDMDL
