MODEL 1
REMARK VINA RESULT:      -9.0      0.000      0.000
REMARK  Name = 
REMARK  6 active torsions:
REMARK  status: ('A' for Active; 'I' for Inactive)
REMARK    1  A    between atoms: C_1  and  C_2
REMARK    2  A    between atoms: C_8  and  C_9
REMARK    3  A    between atoms: N_11  and  C_12
REMARK    4  A    between atoms: N_19  and  C_20
REMARK    5  A    between atoms: C_20  and  C_21
REMARK    6  A    between atoms: C_24  and  C_25
REMARK                            x       y       z     vdW  Elec       q    Type
REMARK                         _______ _______ _______ _____ _____    ______ ____
ROOT
ATOM      1  C   UNL     1       2.063   5.438  20.116  0.00  0.00    +0.000 C 
ATOM      2  C   UNL     1       1.704   4.835  18.727  0.00  0.00    +0.000 C 
ATOM      3  C   UNL     1       2.516   3.550  18.366  0.00  0.00    +0.000 C 
ATOM      4  C   UNL     1       1.776   2.248  18.632  0.00  0.00    +0.000 C 
ATOM      5  C   UNL     1       1.818   2.129  20.149  0.00  0.00    +0.000 C 
ATOM      6  C   UNL     1       2.928   3.136  20.584  0.00  0.00    +0.000 C 
ATOM      7  C   UNL     1       2.226   4.372  21.184  0.00  0.00    +0.000 C 
ATOM      8  N   UNL     1       3.635   3.336  19.300  0.00  0.00    +0.000 NA
ENDROOT
BRANCH   1  11
ATOM      9  C   UNL     1       1.558   7.896  20.133  0.00  0.00    +0.000 C 
ATOM     10  O   UNL     1       2.293   8.193  19.200  0.00  0.00    +0.000 OA
ATOM     11  N   UNL     1       1.323   6.614  20.536  0.00  0.00    +0.000 N 
ATOM     12  H   UNL     1       0.487   6.445  21.076  0.00  0.00    +0.000 HD
BRANCH   9  20
ATOM     13  C   UNL     1      -0.061  10.264  18.844  0.00  0.00    +0.000 C 
ATOM     14  C   UNL     1       0.081  10.014  20.322  0.00  0.00    +0.000 A 
ATOM     15  C   UNL     1      -0.648  10.855  21.185  0.00  0.00    +0.000 A 
ATOM     16  C   UNL     1      -0.602  10.676  22.564  0.00  0.00    +0.000 A 
ATOM     17  F   UNL     1      -1.328  11.475  23.355  0.00  0.00    +0.000 F 
ATOM     18  C   UNL     1       0.173   9.676  23.128  0.00  0.00    +0.000 A 
ATOM     19  C   UNL     1       0.891   8.821  22.296  0.00  0.00    +0.000 A 
ATOM     20  C   UNL     1       0.849   8.968  20.897  0.00  0.00    +0.000 A 
ENDBRANCH   9  20
ENDBRANCH   1  11
BRANCH   8  21
ATOM     21  C   UNL     1       4.694   4.301  19.002  0.00  0.00    +0.000 C 
BRANCH  21  22
ATOM     22  C   UNL     1       5.375   4.339  17.659  0.00  0.00    +0.000 A 
ATOM     23  C   UNL     1       4.661   4.434  16.461  0.00  0.00    +0.000 A 
ATOM     24  C   UNL     1       5.336   4.688  15.257  0.00  0.00    +0.000 A 
ATOM     25  C   UNL     1       6.724   4.859  15.241  0.00  0.00    +0.000 A 
ATOM     26  C   UNL     1       7.447   4.768  16.434  0.00  0.00    +0.000 A 
ATOM     27  C   UNL     1       6.772   4.512  17.627  0.00  0.00    +0.000 A 
BRANCH  25  28
ATOM     28  C   UNL     1       7.402   5.157  14.014  0.00  0.00    +0.000 C 
ATOM     29  N   UNL     1       7.960   5.404  13.022  0.00  0.00    +0.000 NA
ENDBRANCH  25  28
ENDBRANCH  21  22
ENDBRANCH   8  21
TORSDOF 5
ENDMDL
MODEL 2
REMARK VINA RESULT:      -8.8      2.015      2.286
REMARK  Name = 
REMARK  6 active torsions:
REMARK  status: ('A' for Active; 'I' for Inactive)
REMARK    1  A    between atoms: C_1  and  C_2
REMARK    2  A    between atoms: C_8  and  C_9
REMARK    3  A    between atoms: N_11  and  C_12
REMARK    4  A    between atoms: N_19  and  C_20
REMARK    5  A    between atoms: C_20  and  C_21
REMARK    6  A    between atoms: C_24  and  C_25
REMARK                            x       y       z     vdW  Elec       q    Type
REMARK                         _______ _______ _______ _____ _____    ______ ____
ROOT
ATOM      1  C   UNL     1       2.691   5.264  18.968  0.00  0.00    +0.000 C 
ATOM      2  C   UNL     1       1.910   4.110  18.277  0.00  0.00    +0.000 C 
ATOM      3  C   UNL     1       2.821   2.953  17.755  0.00  0.00    +0.000 C 
ATOM      4  C   UNL     1       2.902   1.752  18.685  0.00  0.00    +0.000 C 
ATOM      5  C   UNL     1       3.788   2.251  19.818  0.00  0.00    +0.000 C 
ATOM      6  C   UNL     1       4.473   3.527  19.239  0.00  0.00    +0.000 C 
ATOM      7  C   UNL     1       3.791   4.753  19.882  0.00  0.00    +0.000 C 
ATOM      8  N   UNL     1       4.246   3.328  17.791  0.00  0.00    +0.000 NA
ENDROOT
BRANCH   1  11
ATOM      9  C   UNL     1       2.082   7.684  19.237  0.00  0.00    +0.000 C 
ATOM     10  O   UNL     1       2.791   8.105  18.332  0.00  0.00    +0.000 OA
ATOM     11  N   UNL     1       1.908   6.359  19.512  0.00  0.00    +0.000 N 
ATOM     12  H   UNL     1       1.087   6.100  20.040  0.00  0.00    +0.000 HD
BRANCH   9  20
ATOM     13  C   UNL     1       0.177   9.965  18.208  0.00  0.00    +0.000 C 
ATOM     14  C   UNL     1       0.444   9.645  19.655  0.00  0.00    +0.000 A 
ATOM     15  C   UNL     1      -0.293  10.366  20.615  0.00  0.00    +0.000 A 
ATOM     16  C   UNL     1      -0.133  10.114  21.974  0.00  0.00    +0.000 A 
ATOM     17  F   UNL     1      -0.868  10.798  22.859  0.00  0.00    +0.000 F 
ATOM     18  C   UNL     1       0.763   9.158  22.422  0.00  0.00    +0.000 A 
ATOM     19  C   UNL     1       1.492   8.420  21.494  0.00  0.00    +0.000 A 
ATOM     20  C   UNL     1       1.338   8.642  20.112  0.00  0.00    +0.000 A 
ENDBRANCH   9  20
ENDBRANCH   1  11
BRANCH   8  21
ATOM     21  C   UNL     1       4.518   4.268  16.705  0.00  0.00    +0.000 C 
BRANCH  21  22
ATOM     22  C   UNL     1       5.506   5.394  16.860  0.00  0.00    +0.000 A 
ATOM     23  C   UNL     1       5.181   6.721  16.564  0.00  0.00    +0.000 A 
ATOM     24  C   UNL     1       6.052   7.759  16.929  0.00  0.00    +0.000 A 
ATOM     25  C   UNL     1       7.246   7.482  17.603  0.00  0.00    +0.000 A 
ATOM     26  C   UNL     1       7.579   6.159  17.906  0.00  0.00    +0.000 A 
ATOM     27  C   UNL     1       6.713   5.131  17.537  0.00  0.00    +0.000 A 
BRANCH  25  28
ATOM     28  C   UNL     1       8.112   8.550  18.009  0.00  0.00    +0.000 C 
ATOM     29  N   UNL     1       8.821   9.416  18.332  0.00  0.00    +0.000 NA
ENDBRANCH  25  28
ENDBRANCH  21  22
ENDBRANCH   8  21
TORSDOF 5
ENDMDL
MODEL 3
REMARK VINA RESULT:      -8.7      2.143      2.855
REMARK  Name = 
REMARK  6 active torsions:
REMARK  status: ('A' for Active; 'I' for Inactive)
REMARK    1  A    between atoms: C_1  and  C_2
REMARK    2  A    between atoms: C_8  and  C_9
REMARK    3  A    between atoms: N_11  and  C_12
REMARK    4  A    between atoms: N_19  and  C_20
REMARK    5  A    between atoms: C_20  and  C_21
REMARK    6  A    between atoms: C_24  and  C_25
REMARK                            x       y       z     vdW  Elec       q    Type
REMARK                         _______ _______ _______ _____ _____    ______ ____
ROOT
ATOM      1  C   UNL     1       2.587   5.334  18.425  0.00  0.00    +0.000 C 
ATOM      2  C   UNL     1       1.928   4.082  17.779  0.00  0.00    +0.000 C 
ATOM      3  C   UNL     1       2.881   2.849  17.673  0.00  0.00    +0.000 C 
ATOM      4  C   UNL     1       2.705   1.824  18.784  0.00  0.00    +0.000 C 
ATOM      5  C   UNL     1       3.342   2.506  19.987  0.00  0.00    +0.000 C 
ATOM      6  C   UNL     1       4.191   3.662  19.371  0.00  0.00    +0.000 C 
ATOM      7  C   UNL     1       3.437   4.982  19.633  0.00  0.00    +0.000 C 
ATOM      8  N   UNL     1       4.277   3.217  17.963  0.00  0.00    +0.000 NA
ENDROOT
BRANCH   1  11
ATOM      9  C   UNL     1       2.166   7.806  18.514  0.00  0.00    +0.000 C 
ATOM     10  O   UNL     1       3.262   8.147  18.088  0.00  0.00    +0.000 OA
ATOM     11  N   UNL     1       1.751   6.509  18.591  0.00  0.00    +0.000 N 
ATOM     12  H   UNL     1       0.756   6.344  18.643  0.00  0.00    +0.000 HD
BRANCH   9  20
ATOM     13  C   UNL     1       1.453   8.392  21.521  0.00  0.00    +0.000 C 
ATOM     14  C   UNL     1       0.897   9.138  20.336  0.00  0.00    +0.000 A 
ATOM     15  C   UNL     1       0.067  10.244  20.609  0.00  0.00    +0.000 A 
ATOM     16  C   UNL     1      -0.464  11.009  19.576  0.00  0.00    +0.000 A 
ATOM     17  F   UNL     1      -1.227  12.069  19.871  0.00  0.00    +0.000 F 
ATOM     18  C   UNL     1      -0.205  10.699  18.252  0.00  0.00    +0.000 A 
ATOM     19  C   UNL     1       0.625   9.622  17.955  0.00  0.00    +0.000 A 
ATOM     20  C   UNL     1       1.191   8.840  18.980  0.00  0.00    +0.000 A 
ENDBRANCH   9  20
ENDBRANCH   1  11
BRANCH   8  21
ATOM     21  C   UNL     1       4.820   3.956  16.823  0.00  0.00    +0.000 C 
BRANCH  21  22
ATOM     22  C   UNL     1       5.790   5.094  17.006  0.00  0.00    +0.000 A 
ATOM     23  C   UNL     1       5.557   6.368  16.479  0.00  0.00    +0.000 A 
ATOM     24  C   UNL     1       6.371   7.447  16.856  0.00  0.00    +0.000 A 
ATOM     25  C   UNL     1       7.414   7.266  17.770  0.00  0.00    +0.000 A 
ATOM     26  C   UNL     1       7.655   5.997  18.304  0.00  0.00    +0.000 A 
ATOM     27  C   UNL     1       6.845   4.927  17.924  0.00  0.00    +0.000 A 
BRANCH  25  28
ATOM     28  C   UNL     1       8.216   8.380  18.182  0.00  0.00    +0.000 C 
ATOM     29  N   UNL     1       8.864   9.286  18.525  0.00  0.00    +0.000 NA
ENDBRANCH  25  28
ENDBRANCH  21  22
ENDBRANCH   8  21
TORSDOF 5
ENDMDL
MODEL 4
REMARK VINA RESULT:      -8.6      2.117      2.433
REMARK  Name = 
REMARK  6 active torsions:
REMARK  status: ('A' for Active; 'I' for Inactive)
REMARK    1  A    between atoms: C_1  and  C_2
REMARK    2  A    between atoms: C_8  and  C_9
REMARK    3  A    between atoms: N_11  and  C_12
REMARK    4  A    between atoms: N_19  and  C_20
REMARK    5  A    between atoms: C_20  and  C_21
REMARK    6  A    between atoms: C_24  and  C_25
REMARK                            x       y       z     vdW  Elec       q    Type
REMARK                         _______ _______ _______ _____ _____    ______ ____
ROOT
ATOM      1  C   UNL     1       3.138   5.498  18.639  0.00  0.00    +0.000 C 
ATOM      2  C   UNL     1       2.043   4.640  17.942  0.00  0.00    +0.000 C 
ATOM      3  C   UNL     1       2.553   3.251  17.440  0.00  0.00    +0.000 C 
ATOM      4  C   UNL     1       2.242   2.094  18.378  0.00  0.00    +0.000 C 
ATOM      5  C   UNL     1       3.225   2.301  19.521  0.00  0.00    +0.000 C 
ATOM      6  C   UNL     1       4.283   3.294  18.945  0.00  0.00    +0.000 C 
ATOM      7  C   UNL     1       4.011   4.677  19.571  0.00  0.00    +0.000 C 
ATOM      8  N   UNL     1       4.022   3.161  17.495  0.00  0.00    +0.000 NA
ENDROOT
BRANCH   1  11
ATOM      9  C   UNL     1       1.845   6.996  20.181  0.00  0.00    +0.000 C 
ATOM     10  O   UNL     1       1.437   6.111  20.922  0.00  0.00    +0.000 OA
ATOM     11  N   UNL     1       2.730   6.788  19.164  0.00  0.00    +0.000 N 
ATOM     12  H   UNL     1       3.243   7.589  18.827  0.00  0.00    +0.000 HD
BRANCH   9  20
ATOM     13  C   UNL     1       1.517   9.118  17.883  0.00  0.00    +0.000 C 
ATOM     14  C   UNL     1       1.187   9.353  19.334  0.00  0.00    +0.000 A 
ATOM     15  C   UNL     1       0.597  10.589  19.664  0.00  0.00    +0.000 A 
ATOM     16  C   UNL     1       0.231  10.879  20.974  0.00  0.00    +0.000 A 
ATOM     17  F   UNL     1      -0.352  12.052  21.248  0.00  0.00    +0.000 F 
ATOM     18  C   UNL     1       0.446   9.966  21.993  0.00  0.00    +0.000 A 
ATOM     19  C   UNL     1       1.012   8.731  21.692  0.00  0.00    +0.000 A 
ATOM     20  C   UNL     1       1.378   8.404  20.372  0.00  0.00    +0.000 A 
ENDBRANCH   9  20
ENDBRANCH   1  11
BRANCH   8  21
ATOM     21  C   UNL     1       4.588   3.959  16.408  0.00  0.00    +0.000 C 
BRANCH  21  22
ATOM     22  C   UNL     1       5.556   5.082  16.670  0.00  0.00    +0.000 A 
ATOM     23  C   UNL     1       5.220   6.423  16.461  0.00  0.00    +0.000 A 
ATOM     24  C   UNL     1       6.066   7.442  16.923  0.00  0.00    +0.000 A 
ATOM     25  C   UNL     1       7.247   7.133  17.607  0.00  0.00    +0.000 A 
ATOM     26  C   UNL     1       7.591   5.796  17.823  0.00  0.00    +0.000 A 
ATOM     27  C   UNL     1       6.748   4.786  17.359  0.00  0.00    +0.000 A 
BRANCH  25  28
ATOM     28  C   UNL     1       8.086   8.179  18.111  0.00  0.00    +0.000 C 
ATOM     29  N   UNL     1       8.762   9.033  18.525  0.00  0.00    +0.000 NA
ENDBRANCH  25  28
ENDBRANCH  21  22
ENDBRANCH   8  21
TORSDOF 5
ENDMDL
MODEL 5
REMARK VINA RESULT:      -8.5      2.233      2.629
REMARK  Name = 
REMARK  6 active torsions:
REMARK  status: ('A' for Active; 'I' for Inactive)
REMARK    1  A    between atoms: C_1  and  C_2
REMARK    2  A    between atoms: C_8  and  C_9
REMARK    3  A    between atoms: N_11  and  C_12
REMARK    4  A    between atoms: N_19  and  C_20
REMARK    5  A    between atoms: C_20  and  C_21
REMARK    6  A    between atoms: C_24  and  C_25
REMARK                            x       y       z     vdW  Elec       q    Type
REMARK                         _______ _______ _______ _____ _____    ______ ____
ROOT
ATOM      1  C   UNL     1       2.891   5.352  18.896  0.00  0.00    +0.000 C 
ATOM      2  C   UNL     1       2.154   4.401  17.910  0.00  0.00    +0.000 C 
ATOM      3  C   UNL     1       3.060   3.273  17.321  0.00  0.00    +0.000 C 
ATOM      4  C   UNL     1       2.927   1.931  18.025  0.00  0.00    +0.000 C 
ATOM      5  C   UNL     1       3.661   2.155  19.340  0.00  0.00    +0.000 C 
ATOM      6  C   UNL     1       4.502   3.447  19.097  0.00  0.00    +0.000 C 
ATOM      7  C   UNL     1       3.808   4.602  19.846  0.00  0.00    +0.000 C 
ATOM      8  N   UNL     1       4.483   3.512  17.619  0.00  0.00    +0.000 NA
ENDROOT
BRANCH   1  11
ATOM      9  C   UNL     1       2.034   7.701  19.098  0.00  0.00    +0.000 C 
ATOM     10  O   UNL     1       2.468   8.098  18.024  0.00  0.00    +0.000 OA
ATOM     11  N   UNL     1       2.103   6.403  19.512  0.00  0.00    +0.000 N 
ATOM     12  H   UNL     1       1.458   6.113  20.233  0.00  0.00    +0.000 HD
BRANCH   9  20
ATOM     13  C   UNL     1       0.175  10.087  18.236  0.00  0.00    +0.000 C 
ATOM     14  C   UNL     1       0.500   9.711  19.657  0.00  0.00    +0.000 A 
ATOM     15  C   UNL     1      -0.158  10.429  20.675  0.00  0.00    +0.000 A 
ATOM     16  C   UNL     1       0.058  10.128  22.016  0.00  0.00    +0.000 A 
ATOM     17  F   UNL     1      -0.604  10.811  22.957  0.00  0.00    +0.000 F 
ATOM     18  C   UNL     1       0.936   9.124  22.389  0.00  0.00    +0.000 A 
ATOM     19  C   UNL     1       1.587   8.388  21.403  0.00  0.00    +0.000 A 
ATOM     20  C   UNL     1       1.374   8.660  20.038  0.00  0.00    +0.000 A 
ENDBRANCH   9  20
ENDBRANCH   1  11
BRANCH   8  21
ATOM     21  C   UNL     1       4.973   4.594  16.764  0.00  0.00    +0.000 C 
BRANCH  21  22
ATOM     22  C   UNL     1       5.797   5.727  17.315  0.00  0.00    +0.000 A 
ATOM     23  C   UNL     1       6.995   5.515  18.004  0.00  0.00    +0.000 A 
ATOM     24  C   UNL     1       7.836   6.597  18.305  0.00  0.00    +0.000 A 
ATOM     25  C   UNL     1       7.496   7.895  17.912  0.00  0.00    +0.000 A 
ATOM     26  C   UNL     1       6.301   8.118  17.221  0.00  0.00    +0.000 A 
ATOM     27  C   UNL     1       5.466   7.040  16.927  0.00  0.00    +0.000 A 
BRANCH  25  28
ATOM     28  C   UNL     1       8.378   8.990  18.187  0.00  0.00    +0.000 C 
ATOM     29  N   UNL     1       9.090   9.883  18.416  0.00  0.00    +0.000 NA
ENDBRANCH  25  28
ENDBRANCH  21  22
ENDBRANCH   8  21
TORSDOF 5
ENDMDL
MODEL 6
REMARK VINA RESULT:      -8.4      2.350      3.116
REMARK  Name = 
REMARK  6 active torsions:
REMARK  status: ('A' for Active; 'I' for Inactive)
REMARK    1  A    between atoms: C_1  and  C_2
REMARK    2  A    between atoms: C_8  and  C_9
REMARK    3  A    between atoms: N_11  and  C_12
REMARK    4  A    between atoms: N_19  and  C_20
REMARK    5  A    between atoms: C_20  and  C_21
REMARK    6  A    between atoms: C_24  and  C_25
REMARK                            x       y       z     vdW  Elec       q    Type
REMARK                         _______ _______ _______ _____ _____    ______ ____
ROOT
ATOM      1  C   UNL     1       2.835   5.432  18.502  0.00  0.00    +0.000 C 
ATOM      2  C   UNL     1       2.328   4.256  17.619  0.00  0.00    +0.000 C 
ATOM      3  C   UNL     1       3.347   3.080  17.486  0.00  0.00    +0.000 C 
ATOM      4  C   UNL     1       3.081   1.912  18.424  0.00  0.00    +0.000 C 
ATOM      5  C   UNL     1       3.523   2.448  19.778  0.00  0.00    +0.000 C 
ATOM      6  C   UNL     1       4.385   3.702  19.434  0.00  0.00    +0.000 C 
ATOM      7  C   UNL     1       3.539   4.951  19.758  0.00  0.00    +0.000 C 
ATOM      8  N   UNL     1       4.675   3.452  18.005  0.00  0.00    +0.000 NA
ENDROOT
BRANCH   1  11
ATOM      9  C   UNL     1       2.209   7.862  18.474  0.00  0.00    +0.000 C 
ATOM     10  O   UNL     1       3.200   8.252  17.871  0.00  0.00    +0.000 OA
ATOM     11  N   UNL     1       1.927   6.547  18.702  0.00  0.00    +0.000 N 
ATOM     12  H   UNL     1       0.968   6.309  18.910  0.00  0.00    +0.000 HD
BRANCH   9  20
ATOM     13  C   UNL     1       1.542   8.307  21.516  0.00  0.00    +0.000 C 
ATOM     14  C   UNL     1       0.944   9.085  20.374  0.00  0.00    +0.000 A 
ATOM     15  C   UNL     1       0.093  10.157  20.708  0.00  0.00    +0.000 A 
ATOM     16  C   UNL     1      -0.479  10.950  19.718  0.00  0.00    +0.000 A 
ATOM     17  F   UNL     1      -1.262  11.977  20.071  0.00  0.00    +0.000 F 
ATOM     18  C   UNL     1      -0.239  10.701  18.377  0.00  0.00    +0.000 A 
ATOM     19  C   UNL     1       0.612   9.658  18.020  0.00  0.00    +0.000 A 
ATOM     20  C   UNL     1       1.217   8.850  19.001  0.00  0.00    +0.000 A 
ENDBRANCH   9  20
ENDBRANCH   1  11
BRANCH   8  21
ATOM     21  C   UNL     1       5.322   4.354  17.052  0.00  0.00    +0.000 C 
BRANCH  21  22
ATOM     22  C   UNL     1       6.050   5.593  17.503  0.00  0.00    +0.000 A 
ATOM     23  C   UNL     1       7.129   5.546  18.390  0.00  0.00    +0.000 A 
ATOM     24  C   UNL     1       7.911   6.689  18.610  0.00  0.00    +0.000 A 
ATOM     25  C   UNL     1       7.631   7.884  17.939  0.00  0.00    +0.000 A 
ATOM     26  C   UNL     1       6.555   7.941  17.048  0.00  0.00    +0.000 A 
ATOM     27  C   UNL     1       5.778   6.803  16.835  0.00  0.00    +0.000 A 
BRANCH  25  28
ATOM     28  C   UNL     1       8.458   9.037  18.137  0.00  0.00    +0.000 C 
ATOM     29  N   UNL     1       9.135   9.973  18.291  0.00  0.00    +0.000 NA
ENDBRANCH  25  28
ENDBRANCH  21  22
ENDBRANCH   8  21
TORSDOF 5
ENDMDL
MODEL 7
REMARK VINA RESULT:      -8.4      2.134      2.778
REMARK  Name = 
REMARK  6 active torsions:
REMARK  status: ('A' for Active; 'I' for Inactive)
REMARK    1  A    between atoms: C_1  and  C_2
REMARK    2  A    between atoms: C_8  and  C_9
REMARK    3  A    between atoms: N_11  and  C_12
REMARK    4  A    between atoms: N_19  and  C_20
REMARK    5  A    between atoms: C_20  and  C_21
REMARK    6  A    between atoms: C_24  and  C_25
REMARK                            x       y       z     vdW  Elec       q    Type
REMARK                         _______ _______ _______ _____ _____    ______ ____
ROOT
ATOM      1  C   UNL     1       3.051   5.599  18.631  0.00  0.00    +0.000 C 
ATOM      2  C   UNL     1       1.978   4.642  18.036  0.00  0.00    +0.000 C 
ATOM      3  C   UNL     1       2.487   3.182  17.811  0.00  0.00    +0.000 C 
ATOM      4  C   UNL     1       2.107   2.209  18.917  0.00  0.00    +0.000 C 
ATOM      5  C   UNL     1       3.033   2.604  20.058  0.00  0.00    +0.000 C 
ATOM      6  C   UNL     1       4.138   3.471  19.377  0.00  0.00    +0.000 C 
ATOM      7  C   UNL     1       3.859   4.945  19.738  0.00  0.00    +0.000 C 
ATOM      8  N   UNL     1       3.950   3.090  17.960  0.00  0.00    +0.000 NA
ENDROOT
BRANCH   1  11
ATOM      9  C   UNL     1       1.839   7.372  19.929  0.00  0.00    +0.000 C 
ATOM     10  O   UNL     1       1.532   6.661  20.877  0.00  0.00    +0.000 OA
ATOM     11  N   UNL     1       2.640   6.964  18.902  0.00  0.00    +0.000 N 
ATOM     12  H   UNL     1       3.090   7.682  18.354  0.00  0.00    +0.000 HD
BRANCH   9  20
ATOM     13  C   UNL     1       0.835   9.065  22.382  0.00  0.00    +0.000 C 
ATOM     14  C   UNL     1       0.922   9.561  20.963  0.00  0.00    +0.000 A 
ATOM     15  C   UNL     1       0.619  10.919  20.741  0.00  0.00    +0.000 A 
ATOM     16  C   UNL     1       0.704  11.471  19.467  0.00  0.00    +0.000 A 
ATOM     17  F   UNL     1       0.435  12.771  19.296  0.00  0.00    +0.000 F 
ATOM     18  C   UNL     1       1.076  10.700  18.379  0.00  0.00    +0.000 A 
ATOM     19  C   UNL     1       1.397   9.359  18.573  0.00  0.00    +0.000 A 
ATOM     20  C   UNL     1       1.336   8.778  19.854  0.00  0.00    +0.000 A 
ENDBRANCH   9  20
ENDBRANCH   1  11
BRANCH   8  21
ATOM     21  C   UNL     1       4.587   3.681  16.783  0.00  0.00    +0.000 C 
BRANCH  21  22
ATOM     22  C   UNL     1       5.530   4.850  16.896  0.00  0.00    +0.000 A 
ATOM     23  C   UNL     1       5.196   6.127  16.436  0.00  0.00    +0.000 A 
ATOM     24  C   UNL     1       6.007   7.226  16.756  0.00  0.00    +0.000 A 
ATOM     25  C   UNL     1       7.150   7.062  17.546  0.00  0.00    +0.000 A 
ATOM     26  C   UNL     1       7.491   5.789  18.012  0.00  0.00    +0.000 A 
ATOM     27  C   UNL     1       6.684   4.699  17.688  0.00  0.00    +0.000 A 
BRANCH  25  28
ATOM     28  C   UNL     1       7.951   8.194  17.903  0.00  0.00    +0.000 C 
ATOM     29  N   UNL     1       8.598   9.120  18.188  0.00  0.00    +0.000 NA
ENDBRANCH  25  28
ENDBRANCH  21  22
ENDBRANCH   8  21
TORSDOF 5
ENDMDL
MODEL 8
REMARK VINA RESULT:      -8.2      3.825      8.321
REMARK  Name = 
REMARK  6 active torsions:
REMARK  status: ('A' for Active; 'I' for Inactive)
REMARK    1  A    between atoms: C_1  and  C_2
REMARK    2  A    between atoms: C_8  and  C_9
REMARK    3  A    between atoms: N_11  and  C_12
REMARK    4  A    between atoms: N_19  and  C_20
REMARK    5  A    between atoms: C_20  and  C_21
REMARK    6  A    between atoms: C_24  and  C_25
REMARK                            x       y       z     vdW  Elec       q    Type
REMARK                         _______ _______ _______ _____ _____    ______ ____
ROOT
ATOM      1  C   UNL     1       3.659   4.059  17.728  0.00  0.00    +0.000 C 
ATOM      2  C   UNL     1       4.035   3.231  18.990  0.00  0.00    +0.000 C 
ATOM      3  C   UNL     1       3.015   3.370  20.165  0.00  0.00    +0.000 C 
ATOM      4  C   UNL     1       2.008   2.234  20.258  0.00  0.00    +0.000 C 
ATOM      5  C   UNL     1       1.063   2.512  19.098  0.00  0.00    +0.000 C 
ATOM      6  C   UNL     1       1.357   3.995  18.708  0.00  0.00    +0.000 C 
ATOM      7  C   UNL     1       2.178   3.978  17.403  0.00  0.00    +0.000 C 
ATOM      8  N   UNL     1       2.057   4.464  19.924  0.00  0.00    +0.000 NA
ENDROOT
BRANCH   1  11
ATOM      9  C   UNL     1       4.958   4.981  15.789  0.00  0.00    +0.000 C 
ATOM     10  O   UNL     1       4.806   6.162  16.072  0.00  0.00    +0.000 OA
ATOM     11  N   UNL     1       4.542   3.951  16.581  0.00  0.00    +0.000 N 
ATOM     12  H   UNL     1       4.979   3.052  16.438  0.00  0.00    +0.000 HD
BRANCH   9  20
ATOM     13  C   UNL     1       7.945   5.657  15.071  0.00  0.00    +0.000 C 
ATOM     14  C   UNL     1       7.002   4.863  14.204  0.00  0.00    +0.000 A 
ATOM     15  C   UNL     1       7.535   4.304  13.026  0.00  0.00    +0.000 A 
ATOM     16  C   UNL     1       6.745   3.530  12.183  0.00  0.00    +0.000 A 
ATOM     17  F   UNL     1       7.290   2.991  11.085  0.00  0.00    +0.000 F 
ATOM     18  C   UNL     1       5.410   3.298  12.469  0.00  0.00    +0.000 A 
ATOM     19  C   UNL     1       4.863   3.826  13.635  0.00  0.00    +0.000 A 
ATOM     20  C   UNL     1       5.644   4.599  14.516  0.00  0.00    +0.000 A 
ENDBRANCH   9  20
ENDBRANCH   1  11
BRANCH   8  21
ATOM     21  C   UNL     1       2.736   5.744  20.128  0.00  0.00    +0.000 C 
BRANCH  21  22
ATOM     22  C   UNL     1       2.075   7.053  19.788  0.00  0.00    +0.000 A 
ATOM     23  C   UNL     1       1.413   7.828  20.744  0.00  0.00    +0.000 A 
ATOM     24  C   UNL     1       1.006   9.135  20.435  0.00  0.00    +0.000 A 
ATOM     25  C   UNL     1       1.267   9.682  19.174  0.00  0.00    +0.000 A 
ATOM     26  C   UNL     1       1.930   8.917  18.212  0.00  0.00    +0.000 A 
ATOM     27  C   UNL     1       2.330   7.617  18.523  0.00  0.00    +0.000 A 
BRANCH  25  28
ATOM     28  C   UNL     1       0.885  11.031  18.878  0.00  0.00    +0.000 C 
ATOM     29  N   UNL     1       0.565  12.126  18.639  0.00  0.00    +0.000 NA
ENDBRANCH  25  28
ENDBRANCH  21  22
ENDBRANCH   8  21
TORSDOF 5
ENDMDL
MODEL 9
REMARK VINA RESULT:      -8.1      3.652      8.244
REMARK  Name = 
REMARK  6 active torsions:
REMARK  status: ('A' for Active; 'I' for Inactive)
REMARK    1  A    between atoms: C_1  and  C_2
REMARK    2  A    between atoms: C_8  and  C_9
REMARK    3  A    between atoms: N_11  and  C_12
REMARK    4  A    between atoms: N_19  and  C_20
REMARK    5  A    between atoms: C_20  and  C_21
REMARK    6  A    between atoms: C_24  and  C_25
REMARK                            x       y       z     vdW  Elec       q    Type
REMARK                         _______ _______ _______ _____ _____    ______ ____
ROOT
ATOM      1  C   UNL     1       3.120   5.010  18.389  0.00  0.00    +0.000 C 
ATOM      2  C   UNL     1       3.799   4.290  19.590  0.00  0.00    +0.000 C 
ATOM      3  C   UNL     1       2.936   4.281  20.892  0.00  0.00    +0.000 C 
ATOM      4  C   UNL     1       2.163   2.990  21.122  0.00  0.00    +0.000 C 
ATOM      5  C   UNL     1       1.039   3.073  20.100  0.00  0.00    +0.000 C 
ATOM      6  C   UNL     1       1.016   4.574  19.672  0.00  0.00    +0.000 C 
ATOM      7  C   UNL     1       1.646   4.667  18.267  0.00  0.00    +0.000 C 
ATOM      8  N   UNL     1       1.779   5.187  20.781  0.00  0.00    +0.000 NA
ENDROOT
BRANCH   1  11
ATOM      9  C   UNL     1       4.577   3.997  16.615  0.00  0.00    +0.000 C 
ATOM     10  O   UNL     1       4.540   2.851  17.045  0.00  0.00    +0.000 OA
ATOM     11  N   UNL     1       3.847   5.027  17.133  0.00  0.00    +0.000 N 
ATOM     12  H   UNL     1       3.693   5.829  16.540  0.00  0.00    +0.000 HD
BRANCH   9  20
ATOM     13  C   UNL     1       7.148   5.803  16.742  0.00  0.00    +0.000 C 
ATOM     14  C   UNL     1       6.637   5.109  15.507  0.00  0.00    +0.000 A 
ATOM     15  C   UNL     1       7.429   5.203  14.346  0.00  0.00    +0.000 A 
ATOM     16  C   UNL     1       7.049   4.567  13.169  0.00  0.00    +0.000 A 
ATOM     17  F   UNL     1       7.838   4.654  12.091  0.00  0.00    +0.000 F 
ATOM     18  C   UNL     1       5.876   3.833  13.101  0.00  0.00    +0.000 A 
ATOM     19  C   UNL     1       5.083   3.710  14.239  0.00  0.00    +0.000 A 
ATOM     20  C   UNL     1       5.452   4.330  15.448  0.00  0.00    +0.000 A 
ENDBRANCH   9  20
ENDBRANCH   1  11
BRANCH   8  21
ATOM     21  C   UNL     1       2.246   6.569  20.890  0.00  0.00    +0.000 C 
BRANCH  21  22
ATOM     22  C   UNL     1       1.435   7.722  20.360  0.00  0.00    +0.000 A 
ATOM     23  C   UNL     1       0.497   8.400  21.144  0.00  0.00    +0.000 A 
ATOM     24  C   UNL     1      -0.072   9.598  20.685  0.00  0.00    +0.000 A 
ATOM     25  C   UNL     1       0.300  10.135  19.447  0.00  0.00    +0.000 A 
ATOM     26  C   UNL     1       1.239   9.466  18.657  0.00  0.00    +0.000 A 
ATOM     27  C   UNL     1       1.799   8.274  19.116  0.00  0.00    +0.000 A 
BRANCH  25  28
ATOM     28  C   UNL     1      -0.254  11.379  19.003  0.00  0.00    +0.000 C 
ATOM     29  N   UNL     1      -0.699  12.391  18.634  0.00  0.00    +0.000 NA
ENDBRANCH  25  28
ENDBRANCH  21  22
ENDBRANCH   8  21
TORSDOF 5
ENDMDL
