MODEL 1
REMARK VINA RESULT:      -9.1      0.000      0.000
REMARK  Name = 
REMARK  3 active torsions:
REMARK  status: ('A' for Active; 'I' for Inactive)
REMARK    1  A    between atoms: C_2  and  C_21
REMARK    2  A    between atoms: N_3  and  C_4
REMARK    3  A    between atoms: C_7  and  C_8
REMARK                            x       y       z     vdW  Elec       q    Type
REMARK                         _______ _______ _______ _____ _____    ______ ____
ROOT
ATOM      1  C   UNL     1       7.889   7.390  18.346  0.00  0.00    +0.000 A 
ATOM      2  C   UNL     1       7.853   6.128  18.957  0.00  0.00    +0.000 A 
ATOM      3  C   UNL     1       6.949   5.155  18.521  0.00  0.00    +0.000 A 
ATOM      4  C   UNL     1       6.073   5.422  17.463  0.00  0.00    +0.000 A 
ATOM      5  C   UNL     1       6.095   6.684  16.861  0.00  0.00    +0.000 A 
ATOM      6  C   UNL     1       6.989   7.662  17.312  0.00  0.00    +0.000 A 
ENDROOT
BRANCH   4   7
ATOM      7  C   UNL     1       5.048   4.403  17.104  0.00  0.00    +0.000 C 
ATOM      8  O   UNL     1       4.872   4.130  15.916  0.00  0.00    +0.000 OA
ATOM      9  N   UNL     1       4.453   3.689  18.129  0.00  0.00    +0.000 N 
ATOM     10  C   UNL     1       3.913   2.341  17.865  0.00  0.00    +0.000 C 
ATOM     11  C   UNL     1       3.378   1.881  19.217  0.00  0.00    +0.000 C 
ATOM     12  C   UNL     1       2.830   3.201  19.668  0.00  0.00    +0.000 A 
ATOM     13  C   UNL     1       1.678   3.451  20.390  0.00  0.00    +0.000 A 
ATOM     14  C   UNL     1       1.305   4.782  20.571  0.00  0.00    +0.000 A 
ATOM     15  C   UNL     1       2.120   5.828  20.101  0.00  0.00    +0.000 A 
ATOM     16  C   UNL     1       3.282   5.565  19.366  0.00  0.00    +0.000 A 
ATOM     17  C   UNL     1       3.585   4.244  19.105  0.00  0.00    +0.000 A 
ENDBRANCH   4   7
BRANCH   1  20
ATOM     18  O   UNL     1       7.782  10.268  17.700  0.00  0.00    +0.000 OA
ATOM     19  C   UNL     1       8.659   9.760  18.392  0.00  0.00    +0.000 C 
ATOM     20  N   UNL     1       8.755   8.423  18.747  0.00  0.00    +0.000 N 
ATOM     21  H   UNL     1       9.498   8.205  19.412  0.00  0.00    +0.000 HD
BRANCH  19  22
ATOM     22  C   UNL     1       9.721  10.641  18.956  0.00  0.00    +0.000 A 
ATOM     23  C   UNL     1       9.654  11.009  20.295  0.00  0.00    +0.000 A 
ATOM     24  N   UNL     1      10.563  11.840  20.867  0.00  0.00    +0.000 NA
ATOM     25  C   UNL     1      11.531  12.292  20.039  0.00  0.00    +0.000 A 
ATOM     26  C   UNL     1      11.600  11.921  18.703  0.00  0.00    +0.000 A 
ATOM     27  N   UNL     1      10.709  11.073  18.124  0.00  0.00    +0.000 NA
ENDBRANCH  19  22
ENDBRANCH   1  20
TORSDOF 3
ENDMDL
MODEL 2
REMARK VINA RESULT:      -8.6      0.596      1.376
REMARK  Name = 
REMARK  3 active torsions:
REMARK  status: ('A' for Active; 'I' for Inactive)
REMARK    1  A    between atoms: C_2  and  C_21
REMARK    2  A    between atoms: N_3  and  C_4
REMARK    3  A    between atoms: C_7  and  C_8
REMARK                            x       y       z     vdW  Elec       q    Type
REMARK                         _______ _______ _______ _____ _____    ______ ____
ROOT
ATOM      1  C   UNL     1       7.829   7.688  18.278  0.00  0.00    +0.000 A 
ATOM      2  C   UNL     1       6.815   7.887  17.330  0.00  0.00    +0.000 A 
ATOM      3  C   UNL     1       5.918   6.858  17.024  0.00  0.00    +0.000 A 
ATOM      4  C   UNL     1       6.013   5.620  17.668  0.00  0.00    +0.000 A 
ATOM      5  C   UNL     1       7.031   5.412  18.603  0.00  0.00    +0.000 A 
ATOM      6  C   UNL     1       7.938   6.438  18.893  0.00  0.00    +0.000 A 
ENDROOT
BRANCH   4   7
ATOM      7  C   UNL     1       5.114   4.514  17.234  0.00  0.00    +0.000 C 
ATOM      8  O   UNL     1       5.012   4.268  16.032  0.00  0.00    +0.000 OA
ATOM      9  N   UNL     1       4.557   3.706  18.210  0.00  0.00    +0.000 N 
ATOM     10  C   UNL     1       4.172   2.320  17.881  0.00  0.00    +0.000 C 
ATOM     11  C   UNL     1       3.636   1.760  19.194  0.00  0.00    +0.000 C 
ATOM     12  C   UNL     1       2.936   2.999  19.664  0.00  0.00    +0.000 A 
ATOM     13  C   UNL     1       1.738   3.103  20.345  0.00  0.00    +0.000 A 
ATOM     14  C   UNL     1       1.222   4.381  20.552  0.00  0.00    +0.000 A 
ATOM     15  C   UNL     1       1.941   5.522  20.150  0.00  0.00    +0.000 A 
ATOM     16  C   UNL     1       3.151   5.407  19.456  0.00  0.00    +0.000 A 
ATOM     17  C   UNL     1       3.600   4.133  19.166  0.00  0.00    +0.000 A 
ENDBRANCH   4   7
BRANCH   1  20
ATOM     18  O   UNL     1       7.795  10.588  17.727  0.00  0.00    +0.000 OA
ATOM     19  C   UNL     1       8.712  10.019  18.312  0.00  0.00    +0.000 C 
ATOM     20  N   UNL     1       8.779   8.668  18.618  0.00  0.00    +0.000 N 
ATOM     21  H   UNL     1       9.573   8.395  19.198  0.00  0.00    +0.000 HD
BRANCH  19  22
ATOM     22  C   UNL     1       9.865  10.833  18.791  0.00  0.00    +0.000 A 
ATOM     23  C   UNL     1      10.810  11.275  17.873  0.00  0.00    +0.000 A 
ATOM     24  N   UNL     1      11.906  11.986  18.241  0.00  0.00    +0.000 NA
ATOM     25  C   UNL     1      12.019  12.223  19.567  0.00  0.00    +0.000 A 
ATOM     26  C   UNL     1      11.073  11.785  20.485  0.00  0.00    +0.000 A 
ATOM     27  N   UNL     1       9.961  11.092  20.126  0.00  0.00    +0.000 NA
ENDBRANCH  19  22
ENDBRANCH   1  20
TORSDOF 3
ENDMDL
MODEL 3
REMARK VINA RESULT:      -8.6      5.693      7.806
REMARK  Name = 
REMARK  3 active torsions:
REMARK  status: ('A' for Active; 'I' for Inactive)
REMARK    1  A    between atoms: C_2  and  C_21
REMARK    2  A    between atoms: N_3  and  C_4
REMARK    3  A    between atoms: C_7  and  C_8
REMARK                            x       y       z     vdW  Elec       q    Type
REMARK                         _______ _______ _______ _____ _____    ______ ____
ROOT
ATOM      1  C   UNL     1       0.694   9.478  19.909  0.00  0.00    +0.000 A 
ATOM      2  C   UNL     1       0.998   9.638  18.549  0.00  0.00    +0.000 A 
ATOM      3  C   UNL     1       1.873   8.754  17.909  0.00  0.00    +0.000 A 
ATOM      4  C   UNL     1       2.450   7.693  18.614  0.00  0.00    +0.000 A 
ATOM      5  C   UNL     1       2.162   7.538  19.973  0.00  0.00    +0.000 A 
ATOM      6  C   UNL     1       1.300   8.436  20.614  0.00  0.00    +0.000 A 
ENDROOT
BRANCH   4   7
ATOM      7  C   UNL     1       3.465   6.843  17.929  0.00  0.00    +0.000 C 
ATOM      8  O   UNL     1       4.032   7.284  16.930  0.00  0.00    +0.000 OA
ATOM      9  N   UNL     1       3.843   5.660  18.541  0.00  0.00    +0.000 N 
ATOM     10  C   UNL     1       5.178   5.091  18.271  0.00  0.00    +0.000 C 
ATOM     11  C   UNL     1       5.229   3.833  19.132  0.00  0.00    +0.000 C 
ATOM     12  C   UNL     1       3.806   3.406  18.935  0.00  0.00    +0.000 A 
ATOM     13  C   UNL     1       3.304   2.124  18.808  0.00  0.00    +0.000 A 
ATOM     14  C   UNL     1       1.953   1.988  18.493  0.00  0.00    +0.000 A 
ATOM     15  C   UNL     1       1.120   3.117  18.390  0.00  0.00    +0.000 A 
ATOM     16  C   UNL     1       1.638   4.412  18.514  0.00  0.00    +0.000 A 
ATOM     17  C   UNL     1       2.998   4.536  18.723  0.00  0.00    +0.000 A 
ENDBRANCH   4   7
BRANCH   1  20
ATOM     18  O   UNL     1       1.341  11.982  21.332  0.00  0.00    +0.000 OA
ATOM     19  C   UNL     1       0.214  11.499  21.287  0.00  0.00    +0.000 C 
ATOM     20  N   UNL     1      -0.158  10.341  20.621  0.00  0.00    +0.000 N 
ATOM     21  H   UNL     1      -1.161  10.151  20.612  0.00  0.00    +0.000 HD
BRANCH  19  22
ATOM     22  C   UNL     1      -0.898  12.220  21.968  0.00  0.00    +0.000 A 
ATOM     23  C   UNL     1      -1.713  11.526  22.854  0.00  0.00    +0.000 A 
ATOM     24  N   UNL     1      -2.768  12.106  23.481  0.00  0.00    +0.000 NA
ATOM     25  C   UNL     1      -2.977  13.406  23.172  0.00  0.00    +0.000 A 
ATOM     26  C   UNL     1      -2.159  14.101  22.291  0.00  0.00    +0.000 A 
ATOM     27  N   UNL     1      -1.087  13.537  21.674  0.00  0.00    +0.000 NA
ENDBRANCH  19  22
ENDBRANCH   1  20
TORSDOF 3
ENDMDL
MODEL 4
REMARK VINA RESULT:      -8.5      5.670      7.975
REMARK  Name = 
REMARK  3 active torsions:
REMARK  status: ('A' for Active; 'I' for Inactive)
REMARK    1  A    between atoms: C_2  and  C_21
REMARK    2  A    between atoms: N_3  and  C_4
REMARK    3  A    between atoms: C_7  and  C_8
REMARK                            x       y       z     vdW  Elec       q    Type
REMARK                         _______ _______ _______ _____ _____    ______ ____
ROOT
ATOM      1  C   UNL     1       0.628   9.279  19.829  0.00  0.00    +0.000 A 
ATOM      2  C   UNL     1       1.295   8.253  20.514  0.00  0.00    +0.000 A 
ATOM      3  C   UNL     1       2.281   7.496  19.872  0.00  0.00    +0.000 A 
ATOM      4  C   UNL     1       2.623   7.759  18.542  0.00  0.00    +0.000 A 
ATOM      5  C   UNL     1       1.952   8.772  17.851  0.00  0.00    +0.000 A 
ATOM      6  C   UNL     1       0.952   9.514  18.491  0.00  0.00    +0.000 A 
ENDROOT
BRANCH   4   7
ATOM      7  C   UNL     1       3.595   6.859  17.859  0.00  0.00    +0.000 C 
ATOM      8  O   UNL     1       4.173   7.264  16.850  0.00  0.00    +0.000 OA
ATOM      9  N   UNL     1       3.926   5.668  18.481  0.00  0.00    +0.000 N 
ATOM     10  C   UNL     1       5.233   5.038  18.207  0.00  0.00    +0.000 C 
ATOM     11  C   UNL     1       5.235   3.788  19.080  0.00  0.00    +0.000 C 
ATOM     12  C   UNL     1       3.794   3.421  18.898  0.00  0.00    +0.000 A 
ATOM     13  C   UNL     1       3.236   2.161  18.789  0.00  0.00    +0.000 A 
ATOM     14  C   UNL     1       1.878   2.081  18.485  0.00  0.00    +0.000 A 
ATOM     15  C   UNL     1       1.094   3.244  18.376  0.00  0.00    +0.000 A 
ATOM     16  C   UNL     1       1.669   4.516  18.483  0.00  0.00    +0.000 A 
ATOM     17  C   UNL     1       3.034   4.583  18.681  0.00  0.00    +0.000 A 
ENDBRANCH   4   7
BRANCH   1  20
ATOM     18  O   UNL     1       0.863  11.650  21.572  0.00  0.00    +0.000 OA
ATOM     19  C   UNL     1      -0.211  11.161  21.232  0.00  0.00    +0.000 C 
ATOM     20  N   UNL     1      -0.388  10.064  20.403  0.00  0.00    +0.000 N 
ATOM     21  H   UNL     1      -1.357   9.865  20.151  0.00  0.00    +0.000 HD
BRANCH  19  22
ATOM     22  C   UNL     1      -1.469  11.806  21.705  0.00  0.00    +0.000 A 
ATOM     23  C   UNL     1      -1.858  11.641  23.028  0.00  0.00    +0.000 A 
ATOM     24  N   UNL     1      -3.010  12.164  23.519  0.00  0.00    +0.000 NA
ATOM     25  C   UNL     1      -3.758  12.848  22.624  0.00  0.00    +0.000 A 
ATOM     26  C   UNL     1      -3.367  13.017  21.302  0.00  0.00    +0.000 A 
ATOM     27  N   UNL     1      -2.205  12.516  20.805  0.00  0.00    +0.000 NA
ENDBRANCH  19  22
ENDBRANCH   1  20
TORSDOF 3
ENDMDL
MODEL 5
REMARK VINA RESULT:      -8.5      5.224      7.565
REMARK  Name = 
REMARK  3 active torsions:
REMARK  status: ('A' for Active; 'I' for Inactive)
REMARK    1  A    between atoms: C_2  and  C_21
REMARK    2  A    between atoms: N_3  and  C_4
REMARK    3  A    between atoms: C_7  and  C_8
REMARK                            x       y       z     vdW  Elec       q    Type
REMARK                         _______ _______ _______ _____ _____    ______ ____
ROOT
ATOM      1  C   UNL     1       1.401   8.519  20.172  0.00  0.00    +0.000 A 
ATOM      2  C   UNL     1       1.458   7.306  20.874  0.00  0.00    +0.000 A 
ATOM      3  C   UNL     1       1.960   6.155  20.260  0.00  0.00    +0.000 A 
ATOM      4  C   UNL     1       2.422   6.198  18.941  0.00  0.00    +0.000 A 
ATOM      5  C   UNL     1       2.354   7.401  18.232  0.00  0.00    +0.000 A 
ATOM      6  C   UNL     1       1.833   8.548  18.844  0.00  0.00    +0.000 A 
ENDROOT
BRANCH   4   7
ATOM      7  C   UNL     1       2.842   4.929  18.284  0.00  0.00    +0.000 C 
ATOM      8  O   UNL     1       2.139   3.927  18.422  0.00  0.00    +0.000 OA
ATOM      9  N   UNL     1       3.918   4.970  17.414  0.00  0.00    +0.000 N 
ATOM     10  C   UNL     1       4.024   3.972  16.333  0.00  0.00    +0.000 C 
ATOM     11  C   UNL     1       5.298   4.358  15.590  0.00  0.00    +0.000 C 
ATOM     12  C   UNL     1       6.109   4.752  16.788  0.00  0.00    +0.000 A 
ATOM     13  C   UNL     1       7.459   4.557  17.013  0.00  0.00    +0.000 A 
ATOM     14  C   UNL     1       7.958   4.890  18.271  0.00  0.00    +0.000 A 
ATOM     15  C   UNL     1       7.128   5.479  19.243  0.00  0.00    +0.000 A 
ATOM     16  C   UNL     1       5.761   5.667  19.008  0.00  0.00    +0.000 A 
ATOM     17  C   UNL     1       5.258   5.237  17.795  0.00  0.00    +0.000 A 
ENDBRANCH   4   7
BRANCH   1  20
ATOM     18  O   UNL     1      -0.544   8.880  22.363  0.00  0.00    +0.000 OA
ATOM     19  C   UNL     1      -0.043   9.812  21.741  0.00  0.00    +0.000 C 
ATOM     20  N   UNL     1       0.888   9.710  20.718  0.00  0.00    +0.000 N 
ATOM     21  H   UNL     1       1.266  10.599  20.388  0.00  0.00    +0.000 HD
BRANCH  19  22
ATOM     22  C   UNL     1      -0.416  11.204  22.118  0.00  0.00    +0.000 A 
ATOM     23  C   UNL     1      -1.509  11.410  22.952  0.00  0.00    +0.000 A 
ATOM     24  N   UNL     1      -1.932  12.651  23.306  0.00  0.00    +0.000 NA
ATOM     25  C   UNL     1      -1.220  13.673  22.779  0.00  0.00    +0.000 A 
ATOM     26  C   UNL     1      -0.124  13.467  21.951  0.00  0.00    +0.000 A 
ATOM     27  N   UNL     1       0.321  12.230  21.607  0.00  0.00    +0.000 NA
ENDBRANCH  19  22
ENDBRANCH   1  20
TORSDOF 3
ENDMDL
MODEL 6
REMARK VINA RESULT:      -8.4      4.998      7.436
REMARK  Name = 
REMARK  3 active torsions:
REMARK  status: ('A' for Active; 'I' for Inactive)
REMARK    1  A    between atoms: C_2  and  C_21
REMARK    2  A    between atoms: N_3  and  C_4
REMARK    3  A    between atoms: C_7  and  C_8
REMARK                            x       y       z     vdW  Elec       q    Type
REMARK                         _______ _______ _______ _____ _____    ______ ____
ROOT
ATOM      1  C   UNL     1       1.529   8.178  20.059  0.00  0.00    +0.000 A 
ATOM      2  C   UNL     1       2.001   8.080  18.742  0.00  0.00    +0.000 A 
ATOM      3  C   UNL     1       2.446   6.854  18.238  0.00  0.00    +0.000 A 
ATOM      4  C   UNL     1       2.416   5.706  19.036  0.00  0.00    +0.000 A 
ATOM      5  C   UNL     1       1.960   5.801  20.354  0.00  0.00    +0.000 A 
ATOM      6  C   UNL     1       1.534   7.035  20.861  0.00  0.00    +0.000 A 
ENDROOT
BRANCH   4   7
ATOM      7  C   UNL     1       3.004   4.445  18.503  0.00  0.00    +0.000 C 
ATOM      8  O   UNL     1       2.432   3.379  18.731  0.00  0.00    +0.000 OA
ATOM      9  N   UNL     1       4.080   4.543  17.637  0.00  0.00    +0.000 N 
ATOM     10  C   UNL     1       4.328   3.471  16.654  0.00  0.00    +0.000 C 
ATOM     11  C   UNL     1       5.555   3.947  15.884  0.00  0.00    +0.000 C 
ATOM     12  C   UNL     1       6.290   4.549  17.043  0.00  0.00    +0.000 A 
ATOM     13  C   UNL     1       7.650   4.550  17.291  0.00  0.00    +0.000 A 
ATOM     14  C   UNL     1       8.083   5.058  18.514  0.00  0.00    +0.000 A 
ATOM     15  C   UNL     1       7.170   5.623  19.423  0.00  0.00    +0.000 A 
ATOM     16  C   UNL     1       5.794   5.613  19.166  0.00  0.00    +0.000 A 
ATOM     17  C   UNL     1       5.369   5.013  17.997  0.00  0.00    +0.000 A 
ENDBRANCH   4   7
BRANCH   1  20
ATOM     18  O   UNL     1      -0.679   8.630  21.965  0.00  0.00    +0.000 OA
ATOM     19  C   UNL     1       0.027   9.530  21.520  0.00  0.00    +0.000 C 
ATOM     20  N   UNL     1       1.089   9.381  20.639  0.00  0.00    +0.000 N 
ATOM     21  H   UNL     1       1.622  10.233  20.459  0.00  0.00    +0.000 HD
BRANCH  19  22
ATOM     22  C   UNL     1      -0.224  10.926  21.975  0.00  0.00    +0.000 A 
ATOM     23  C   UNL     1      -1.140  11.151  22.996  0.00  0.00    +0.000 A 
ATOM     24  N   UNL     1      -1.450  12.397  23.436  0.00  0.00    +0.000 NA
ATOM     25  C   UNL     1      -0.812  13.406  22.801  0.00  0.00    +0.000 A 
ATOM     26  C   UNL     1       0.108  13.182  21.784  0.00  0.00    +0.000 A 
ATOM     27  N   UNL     1       0.442  11.937  21.351  0.00  0.00    +0.000 NA
ENDBRANCH  19  22
ENDBRANCH   1  20
TORSDOF 3
ENDMDL
MODEL 7
REMARK VINA RESULT:      -8.4      4.972      7.320
REMARK  Name = 
REMARK  3 active torsions:
REMARK  status: ('A' for Active; 'I' for Inactive)
REMARK    1  A    between atoms: C_2  and  C_21
REMARK    2  A    between atoms: N_3  and  C_4
REMARK    3  A    between atoms: C_7  and  C_8
REMARK                            x       y       z     vdW  Elec       q    Type
REMARK                         _______ _______ _______ _____ _____    ______ ____
ROOT
ATOM      1  C   UNL     1       1.542   8.323  20.036  0.00  0.00    +0.000 A 
ATOM      2  C   UNL     1       1.990   8.241  18.710  0.00  0.00    +0.000 A 
ATOM      3  C   UNL     1       2.403   7.017  18.175  0.00  0.00    +0.000 A 
ATOM      4  C   UNL     1       2.365   5.854  18.951  0.00  0.00    +0.000 A 
ATOM      5  C   UNL     1       1.932   5.933  20.278  0.00  0.00    +0.000 A 
ATOM      6  C   UNL     1       1.538   7.164  20.816  0.00  0.00    +0.000 A 
ENDROOT
BRANCH   4   7
ATOM      7  C   UNL     1       2.919   4.593  18.384  0.00  0.00    +0.000 C 
ATOM      8  O   UNL     1       2.304   3.541  18.560  0.00  0.00    +0.000 OA
ATOM      9  N   UNL     1       4.017   4.684  17.545  0.00  0.00    +0.000 N 
ATOM     10  C   UNL     1       4.249   3.640  16.529  0.00  0.00    +0.000 C 
ATOM     11  C   UNL     1       5.509   4.099  15.803  0.00  0.00    +0.000 C 
ATOM     12  C   UNL     1       6.239   4.632  16.998  0.00  0.00    +0.000 A 
ATOM     13  C   UNL     1       7.592   4.574  17.275  0.00  0.00    +0.000 A 
ATOM     14  C   UNL     1       8.015   5.022  18.525  0.00  0.00    +0.000 A 
ATOM     15  C   UNL     1       7.103   5.586  19.435  0.00  0.00    +0.000 A 
ATOM     16  C   UNL     1       5.733   5.635  19.149  0.00  0.00    +0.000 A 
ATOM     17  C   UNL     1       5.313   5.093  17.950  0.00  0.00    +0.000 A 
ENDBRANCH   4   7
BRANCH   1  20
ATOM     18  O   UNL     1      -0.835   9.983  19.483  0.00  0.00    +0.000 OA
ATOM     19  C   UNL     1       0.010  10.267  20.327  0.00  0.00    +0.000 C 
ATOM     20  N   UNL     1       1.134   9.522  20.647  0.00  0.00    +0.000 N 
ATOM     21  H   UNL     1       1.667   9.867  21.447  0.00  0.00    +0.000 HD
BRANCH  19  22
ATOM     22  C   UNL     1      -0.178  11.506  21.134  0.00  0.00    +0.000 A 
ATOM     23  C   UNL     1       0.727  12.551  20.992  0.00  0.00    +0.000 A 
ATOM     24  N   UNL     1       0.642  13.692  21.721  0.00  0.00    +0.000 NA
ATOM     25  C   UNL     1      -0.379  13.735  22.606  0.00  0.00    +0.000 A 
ATOM     26  C   UNL     1      -1.287  12.693  22.745  0.00  0.00    +0.000 A 
ATOM     27  N   UNL     1      -1.225  11.555  22.004  0.00  0.00    +0.000 NA
ENDBRANCH  19  22
ENDBRANCH   1  20
TORSDOF 3
ENDMDL
MODEL 8
REMARK VINA RESULT:      -8.3      5.325      7.473
REMARK  Name = 
REMARK  3 active torsions:
REMARK  status: ('A' for Active; 'I' for Inactive)
REMARK    1  A    between atoms: C_2  and  C_21
REMARK    2  A    between atoms: N_3  and  C_4
REMARK    3  A    between atoms: C_7  and  C_8
REMARK                            x       y       z     vdW  Elec       q    Type
REMARK                         _______ _______ _______ _____ _____    ______ ____
ROOT
ATOM      1  C   UNL     1       1.430   8.806  19.964  0.00  0.00    +0.000 A 
ATOM      2  C   UNL     1       1.440   7.670  20.785  0.00  0.00    +0.000 A 
ATOM      3  C   UNL     1       1.926   6.450  20.302  0.00  0.00    +0.000 A 
ATOM      4  C   UNL     1       2.418   6.350  18.997  0.00  0.00    +0.000 A 
ATOM      5  C   UNL     1       2.396   7.477  18.169  0.00  0.00    +0.000 A 
ATOM      6  C   UNL     1       1.892   8.691  18.651  0.00  0.00    +0.000 A 
ENDROOT
BRANCH   4   7
ATOM      7  C   UNL     1       2.820   5.011  18.481  0.00  0.00    +0.000 C 
ATOM      8  O   UNL     1       2.123   4.035  18.757  0.00  0.00    +0.000 OA
ATOM      9  N   UNL     1       3.869   4.948  17.580  0.00  0.00    +0.000 N 
ATOM     10  C   UNL     1       3.943   3.830  16.620  0.00  0.00    +0.000 C 
ATOM     11  C   UNL     1       5.194   4.124  15.799  0.00  0.00    +0.000 C 
ATOM     12  C   UNL     1       6.040   4.653  16.917  0.00  0.00    +0.000 A 
ATOM     13  C   UNL     1       7.396   4.483  17.123  0.00  0.00    +0.000 A 
ATOM     14  C   UNL     1       7.933   4.961  18.317  0.00  0.00    +0.000 A 
ATOM     15  C   UNL     1       7.132   5.661  19.238  0.00  0.00    +0.000 A 
ATOM     16  C   UNL     1       5.758   5.823  19.024  0.00  0.00    +0.000 A 
ATOM     17  C   UNL     1       5.219   5.255  17.886  0.00  0.00    +0.000 A 
ENDBRANCH   4   7
BRANCH   1  20
ATOM     18  O   UNL     1      -1.144  10.098  19.317  0.00  0.00    +0.000 OA
ATOM     19  C   UNL     1      -0.282  10.618  20.019  0.00  0.00    +0.000 C 
ATOM     20  N   UNL     1       0.935  10.058  20.375  0.00  0.00    +0.000 N 
ATOM     21  H   UNL     1       1.479  10.598  21.049  0.00  0.00    +0.000 HD
BRANCH  19  22
ATOM     22  C   UNL     1      -0.549  11.966  20.596  0.00  0.00    +0.000 A 
ATOM     23  C   UNL     1      -1.572  12.741  20.061  0.00  0.00    +0.000 A 
ATOM     24  N   UNL     1      -1.847  13.992  20.509  0.00  0.00    +0.000 NA
ATOM     25  C   UNL     1      -1.047  14.436  21.505  0.00  0.00    +0.000 A 
ATOM     26  C   UNL     1      -0.029  13.660  22.042  0.00  0.00    +0.000 A 
ATOM     27  N   UNL     1       0.242  12.398  21.617  0.00  0.00    +0.000 NA
ENDBRANCH  19  22
ENDBRANCH   1  20
TORSDOF 3
ENDMDL
MODEL 9
REMARK VINA RESULT:      -8.2      5.385      8.246
REMARK  Name = 
REMARK  3 active torsions:
REMARK  status: ('A' for Active; 'I' for Inactive)
REMARK    1  A    between atoms: C_2  and  C_21
REMARK    2  A    between atoms: N_3  and  C_4
REMARK    3  A    between atoms: C_7  and  C_8
REMARK                            x       y       z     vdW  Elec       q    Type
REMARK                         _______ _______ _______ _____ _____    ______ ____
ROOT
ATOM      1  C   UNL     1       2.875   7.693  18.294  0.00  0.00    +0.000 A 
ATOM      2  C   UNL     1       2.452   7.236  19.551  0.00  0.00    +0.000 A 
ATOM      3  C   UNL     1       1.474   7.932  20.267  0.00  0.00    +0.000 A 
ATOM      4  C   UNL     1       0.895   9.090  19.735  0.00  0.00    +0.000 A 
ATOM      5  C   UNL     1       1.324   9.558  18.490  0.00  0.00    +0.000 A 
ATOM      6  C   UNL     1       2.317   8.868  17.785  0.00  0.00    +0.000 A 
ENDROOT
BRANCH   4   7
ATOM      7  C   UNL     1      -0.058   9.867  20.576  0.00  0.00    +0.000 C 
ATOM      8  O   UNL     1      -0.107   9.640  21.785  0.00  0.00    +0.000 OA
ATOM      9  N   UNL     1      -0.732  10.924  19.988  0.00  0.00    +0.000 N 
ATOM     10  C   UNL     1      -1.203  12.047  20.822  0.00  0.00    +0.000 C 
ATOM     11  C   UNL     1      -1.856  13.002  19.829  0.00  0.00    +0.000 C 
ATOM     12  C   UNL     1      -2.486  11.966  18.949  0.00  0.00    +0.000 A 
ATOM     13  C   UNL     1      -3.711  12.010  18.310  0.00  0.00    +0.000 A 
ATOM     14  C   UNL     1      -4.139  10.858  17.653  0.00  0.00    +0.000 A 
ATOM     15  C   UNL     1      -3.312   9.722  17.579  0.00  0.00    +0.000 A 
ATOM     16  C   UNL     1      -2.076   9.683  18.234  0.00  0.00    +0.000 A 
ATOM     17  C   UNL     1      -1.709  10.794  18.968  0.00  0.00    +0.000 A 
ENDBRANCH   4   7
BRANCH   1  20
ATOM     18  O   UNL     1       3.258   4.816  17.756  0.00  0.00    +0.000 OA
ATOM     19  C   UNL     1       4.005   5.692  17.329  0.00  0.00    +0.000 C 
ATOM     20  N   UNL     1       3.869   7.057  17.530  0.00  0.00    +0.000 N 
ATOM     21  H   UNL     1       4.531   7.637  17.012  0.00  0.00    +0.000 HD
BRANCH  19  22
ATOM     22  C   UNL     1       5.159   5.290  16.476  0.00  0.00    +0.000 A 
ATOM     23  C   UNL     1       6.336   6.027  16.538  0.00  0.00    +0.000 A 
ATOM     24  N   UNL     1       7.413   5.745  15.762  0.00  0.00    +0.000 NA
ATOM     25  C   UNL     1       7.255   4.703  14.916  0.00  0.00    +0.000 A 
ATOM     26  C   UNL     1       6.081   3.963  14.856  0.00  0.00    +0.000 A 
ATOM     27  N   UNL     1       5.004   4.223  15.644  0.00  0.00    +0.000 NA
ENDBRANCH  19  22
ENDBRANCH   1  20
TORSDOF 3
ENDMDL
