MODEL 1
REMARK VINA RESULT:      -7.7      0.000      0.000
REMARK  Name = 
REMARK  7 active torsions:
REMARK  status: ('A' for Active; 'I' for Inactive)
REMARK    1  A    between atoms: C_1  and  C_2
REMARK    2  A    between atoms: C_2  and  C_3
REMARK    3  A    between atoms: C_7  and  N_8
REMARK    4  A    between atoms: C_13  and  C_14
REMARK    5  A    between atoms: C_14  and  N_15
REMARK    6  A    between atoms: C_20  and  O_21
REMARK    7  A    between atoms: C_25  and  C_26
REMARK                            x       y       z     vdW  Elec       q    Type
REMARK                         _______ _______ _______ _____ _____    ______ ____
ROOT
ATOM      1  N   UNL     1      -0.347  11.312  18.486  0.00  0.00    +0.000 N 
ATOM      2  C   UNL     1       0.395  10.584  19.555  0.00  0.00    +0.000 C 
ATOM      3  C   UNL     1      -0.122  11.243  20.798  0.00  0.00    +0.000 A 
ATOM      4  C   UNL     1      -0.546  12.526  20.445  0.00  0.00    +0.000 A 
ATOM      5  C   UNL     1      -1.262  13.350  21.296  0.00  0.00    +0.000 A 
ATOM      6  C   UNL     1      -1.561  12.869  22.575  0.00  0.00    +0.000 A 
ATOM      7  C   UNL     1      -1.104  11.578  22.950  0.00  0.00    +0.000 A 
ATOM      8  C   UNL     1      -0.386  10.737  22.065  0.00  0.00    +0.000 A 
ATOM      9  C   UNL     1      -0.508  12.632  18.966  0.00  0.00    +0.000 C 
ATOM     10  O   UNL     1      -0.781  13.644  18.356  0.00  0.00    +0.000 OA
ENDROOT
BRANCH   1  15
ATOM     11  C   UNL     1      -3.861  11.296  17.714  0.00  0.00    +0.000 A 
ATOM     12  C   UNL     1      -3.763  10.690  16.455  0.00  0.00    +0.000 A 
ATOM     13  C   UNL     1      -2.680   9.868  16.152  0.00  0.00    +0.000 A 
ATOM     14  C   UNL     1      -1.625   9.762  17.052  0.00  0.00    +0.000 A 
ATOM     15  C   UNL     1      -1.600  10.613  18.173  0.00  0.00    +0.000 A 
ATOM     16  C   UNL     1      -2.786  11.200  18.604  0.00  0.00    +0.000 A 
BRANCH  11  18
ATOM     17  C   UNL     1      -6.311  11.364  18.233  0.00  0.00    +0.000 C 
ATOM     18  C   UNL     1      -5.034  12.175  18.056  0.00  0.00    +0.000 C 
ENDBRANCH  11  18
ENDBRANCH   1  15
BRANCH   8  19
ATOM     19  C   UNL     1      -0.044   9.331  22.494  0.00  0.00    +0.000 C 
ATOM     20  F   UNL     1      -0.806   8.367  21.907  0.00  0.00    +0.000 F 
ATOM     21  F   UNL     1       1.246   9.005  22.204  0.00  0.00    +0.000 F 
ATOM     22  F   UNL     1      -0.182   9.148  23.835  0.00  0.00    +0.000 F 
ENDBRANCH   8  19
BRANCH   6  23
ATOM     23  C   UNL     1      -2.391  13.710  23.529  0.00  0.00    +0.000 C 
BRANCH  23  24
ATOM     24  N   UNL     1      -3.794  14.009  23.147  0.00  0.00    +0.000 NA
ATOM     25  C   UNL     1      -4.003  15.437  22.894  0.00  0.00    +0.000 C 
ATOM     26  C   UNL     1      -5.286  15.842  22.155  0.00  0.00    +0.000 C 
ATOM     27  C   UNL     1      -5.590  15.020  20.902  0.00  0.00    +0.000 C 
ATOM     28  C   UNL     1      -6.668  13.951  21.100  0.00  0.00    +0.000 C 
ATOM     29  C   UNL     1      -6.321  12.786  22.035  0.00  0.00    +0.000 C 
ATOM     30  C   UNL     1      -6.187  13.192  23.511  0.00  0.00    +0.000 C 
ATOM     31  C   UNL     1      -4.761  13.376  24.056  0.00  0.00    +0.000 C 
BRANCH  29  32
ATOM     32  O   UNL     1      -5.172  12.098  21.556  0.00  0.00    +0.000 OA
ATOM     33  H   UNL     1      -4.467  12.263  22.216  0.00  0.00    +0.000 HD
ENDBRANCH  29  32
ENDBRANCH  23  24
ENDBRANCH   6  23
TORSDOF 6
ENDMDL
MODEL 2
REMARK VINA RESULT:      -7.6      0.855      1.107
REMARK  Name = 
REMARK  7 active torsions:
REMARK  status: ('A' for Active; 'I' for Inactive)
REMARK    1  A    between atoms: C_1  and  C_2
REMARK    2  A    between atoms: C_2  and  C_3
REMARK    3  A    between atoms: C_7  and  N_8
REMARK    4  A    between atoms: C_13  and  C_14
REMARK    5  A    between atoms: C_14  and  N_15
REMARK    6  A    between atoms: C_20  and  O_21
REMARK    7  A    between atoms: C_25  and  C_26
REMARK                            x       y       z     vdW  Elec       q    Type
REMARK                         _______ _______ _______ _____ _____    ______ ____
ROOT
ATOM      1  N   UNL     1      -0.806  11.938  18.983  0.00  0.00    +0.000 N 
ATOM      2  C   UNL     1       0.046  11.232  19.982  0.00  0.00    +0.000 C 
ATOM      3  C   UNL     1      -0.638  11.572  21.271  0.00  0.00    +0.000 A 
ATOM      4  C   UNL     1      -1.323  12.774  21.077  0.00  0.00    +0.000 A 
ATOM      5  C   UNL     1      -2.226  13.289  21.990  0.00  0.00    +0.000 A 
ATOM      6  C   UNL     1      -2.449  12.569  23.168  0.00  0.00    +0.000 A 
ATOM      7  C   UNL     1      -1.731  11.363  23.386  0.00  0.00    +0.000 A 
ATOM      8  C   UNL     1      -0.822  10.837  22.437  0.00  0.00    +0.000 A 
ATOM      9  C   UNL     1      -1.266  13.106  19.633  0.00  0.00    +0.000 C 
ATOM     10  O   UNL     1      -1.736  14.117  19.155  0.00  0.00    +0.000 OA
ENDROOT
BRANCH   1  15
ATOM     11  C   UNL     1      -4.005  11.355  17.443  0.00  0.00    +0.000 A 
ATOM     12  C   UNL     1      -3.541  10.624  16.342  0.00  0.00    +0.000 A 
ATOM     13  C   UNL     1      -2.337   9.927  16.417  0.00  0.00    +0.000 A 
ATOM     14  C   UNL     1      -1.528  10.071  17.538  0.00  0.00    +0.000 A 
ATOM     15  C   UNL     1      -1.865  11.043  18.499  0.00  0.00    +0.000 A 
ATOM     16  C   UNL     1      -3.175  11.511  18.558  0.00  0.00    +0.000 A 
BRANCH  11  18
ATOM     17  C   UNL     1      -6.415  11.369  18.128  0.00  0.00    +0.000 C 
ATOM     18  C   UNL     1      -5.311  12.101  17.376  0.00  0.00    +0.000 C 
ENDBRANCH  11  18
ENDBRANCH   1  15
BRANCH   8  19
ATOM     19  C   UNL     1      -0.192   9.488  22.684  0.00  0.00    +0.000 C 
ATOM     20  F   UNL     1       1.084   9.374  22.224  0.00  0.00    +0.000 F 
ATOM     21  F   UNL     1      -0.132   9.185  24.010  0.00  0.00    +0.000 F 
ATOM     22  F   UNL     1      -0.888   8.474  22.101  0.00  0.00    +0.000 F 
ENDBRANCH   8  19
BRANCH   6  23
ATOM     23  C   UNL     1      -3.471  13.061  24.178  0.00  0.00    +0.000 C 
BRANCH  23  24
ATOM     24  N   UNL     1      -4.820  13.426  23.678  0.00  0.00    +0.000 NA
ATOM     25  C   UNL     1      -5.048  14.873  23.716  0.00  0.00    +0.000 C 
ATOM     26  C   UNL     1      -6.234  15.421  22.911  0.00  0.00    +0.000 C 
ATOM     27  C   UNL     1      -6.333  14.896  21.478  0.00  0.00    +0.000 C 
ATOM     28  C   UNL     1      -7.385  13.801  21.283  0.00  0.00    +0.000 C 
ATOM     29  C   UNL     1      -7.123  12.460  21.980  0.00  0.00    +0.000 C 
ATOM     30  C   UNL     1      -7.206  12.529  23.513  0.00  0.00    +0.000 C 
ATOM     31  C   UNL     1      -5.876  12.599  24.280  0.00  0.00    +0.000 C 
BRANCH  29  32
ATOM     32  O   UNL     1      -5.893  11.905  21.529  0.00  0.00    +0.000 OA
ATOM     33  H   UNL     1      -6.135  11.165  20.934  0.00  0.00    +0.000 HD
ENDBRANCH  29  32
ENDBRANCH  23  24
ENDBRANCH   6  23
TORSDOF 6
ENDMDL
MODEL 3
REMARK VINA RESULT:      -7.5      0.818      1.280
REMARK  Name = 
REMARK  7 active torsions:
REMARK  status: ('A' for Active; 'I' for Inactive)
REMARK    1  A    between atoms: C_1  and  C_2
REMARK    2  A    between atoms: C_2  and  C_3
REMARK    3  A    between atoms: C_7  and  N_8
REMARK    4  A    between atoms: C_13  and  C_14
REMARK    5  A    between atoms: C_14  and  N_15
REMARK    6  A    between atoms: C_20  and  O_21
REMARK    7  A    between atoms: C_25  and  C_26
REMARK                            x       y       z     vdW  Elec       q    Type
REMARK                         _______ _______ _______ _____ _____    ______ ____
ROOT
ATOM      1  N   UNL     1      -0.214  11.234  18.478  0.00  0.00    +0.000 N 
ATOM      2  C   UNL     1       0.485  10.562  19.611  0.00  0.00    +0.000 C 
ATOM      3  C   UNL     1      -0.098  11.267  20.798  0.00  0.00    +0.000 A 
ATOM      4  C   UNL     1      -0.518  12.528  20.370  0.00  0.00    +0.000 A 
ATOM      5  C   UNL     1      -1.282  13.379  21.150  0.00  0.00    +0.000 A 
ATOM      6  C   UNL     1      -1.636  12.949  22.434  0.00  0.00    +0.000 A 
ATOM      7  C   UNL     1      -1.184  11.681  22.886  0.00  0.00    +0.000 A 
ATOM      8  C   UNL     1      -0.416  10.812  22.073  0.00  0.00    +0.000 A 
ATOM      9  C   UNL     1      -0.411  12.571  18.892  0.00  0.00    +0.000 C 
ATOM     10  O   UNL     1      -0.665  13.553  18.226  0.00  0.00    +0.000 OA
ENDROOT
BRANCH   1  15
ATOM     11  C   UNL     1      -3.724  11.131  17.696  0.00  0.00    +0.000 A 
ATOM     12  C   UNL     1      -3.604  10.574  16.417  0.00  0.00    +0.000 A 
ATOM     13  C   UNL     1      -2.494   9.798  16.088  0.00  0.00    +0.000 A 
ATOM     14  C   UNL     1      -1.439   9.695  16.986  0.00  0.00    +0.000 A 
ATOM     15  C   UNL     1      -1.442  10.506  18.136  0.00  0.00    +0.000 A 
ATOM     16  C   UNL     1      -2.648  11.039  18.585  0.00  0.00    +0.000 A 
BRANCH  11  18
ATOM     17  C   UNL     1      -6.206  11.136  18.039  0.00  0.00    +0.000 C 
ATOM     18  C   UNL     1      -4.925  11.960  18.065  0.00  0.00    +0.000 C 
ENDBRANCH  11  18
ENDBRANCH   1  15
BRANCH   8  19
ATOM     19  C   UNL     1      -0.080   9.430  22.577  0.00  0.00    +0.000 C 
ATOM     20  F   UNL     1      -0.243   9.270  23.919  0.00  0.00    +0.000 F 
ATOM     21  F   UNL     1      -0.852   8.470  21.998  0.00  0.00    +0.000 F 
ATOM     22  F   UNL     1       1.209   9.080  22.316  0.00  0.00    +0.000 F 
ENDBRANCH   8  19
BRANCH   6  23
ATOM     23  C   UNL     1      -2.519  13.820  23.310  0.00  0.00    +0.000 C 
BRANCH  23  24
ATOM     24  N   UNL     1      -3.972  13.857  23.009  0.00  0.00    +0.000 NA
ATOM     25  C   UNL     1      -4.233  14.099  21.586  0.00  0.00    +0.000 C 
ATOM     26  C   UNL     1      -5.650  13.811  21.071  0.00  0.00    +0.000 C 
ATOM     27  C   UNL     1      -6.229  12.464  21.506  0.00  0.00    +0.000 C 
ATOM     28  C   UNL     1      -7.234  12.556  22.657  0.00  0.00    +0.000 C 
ATOM     29  C   UNL     1      -6.686  12.998  24.019  0.00  0.00    +0.000 C 
ATOM     30  C   UNL     1      -6.222  14.463  24.057  0.00  0.00    +0.000 C 
ATOM     31  C   UNL     1      -4.710  14.717  23.945  0.00  0.00    +0.000 C 
BRANCH  29  32
ATOM     32  O   UNL     1      -5.674  12.098  24.455  0.00  0.00    +0.000 OA
ATOM     33  H   UNL     1      -6.119  11.464  25.054  0.00  0.00    +0.000 HD
ENDBRANCH  29  32
ENDBRANCH  23  24
ENDBRANCH   6  23
TORSDOF 6
ENDMDL
MODEL 4
REMARK VINA RESULT:      -7.4      1.115      1.723
REMARK  Name = 
REMARK  7 active torsions:
REMARK  status: ('A' for Active; 'I' for Inactive)
REMARK    1  A    between atoms: C_1  and  C_2
REMARK    2  A    between atoms: C_2  and  C_3
REMARK    3  A    between atoms: C_7  and  N_8
REMARK    4  A    between atoms: C_13  and  C_14
REMARK    5  A    between atoms: C_14  and  N_15
REMARK    6  A    between atoms: C_20  and  O_21
REMARK    7  A    between atoms: C_25  and  C_26
REMARK                            x       y       z     vdW  Elec       q    Type
REMARK                         _______ _______ _______ _____ _____    ______ ____
ROOT
ATOM      1  N   UNL     1      -0.343  11.105  18.338  0.00  0.00    +0.000 N 
ATOM      2  C   UNL     1       0.375  10.350  19.404  0.00  0.00    +0.000 C 
ATOM      3  C   UNL     1      -0.056  11.074  20.643  0.00  0.00    +0.000 A 
ATOM      4  C   UNL     1      -0.395  12.376  20.269  0.00  0.00    +0.000 A 
ATOM      5  C   UNL     1      -1.024  13.270  21.119  0.00  0.00    +0.000 A 
ATOM      6  C   UNL     1      -1.319  12.842  22.417  0.00  0.00    +0.000 A 
ATOM      7  C   UNL     1      -0.947  11.530  22.813  0.00  0.00    +0.000 A 
ATOM      8  C   UNL     1      -0.318  10.619  21.930  0.00  0.00    +0.000 A 
ATOM      9  C   UNL     1      -0.393  12.444  18.788  0.00  0.00    +0.000 C 
ATOM     10  O   UNL     1      -0.610  13.459  18.160  0.00  0.00    +0.000 OA
ENDROOT
BRANCH   1  15
ATOM     11  C   UNL     1      -3.910  11.307  17.916  0.00  0.00    +0.000 A 
ATOM     12  C   UNL     1      -3.960  10.838  16.597  0.00  0.00    +0.000 A 
ATOM     13  C   UNL     1      -2.950  10.013  16.105  0.00  0.00    +0.000 A 
ATOM     14  C   UNL     1      -1.823   9.769  16.881  0.00  0.00    +0.000 A 
ATOM     15  C   UNL     1      -1.652  10.492  18.077  0.00  0.00    +0.000 A 
ATOM     16  C   UNL     1      -2.763  11.074  18.681  0.00  0.00    +0.000 A 
BRANCH  11  18
ATOM     17  C   UNL     1      -6.020  12.550  17.387  0.00  0.00    +0.000 C 
ATOM     18  C   UNL     1      -5.002  12.188  18.461  0.00  0.00    +0.000 C 
ENDBRANCH  11  18
ENDBRANCH   1  15
BRANCH   8  19
ATOM     19  C   UNL     1      -0.067   9.202  22.385  0.00  0.00    +0.000 C 
ATOM     20  F   UNL     1      -0.863   8.273  21.788  0.00  0.00    +0.000 F 
ATOM     21  F   UNL     1       1.211   8.802  22.137  0.00  0.00    +0.000 F 
ATOM     22  F   UNL     1      -0.252   9.044  23.724  0.00  0.00    +0.000 F 
ENDBRANCH   8  19
BRANCH   6  23
ATOM     23  C   UNL     1      -2.058  13.764  23.372  0.00  0.00    +0.000 C 
BRANCH  23  24
ATOM     24  N   UNL     1      -3.482  14.065  23.081  0.00  0.00    +0.000 NA
ATOM     25  C   UNL     1      -4.180  12.915  22.498  0.00  0.00    +0.000 C 
ATOM     26  C   UNL     1      -5.714  12.956  22.479  0.00  0.00    +0.000 C 
ATOM     27  C   UNL     1      -6.360  13.367  23.803  0.00  0.00    +0.000 C 
ATOM     28  C   UNL     1      -6.846  14.818  23.840  0.00  0.00    +0.000 C 
ATOM     29  C   UNL     1      -5.768  15.908  23.787  0.00  0.00    +0.000 C 
ATOM     30  C   UNL     1      -5.033  15.991  22.440  0.00  0.00    +0.000 C 
ATOM     31  C   UNL     1      -3.644  15.337  22.363  0.00  0.00    +0.000 C 
BRANCH  29  32
ATOM     32  O   UNL     1      -4.874  15.767  24.884  0.00  0.00    +0.000 OA
ATOM     33  H   UNL     1      -4.774  14.803  25.026  0.00  0.00    +0.000 HD
ENDBRANCH  29  32
ENDBRANCH  23  24
ENDBRANCH   6  23
TORSDOF 6
ENDMDL
MODEL 5
REMARK VINA RESULT:      -7.3      0.780      1.185
REMARK  Name = 
REMARK  7 active torsions:
REMARK  status: ('A' for Active; 'I' for Inactive)
REMARK    1  A    between atoms: C_1  and  C_2
REMARK    2  A    between atoms: C_2  and  C_3
REMARK    3  A    between atoms: C_7  and  N_8
REMARK    4  A    between atoms: C_13  and  C_14
REMARK    5  A    between atoms: C_14  and  N_15
REMARK    6  A    between atoms: C_20  and  O_21
REMARK    7  A    between atoms: C_25  and  C_26
REMARK                            x       y       z     vdW  Elec       q    Type
REMARK                         _______ _______ _______ _____ _____    ______ ____
ROOT
ATOM      1  N   UNL     1      -0.314  11.343  18.485  0.00  0.00    +0.000 N 
ATOM      2  C   UNL     1       0.437  10.622  19.553  0.00  0.00    +0.000 C 
ATOM      3  C   UNL     1      -0.086  11.274  20.797  0.00  0.00    +0.000 A 
ATOM      4  C   UNL     1      -0.524  12.553  20.445  0.00  0.00    +0.000 A 
ATOM      5  C   UNL     1      -1.248  13.368  21.297  0.00  0.00    +0.000 A 
ATOM      6  C   UNL     1      -1.540  12.883  22.576  0.00  0.00    +0.000 A 
ATOM      7  C   UNL     1      -1.068  11.597  22.951  0.00  0.00    +0.000 A 
ATOM      8  C   UNL     1      -0.342  10.765  22.064  0.00  0.00    +0.000 A 
ATOM      9  C   UNL     1      -0.489  12.660  18.966  0.00  0.00    +0.000 C 
ATOM     10  O   UNL     1      -0.774  13.669  18.357  0.00  0.00    +0.000 OA
ENDROOT
BRANCH   1  15
ATOM     11  C   UNL     1      -3.807  11.290  17.624  0.00  0.00    +0.000 A 
ATOM     12  C   UNL     1      -3.677  10.625  16.398  0.00  0.00    +0.000 A 
ATOM     13  C   UNL     1      -2.587   9.789  16.163  0.00  0.00    +0.000 A 
ATOM     14  C   UNL     1      -1.557   9.726  17.094  0.00  0.00    +0.000 A 
ATOM     15  C   UNL     1      -1.559  10.629  18.173  0.00  0.00    +0.000 A 
ATOM     16  C   UNL     1      -2.756  11.236  18.545  0.00  0.00    +0.000 A 
BRANCH  11  18
ATOM     17  C   UNL     1      -6.222  11.383  18.285  0.00  0.00    +0.000 C 
ATOM     18  C   UNL     1      -4.987  12.185  17.893  0.00  0.00    +0.000 C 
ENDBRANCH  11  18
ENDBRANCH   1  15
BRANCH   8  19
ATOM     19  C   UNL     1       0.016   9.363  22.492  0.00  0.00    +0.000 C 
ATOM     20  F   UNL     1      -0.113   9.135  23.828  0.00  0.00    +0.000 F 
ATOM     21  F   UNL     1      -0.763   8.426  21.884  0.00  0.00    +0.000 F 
ATOM     22  F   UNL     1       1.301   9.036  22.182  0.00  0.00    +0.000 F 
ENDBRANCH   8  19
BRANCH   6  23
ATOM     23  C   UNL     1      -2.379  13.714  23.532  0.00  0.00    +0.000 C 
BRANCH  23  24
ATOM     24  N   UNL     1      -3.753  14.081  23.108  0.00  0.00    +0.000 NA
ATOM     25  C   UNL     1      -4.434  14.912  24.105  0.00  0.00    +0.000 C 
ATOM     26  C   UNL     1      -5.701  15.654  23.658  0.00  0.00    +0.000 C 
ATOM     27  C   UNL     1      -5.572  16.400  22.329  0.00  0.00    +0.000 C 
ATOM     28  C   UNL     1      -6.210  15.677  21.140  0.00  0.00    +0.000 C 
ATOM     29  C   UNL     1      -5.560  14.359  20.704  0.00  0.00    +0.000 C 
ATOM     30  C   UNL     1      -5.720  13.219  21.723  0.00  0.00    +0.000 C 
ATOM     31  C   UNL     1      -4.512  12.918  22.625  0.00  0.00    +0.000 C 
BRANCH  29  32
ATOM     32  O   UNL     1      -4.201  14.577  20.345  0.00  0.00    +0.000 OA
ATOM     33  H   UNL     1      -4.172  14.535  19.366  0.00  0.00    +0.000 HD
ENDBRANCH  29  32
ENDBRANCH  23  24
ENDBRANCH   6  23
TORSDOF 6
ENDMDL
MODEL 6
REMARK VINA RESULT:      -7.2      3.764      7.716
REMARK  Name = 
REMARK  7 active torsions:
REMARK  status: ('A' for Active; 'I' for Inactive)
REMARK    1  A    between atoms: C_1  and  C_2
REMARK    2  A    between atoms: C_2  and  C_3
REMARK    3  A    between atoms: C_7  and  N_8
REMARK    4  A    between atoms: C_13  and  C_14
REMARK    5  A    between atoms: C_14  and  N_15
REMARK    6  A    between atoms: C_20  and  O_21
REMARK    7  A    between atoms: C_25  and  C_26
REMARK                            x       y       z     vdW  Elec       q    Type
REMARK                         _______ _______ _______ _____ _____    ______ ____
ROOT
ATOM      1  N   UNL     1      -1.830  12.300  19.022  0.00  0.00    +0.000 N 
ATOM      2  C   UNL     1      -1.887  11.513  20.287  0.00  0.00    +0.000 C 
ATOM      3  C   UNL     1      -0.869  10.443  20.034  0.00  0.00    +0.000 A 
ATOM      4  C   UNL     1      -0.772  10.278  18.651  0.00  0.00    +0.000 A 
ATOM      5  C   UNL     1       0.211   9.515  18.045  0.00  0.00    +0.000 A 
ATOM      6  C   UNL     1       1.141   8.871  18.868  0.00  0.00    +0.000 A 
ATOM      7  C   UNL     1       1.026   9.008  20.277  0.00  0.00    +0.000 A 
ATOM      8  C   UNL     1       0.026   9.805  20.885  0.00  0.00    +0.000 A 
ATOM      9  C   UNL     1      -1.548  11.363  18.003  0.00  0.00    +0.000 C 
ATOM     10  O   UNL     1      -1.689  11.466  16.803  0.00  0.00    +0.000 OA
ENDROOT
BRANCH   1  15
ATOM     11  C   UNL     1       0.317  14.423  20.978  0.00  0.00    +0.000 A 
ATOM     12  C   UNL     1       1.529  14.043  20.387  0.00  0.00    +0.000 A 
ATOM     13  C   UNL     1       1.550  13.542  19.087  0.00  0.00    +0.000 A 
ATOM     14  C   UNL     1       0.352  13.289  18.428  0.00  0.00    +0.000 A 
ATOM     15  C   UNL     1      -0.853  13.390  19.147  0.00  0.00    +0.000 A 
ATOM     16  C   UNL     1      -0.884  14.145  20.317  0.00  0.00    +0.000 A 
BRANCH  11  18
ATOM     17  C   UNL     1      -0.940  14.493  23.145  0.00  0.00    +0.000 C 
ATOM     18  C   UNL     1       0.284  14.977  22.378  0.00  0.00    +0.000 C 
ENDBRANCH  11  18
ENDBRANCH   1  15
BRANCH   8  19
ATOM     19  C   UNL     1       0.046  10.003  22.381  0.00  0.00    +0.000 C 
ATOM     20  F   UNL     1       1.157   9.513  22.996  0.00  0.00    +0.000 F 
ATOM     21  F   UNL     1      -0.012  11.319  22.726  0.00  0.00    +0.000 F 
ATOM     22  F   UNL     1      -1.012   9.409  22.999  0.00  0.00    +0.000 F 
ENDBRANCH   8  19
BRANCH   6  23
ATOM     23  C   UNL     1       2.273   8.066  18.253  0.00  0.00    +0.000 C 
BRANCH  23  24
ATOM     24  N   UNL     1       2.407   6.643  18.653  0.00  0.00    +0.000 NA
ATOM     25  C   UNL     1       2.532   6.490  20.106  0.00  0.00    +0.000 C 
ATOM     26  C   UNL     1       2.320   5.085  20.686  0.00  0.00    +0.000 C 
ATOM     27  C   UNL     1       1.078   4.358  20.170  0.00  0.00    +0.000 C 
ATOM     28  C   UNL     1       1.369   3.300  19.102  0.00  0.00    +0.000 C 
ATOM     29  C   UNL     1       1.891   3.807  17.752  0.00  0.00    +0.000 C 
ATOM     30  C   UNL     1       3.306   4.403  17.816  0.00  0.00    +0.000 C 
ATOM     31  C   UNL     1       3.416   5.936  17.850  0.00  0.00    +0.000 C 
BRANCH  29  32
ATOM     32  O   UNL     1       0.953   4.704  17.169  0.00  0.00    +0.000 OA
ATOM     33  H   UNL     1       1.127   4.685  16.205  0.00  0.00    +0.000 HD
ENDBRANCH  29  32
ENDBRANCH  23  24
ENDBRANCH   6  23
TORSDOF 6
ENDMDL
MODEL 7
REMARK VINA RESULT:      -7.2      3.797      7.915
REMARK  Name = 
REMARK  7 active torsions:
REMARK  status: ('A' for Active; 'I' for Inactive)
REMARK    1  A    between atoms: C_1  and  C_2
REMARK    2  A    between atoms: C_2  and  C_3
REMARK    3  A    between atoms: C_7  and  N_8
REMARK    4  A    between atoms: C_13  and  C_14
REMARK    5  A    between atoms: C_14  and  N_15
REMARK    6  A    between atoms: C_20  and  O_21
REMARK    7  A    between atoms: C_25  and  C_26
REMARK                            x       y       z     vdW  Elec       q    Type
REMARK                         _______ _______ _______ _____ _____    ______ ____
ROOT
ATOM      1  N   UNL     1      -2.000  11.911  19.073  0.00  0.00    +0.000 N 
ATOM      2  C   UNL     1      -1.881  11.001  20.248  0.00  0.00    +0.000 C 
ATOM      3  C   UNL     1      -0.710  10.148  19.864  0.00  0.00    +0.000 A 
ATOM      4  C   UNL     1      -0.635  10.144  18.470  0.00  0.00    +0.000 A 
ATOM      5  C   UNL     1       0.438   9.622  17.769  0.00  0.00    +0.000 A 
ATOM      6  C   UNL     1       1.490   9.064  18.502  0.00  0.00    +0.000 A 
ATOM      7  C   UNL     1       1.404   9.036  19.919  0.00  0.00    +0.000 A 
ATOM      8  C   UNL     1       0.308   9.587  20.627  0.00  0.00    +0.000 A 
ATOM      9  C   UNL     1      -1.603  11.143  17.955  0.00  0.00    +0.000 C 
ATOM     10  O   UNL     1      -1.801  11.342  16.775  0.00  0.00    +0.000 OA
ENDROOT
BRANCH   1  15
ATOM     11  C   UNL     1      -0.204  14.177  21.213  0.00  0.00    +0.000 A 
ATOM     12  C   UNL     1       1.046  14.054  20.592  0.00  0.00    +0.000 A 
ATOM     13  C   UNL     1       1.132  13.680  19.253  0.00  0.00    +0.000 A 
ATOM     14  C   UNL     1      -0.017  13.293  18.572  0.00  0.00    +0.000 A 
ATOM     15  C   UNL     1      -1.213  13.130  19.296  0.00  0.00    +0.000 A 
ATOM     16  C   UNL     1      -1.351  13.765  20.528  0.00  0.00    +0.000 A 
BRANCH  11  18
ATOM     17  C   UNL     1      -1.319  13.742  23.414  0.00  0.00    +0.000 C 
ATOM     18  C   UNL     1      -0.308  14.593  22.656  0.00  0.00    +0.000 C 
ENDBRANCH  11  18
ENDBRANCH   1  15
BRANCH   8  19
ATOM     19  C   UNL     1       0.347   9.632  22.135  0.00  0.00    +0.000 C 
ATOM     20  F   UNL     1       1.514   9.186  22.677  0.00  0.00    +0.000 F 
ATOM     21  F   UNL     1       0.179  10.894  22.615  0.00  0.00    +0.000 F 
ATOM     22  F   UNL     1      -0.636   8.883  22.704  0.00  0.00    +0.000 F 
ENDBRANCH   8  19
BRANCH   6  23
ATOM     23  C   UNL     1       2.717   8.528  17.785  0.00  0.00    +0.000 C 
BRANCH  23  24
ATOM     24  N   UNL     1       3.076   7.103  17.997  0.00  0.00    +0.000 NA
ATOM     25  C   UNL     1       4.275   6.720  17.247  0.00  0.00    +0.000 C 
ATOM     26  C   UNL     1       4.963   5.405  17.640  0.00  0.00    +0.000 C 
ATOM     27  C   UNL     1       5.182   5.221  19.142  0.00  0.00    +0.000 C 
ATOM     28  C   UNL     1       4.174   4.283  19.812  0.00  0.00    +0.000 C 
ATOM     29  C   UNL     1       2.719   4.761  19.870  0.00  0.00    +0.000 C 
ATOM     30  C   UNL     1       2.030   4.827  18.498  0.00  0.00    +0.000 C 
ATOM     31  C   UNL     1       1.917   6.212  17.841  0.00  0.00    +0.000 C 
BRANCH  29  32
ATOM     32  O   UNL     1       2.635   5.994  20.577  0.00  0.00    +0.000 OA
ATOM     33  H   UNL     1       2.197   5.786  21.428  0.00  0.00    +0.000 HD
ENDBRANCH  29  32
ENDBRANCH  23  24
ENDBRANCH   6  23
TORSDOF 6
ENDMDL
MODEL 8
REMARK VINA RESULT:      -7.1      0.968      1.644
REMARK  Name = 
REMARK  7 active torsions:
REMARK  status: ('A' for Active; 'I' for Inactive)
REMARK    1  A    between atoms: C_1  and  C_2
REMARK    2  A    between atoms: C_2  and  C_3
REMARK    3  A    between atoms: C_7  and  N_8
REMARK    4  A    between atoms: C_13  and  C_14
REMARK    5  A    between atoms: C_14  and  N_15
REMARK    6  A    between atoms: C_20  and  O_21
REMARK    7  A    between atoms: C_25  and  C_26
REMARK                            x       y       z     vdW  Elec       q    Type
REMARK                         _______ _______ _______ _____ _____    ______ ____
ROOT
ATOM      1  N   UNL     1      -0.182  11.240  18.581  0.00  0.00    +0.000 N 
ATOM      2  C   UNL     1       0.524  10.600  19.728  0.00  0.00    +0.000 C 
ATOM      3  C   UNL     1      -0.151  11.236  20.905  0.00  0.00    +0.000 A 
ATOM      4  C   UNL     1      -0.649  12.471  20.483  0.00  0.00    +0.000 A 
ATOM      5  C   UNL     1      -1.501  13.248  21.248  0.00  0.00    +0.000 A 
ATOM      6  C   UNL     1      -1.868  12.768  22.510  0.00  0.00    +0.000 A 
ATOM      7  C   UNL     1      -1.339  11.528  22.957  0.00  0.00    +0.000 A 
ATOM      8  C   UNL     1      -0.480  10.735  22.159  0.00  0.00    +0.000 A 
ATOM      9  C   UNL     1      -0.493  12.551  19.010  0.00  0.00    +0.000 C 
ATOM     10  O   UNL     1      -0.796  13.524  18.352  0.00  0.00    +0.000 OA
ENDROOT
BRANCH   1  15
ATOM     11  C   UNL     1      -3.671  10.874  17.786  0.00  0.00    +0.000 A 
ATOM     12  C   UNL     1      -3.507  10.429  16.468  0.00  0.00    +0.000 A 
ATOM     13  C   UNL     1      -2.332   9.786  16.084  0.00  0.00    +0.000 A 
ATOM     14  C   UNL     1      -1.267   9.712  16.974  0.00  0.00    +0.000 A 
ATOM     15  C   UNL     1      -1.340  10.430  18.183  0.00  0.00    +0.000 A 
ATOM     16  C   UNL     1      -2.587  10.814  18.668  0.00  0.00    +0.000 A 
BRANCH  11  18
ATOM     17  C   UNL     1      -5.612  12.277  17.052  0.00  0.00    +0.000 C 
ATOM     18  C   UNL     1      -4.942  11.558  18.215  0.00  0.00    +0.000 C 
ENDBRANCH  11  18
ENDBRANCH   1  15
BRANCH   8  19
ATOM     19  C   UNL     1      -0.059   9.372  22.652  0.00  0.00    +0.000 C 
ATOM     20  F   UNL     1      -0.204   9.194  23.994  0.00  0.00    +0.000 F 
ATOM     21  F   UNL     1      -0.777   8.372  22.071  0.00  0.00    +0.000 F 
ATOM     22  F   UNL     1       1.246   9.100  22.381  0.00  0.00    +0.000 F 
ENDBRANCH   8  19
BRANCH   6  23
ATOM     23  C   UNL     1      -2.845  13.553  23.368  0.00  0.00    +0.000 C 
BRANCH  23  24
ATOM     24  N   UNL     1      -4.295  13.333  23.145  0.00  0.00    +0.000 NA
ATOM     25  C   UNL     1      -4.936  12.681  24.291  0.00  0.00    +0.000 C 
ATOM     26  C   UNL     1      -6.469  12.714  24.354  0.00  0.00    +0.000 C 
ATOM     27  C   UNL     1      -7.092  14.086  24.093  0.00  0.00    +0.000 C 
ATOM     28  C   UNL     1      -7.671  14.254  22.686  0.00  0.00    +0.000 C 
ATOM     29  C   UNL     1      -6.671  14.255  21.524  0.00  0.00    +0.000 C 
ATOM     30  C   UNL     1      -5.993  12.896  21.286  0.00  0.00    +0.000 C 
ATOM     31  C   UNL     1      -4.567  12.724  21.834  0.00  0.00    +0.000 C 
BRANCH  29  32
ATOM     32  O   UNL     1      -5.729  15.308  21.687  0.00  0.00    +0.000 OA
ATOM     33  H   UNL     1      -5.470  15.291  22.632  0.00  0.00    +0.000 HD
ENDBRANCH  29  32
ENDBRANCH  23  24
ENDBRANCH   6  23
TORSDOF 6
ENDMDL
MODEL 9
REMARK VINA RESULT:      -7.0      2.977      5.282
REMARK  Name = 
REMARK  7 active torsions:
REMARK  status: ('A' for Active; 'I' for Inactive)
REMARK    1  A    between atoms: C_1  and  C_2
REMARK    2  A    between atoms: C_2  and  C_3
REMARK    3  A    between atoms: C_7  and  N_8
REMARK    4  A    between atoms: C_13  and  C_14
REMARK    5  A    between atoms: C_14  and  N_15
REMARK    6  A    between atoms: C_20  and  O_21
REMARK    7  A    between atoms: C_25  and  C_26
REMARK                            x       y       z     vdW  Elec       q    Type
REMARK                         _______ _______ _______ _____ _____    ______ ____
ROOT
ATOM      1  N   UNL     1       0.349  13.661  20.629  0.00  0.00    +0.000 N 
ATOM      2  C   UNL     1       0.783  12.239  20.510  0.00  0.00    +0.000 C 
ATOM      3  C   UNL     1      -0.355  11.629  19.749  0.00  0.00    +0.000 A 
ATOM      4  C   UNL     1      -1.489  12.406  19.998  0.00  0.00    +0.000 A 
ATOM      5  C   UNL     1      -2.678  12.257  19.307  0.00  0.00    +0.000 A 
ATOM      6  C   UNL     1      -2.742  11.268  18.319  0.00  0.00    +0.000 A 
ATOM      7  C   UNL     1      -1.603  10.453  18.085  0.00  0.00    +0.000 A 
ATOM      8  C   UNL     1      -0.386  10.626  18.787  0.00  0.00    +0.000 A 
ATOM      9  C   UNL     1      -1.060  13.621  20.732  0.00  0.00    +0.000 C 
ATOM     10  O   UNL     1      -1.826  14.474  21.129  0.00  0.00    +0.000 OA
ENDROOT
BRANCH   1  15
ATOM     11  C   UNL     1       0.351  16.592  18.543  0.00  0.00    +0.000 A 
ATOM     12  C   UNL     1       1.666  16.996  18.806  0.00  0.00    +0.000 A 
ATOM     13  C   UNL     1       2.622  16.063  19.202  0.00  0.00    +0.000 A 
ATOM     14  C   UNL     1       2.236  14.755  19.473  0.00  0.00    +0.000 A 
ATOM     15  C   UNL     1       0.864  14.444  19.498  0.00  0.00    +0.000 A 
ATOM     16  C   UNL     1      -0.033  15.280  18.838  0.00  0.00    +0.000 A 
BRANCH  11  18
ATOM     17  C   UNL     1      -0.257  18.323  16.837  0.00  0.00    +0.000 C 
ATOM     18  C   UNL     1      -0.686  17.590  18.101  0.00  0.00    +0.000 C 
ENDBRANCH  11  18
ENDBRANCH   1  15
BRANCH   8  19
ATOM     19  C   UNL     1       0.818   9.805  18.394  0.00  0.00    +0.000 C 
ATOM     20  F   UNL     1       1.874  10.539  17.948  0.00  0.00    +0.000 F 
ATOM     21  F   UNL     1       1.299   9.069  19.434  0.00  0.00    +0.000 F 
ATOM     22  F   UNL     1       0.540   8.914  17.404  0.00  0.00    +0.000 F 
ENDBRANCH   8  19
BRANCH   6  23
ATOM     23  C   UNL     1      -4.005  11.099  17.493  0.00  0.00    +0.000 C 
BRANCH  23  24
ATOM     24  N   UNL     1      -5.288  11.547  18.090  0.00  0.00    +0.000 NA
ATOM     25  C   UNL     1      -6.002  10.449  18.747  0.00  0.00    +0.000 C 
ATOM     26  C   UNL     1      -7.145  10.822  19.702  0.00  0.00    +0.000 C 
ATOM     27  C   UNL     1      -6.807  11.925  20.706  0.00  0.00    +0.000 C 
ATOM     28  C   UNL     1      -7.368  13.301  20.338  0.00  0.00    +0.000 C 
ATOM     29  C   UNL     1      -6.788  13.972  19.087  0.00  0.00    +0.000 C 
ATOM     30  C   UNL     1      -7.155  13.262  17.774  0.00  0.00    +0.000 C 
ATOM     31  C   UNL     1      -6.084  12.351  17.152  0.00  0.00    +0.000 C 
BRANCH  29  32
ATOM     32  O   UNL     1      -5.384  14.149  19.232  0.00  0.00    +0.000 OA
ATOM     33  H   UNL     1      -5.202  15.073  18.966  0.00  0.00    +0.000 HD
ENDBRANCH  29  32
ENDBRANCH  23  24
ENDBRANCH   6  23
TORSDOF 6
ENDMDL
