MODEL 1
REMARK VINA RESULT:      -7.9      0.000      0.000
REMARK  Name = 
REMARK  5 active torsions:
REMARK  status: ('A' for Active; 'I' for Inactive)
REMARK    1  A    between atoms: C_1  and  C_2
REMARK    2  A    between atoms: C_2  and  C_3
REMARK    3  A    between atoms: C_4  and  C_5
REMARK    4  A    between atoms: N_14  and  S_15
REMARK    5  A    between atoms: S_15  and  C_18
REMARK                            x       y       z     vdW  Elec       q    Type
REMARK                         _______ _______ _______ _____ _____    ______ ____
ROOT
ATOM      1  C   UNL     1       3.676   6.869  17.747  0.00  0.00    +0.000 C 
ATOM      2  C   UNL     1       2.777   5.990  18.623  0.00  0.00    +0.000 C 
ATOM      3  C   UNL     1       1.439   5.837  17.855  0.00  0.00    +0.000 C 
ATOM      4  C   UNL     1       2.612   6.589  20.058  0.00  0.00    +0.000 C 
ATOM      5  C   UNL     1       2.402   5.372  20.976  0.00  0.00    +0.000 C 
ATOM      6  C   UNL     1       2.540   4.134  20.092  0.00  0.00    +0.000 C 
ATOM      7  N   UNL     1       3.304   4.573  18.878  0.00  0.00    +0.000 NA
ENDROOT
BRANCH   4   8
ATOM      8  C   UNL     1       1.608   7.728  20.154  0.00  0.00    +0.000 A 
ATOM      9  C   UNL     1       1.590   8.808  19.257  0.00  0.00    +0.000 A 
ATOM     10  C   UNL     1       0.753   9.906  19.479  0.00  0.00    +0.000 A 
ATOM     11  C   UNL     1      -0.073   9.930  20.594  0.00  0.00    +0.000 A 
ATOM     12  F   UNL     1      -0.837  11.004  20.829  0.00  0.00    +0.000 F 
ATOM     13  C   UNL     1      -0.103   8.861  21.478  0.00  0.00    +0.000 A 
ATOM     14  C   UNL     1       0.726   7.760  21.253  0.00  0.00    +0.000 A 
ENDBRANCH   4   8
BRANCH   7  15
ATOM     15  S   UNL     1       5.006   4.328  18.998  0.00  0.00    +0.000 S 
ATOM     16  O   UNL     1       5.612   5.504  19.583  0.00  0.00    +0.000 OA
ATOM     17  O   UNL     1       5.224   3.020  19.569  0.00  0.00    +0.000 OA
BRANCH  15  18
ATOM     18  C   UNL     1       5.571   4.290  17.298  0.00  0.00    +0.000 A 
ATOM     19  C   UNL     1       4.776   3.637  16.339  0.00  0.00    +0.000 A 
ATOM     20  C   UNL     1       5.114   3.657  14.980  0.00  0.00    +0.000 A 
ATOM     21  C   UNL     1       6.261   4.374  14.638  0.00  0.00    +0.000 A 
ATOM     22  N   UNL     1       6.894   4.617  13.449  0.00  0.00    +0.000 N 
ATOM     23  N   UNL     1       7.980   5.391  13.613  0.00  0.00    +0.000 NA
ATOM     24  N   UNL     1       8.079   5.673  14.906  0.00  0.00    +0.000 NA
ATOM     25  C   UNL     1       7.045   5.055  15.561  0.00  0.00    +0.000 A 
ATOM     26  C   UNL     1       6.701   5.032  16.921  0.00  0.00    +0.000 A 
ATOM     27  H   UNL     1       6.659   4.296  12.519  0.00  0.00    +0.000 HD
ENDBRANCH  15  18
ENDBRANCH   7  15
TORSDOF 3
ENDMDL
MODEL 2
REMARK VINA RESULT:      -7.5      0.545      1.323
REMARK  Name = 
REMARK  5 active torsions:
REMARK  status: ('A' for Active; 'I' for Inactive)
REMARK    1  A    between atoms: C_1  and  C_2
REMARK    2  A    between atoms: C_2  and  C_3
REMARK    3  A    between atoms: C_4  and  C_5
REMARK    4  A    between atoms: N_14  and  S_15
REMARK    5  A    between atoms: S_15  and  C_18
REMARK                            x       y       z     vdW  Elec       q    Type
REMARK                         _______ _______ _______ _____ _____    ______ ____
ROOT
ATOM      1  C   UNL     1       3.799   7.010  17.793  0.00  0.00    +0.000 C 
ATOM      2  C   UNL     1       2.835   6.091  18.552  0.00  0.00    +0.000 C 
ATOM      3  C   UNL     1       1.543   6.015  17.697  0.00  0.00    +0.000 C 
ATOM      4  C   UNL     1       2.594   6.593  20.012  0.00  0.00    +0.000 C 
ATOM      5  C   UNL     1       2.312   5.320  20.830  0.00  0.00    +0.000 C 
ATOM      6  C   UNL     1       2.484   4.144  19.872  0.00  0.00    +0.000 C 
ATOM      7  N   UNL     1       3.325   4.650  18.738  0.00  0.00    +0.000 NA
ENDROOT
BRANCH   4   8
ATOM      8  C   UNL     1       1.604   7.742  20.128  0.00  0.00    +0.000 A 
ATOM      9  C   UNL     1       1.594   8.835  19.247  0.00  0.00    +0.000 A 
ATOM     10  C   UNL     1       0.770   9.938  19.487  0.00  0.00    +0.000 A 
ATOM     11  C   UNL     1      -0.051   9.955  20.606  0.00  0.00    +0.000 A 
ATOM     12  F   UNL     1      -0.802  11.035  20.859  0.00  0.00    +0.000 F 
ATOM     13  C   UNL     1      -0.090   8.875  21.475  0.00  0.00    +0.000 A 
ATOM     14  C   UNL     1       0.726   7.768  21.231  0.00  0.00    +0.000 A 
ENDBRANCH   4   8
BRANCH   7  15
ATOM     15  S   UNL     1       5.013   4.365  18.941  0.00  0.00    +0.000 S 
ATOM     16  O   UNL     1       5.584   5.441  19.720  0.00  0.00    +0.000 OA
ATOM     17  O   UNL     1       5.183   2.988  19.342  0.00  0.00    +0.000 OA
BRANCH  15  18
ATOM     18  C   UNL     1       5.695   4.548  17.293  0.00  0.00    +0.000 A 
ATOM     19  C   UNL     1       6.975   5.112  17.153  0.00  0.00    +0.000 A 
ATOM     20  C   UNL     1       7.601   5.191  15.903  0.00  0.00    +0.000 A 
ATOM     21  C   UNL     1       6.894   4.662  14.822  0.00  0.00    +0.000 A 
ATOM     22  N   UNL     1       7.168   4.558  13.485  0.00  0.00    +0.000 N 
ATOM     23  N   UNL     1       6.174   3.945  12.821  0.00  0.00    +0.000 NA
ATOM     24  N   UNL     1       5.234   3.633  13.704  0.00  0.00    +0.000 NA
ATOM     25  C   UNL     1       5.644   4.069  14.939  0.00  0.00    +0.000 A 
ATOM     26  C   UNL     1       5.022   3.992  16.194  0.00  0.00    +0.000 A 
ATOM     27  H   UNL     1       7.977   4.875  12.968  0.00  0.00    +0.000 HD
ENDBRANCH  15  18
ENDBRANCH   7  15
TORSDOF 3
ENDMDL
MODEL 3
REMARK VINA RESULT:      -7.4      6.578     10.798
REMARK  Name = 
REMARK  5 active torsions:
REMARK  status: ('A' for Active; 'I' for Inactive)
REMARK    1  A    between atoms: C_1  and  C_2
REMARK    2  A    between atoms: C_2  and  C_3
REMARK    3  A    between atoms: C_4  and  C_5
REMARK    4  A    between atoms: N_14  and  S_15
REMARK    5  A    between atoms: S_15  and  C_18
REMARK                            x       y       z     vdW  Elec       q    Type
REMARK                         _______ _______ _______ _____ _____    ______ ____
ROOT
ATOM      1  C   UNL     1      -0.992  10.212  20.961  0.00  0.00    +0.000 C 
ATOM      2  C   UNL     1      -0.409  10.837  19.689  0.00  0.00    +0.000 C 
ATOM      3  C   UNL     1      -1.152  10.174  18.500  0.00  0.00    +0.000 C 
ATOM      4  C   UNL     1       1.144  10.672  19.630  0.00  0.00    +0.000 C 
ATOM      5  C   UNL     1       1.644  11.893  18.837  0.00  0.00    +0.000 C 
ATOM      6  C   UNL     1       0.416  12.754  18.548  0.00  0.00    +0.000 C 
ATOM      7  N   UNL     1      -0.621  12.350  19.554  0.00  0.00    +0.000 NA
ENDROOT
BRANCH   4   8
ATOM      8  C   UNL     1       1.615   9.297  19.181  0.00  0.00    +0.000 A 
ATOM      9  C   UNL     1       1.698   8.197  20.050  0.00  0.00    +0.000 A 
ATOM     10  C   UNL     1       2.284   6.999  19.629  0.00  0.00    +0.000 A 
ATOM     11  C   UNL     1       2.787   6.891  18.340  0.00  0.00    +0.000 A 
ATOM     12  F   UNL     1       3.391   5.759  17.958  0.00  0.00    +0.000 F 
ATOM     13  C   UNL     1       2.686   7.949  17.448  0.00  0.00    +0.000 A 
ATOM     14  C   UNL     1       2.093   9.143  17.864  0.00  0.00    +0.000 A 
ENDBRANCH   4   8
BRANCH   7  15
ATOM     15  S   UNL     1      -0.627  13.319  20.979  0.00  0.00    +0.000 S 
ATOM     16  O   UNL     1       0.211  12.696  21.978  0.00  0.00    +0.000 OA
ATOM     17  O   UNL     1      -0.411  14.690  20.579  0.00  0.00    +0.000 OA
BRANCH  15  18
ATOM     18  C   UNL     1      -2.302  13.183  21.601  0.00  0.00    +0.000 A 
ATOM     19  C   UNL     1      -3.370  13.334  20.700  0.00  0.00    +0.000 A 
ATOM     20  C   UNL     1      -4.697  13.141  21.106  0.00  0.00    +0.000 A 
ATOM     21  C   UNL     1      -4.889  12.774  22.438  0.00  0.00    +0.000 A 
ATOM     22  N   UNL     1      -6.005  12.506  23.184  0.00  0.00    +0.000 N 
ATOM     23  N   UNL     1      -5.690  12.171  24.447  0.00  0.00    +0.000 NA
ATOM     24  N   UNL     1      -4.368  12.210  24.554  0.00  0.00    +0.000 NA
ATOM     25  C   UNL     1      -3.850  12.586  23.341  0.00  0.00    +0.000 A 
ATOM     26  C   UNL     1      -2.523  12.780  22.928  0.00  0.00    +0.000 A 
ATOM     27  H   UNL     1      -6.979  12.534  22.915  0.00  0.00    +0.000 HD
ENDBRANCH  15  18
ENDBRANCH   7  15
TORSDOF 3
ENDMDL
MODEL 4
REMARK VINA RESULT:      -7.2      6.666     10.900
REMARK  Name = 
REMARK  5 active torsions:
REMARK  status: ('A' for Active; 'I' for Inactive)
REMARK    1  A    between atoms: C_1  and  C_2
REMARK    2  A    between atoms: C_2  and  C_3
REMARK    3  A    between atoms: C_4  and  C_5
REMARK    4  A    between atoms: N_14  and  S_15
REMARK    5  A    between atoms: S_15  and  C_18
REMARK                            x       y       z     vdW  Elec       q    Type
REMARK                         _______ _______ _______ _____ _____    ______ ____
ROOT
ATOM      1  C   UNL     1      -0.912  10.380  21.194  0.00  0.00    +0.000 C 
ATOM      2  C   UNL     1      -0.478  10.961  19.844  0.00  0.00    +0.000 C 
ATOM      3  C   UNL     1      -1.308  10.218  18.765  0.00  0.00    +0.000 C 
ATOM      4  C   UNL     1       1.067  10.843  19.640  0.00  0.00    +0.000 C 
ATOM      5  C   UNL     1       1.443  12.040  18.747  0.00  0.00    +0.000 C 
ATOM      6  C   UNL     1       0.162  12.845  18.542  0.00  0.00    +0.000 C 
ATOM      7  N   UNL     1      -0.758  12.458  19.661  0.00  0.00    +0.000 NA
ENDROOT
BRANCH   4   8
ATOM      8  C   UNL     1       1.543   9.464  19.209  0.00  0.00    +0.000 A 
ATOM      9  C   UNL     1       1.674   8.388  20.102  0.00  0.00    +0.000 A 
ATOM     10  C   UNL     1       2.262   7.188  19.691  0.00  0.00    +0.000 A 
ATOM     11  C   UNL     1       2.720   7.054  18.388  0.00  0.00    +0.000 A 
ATOM     12  F   UNL     1       3.327   5.921  18.013  0.00  0.00    +0.000 F 
ATOM     13  C   UNL     1       2.571   8.087  17.474  0.00  0.00    +0.000 A 
ATOM     14  C   UNL     1       1.975   9.282  17.880  0.00  0.00    +0.000 A 
ENDBRANCH   4   8
BRANCH   7  15
ATOM     15  S   UNL     1      -0.662  13.495  21.035  0.00  0.00    +0.000 S 
ATOM     16  O   UNL     1       0.423  13.055  21.884  0.00  0.00    +0.000 OA
ATOM     17  O   UNL     1      -0.727  14.858  20.562  0.00  0.00    +0.000 OA
BRANCH  15  18
ATOM     18  C   UNL     1      -2.163  13.156  21.953  0.00  0.00    +0.000 A 
ATOM     19  C   UNL     1      -2.161  13.357  23.344  0.00  0.00    +0.000 A 
ATOM     20  C   UNL     1      -3.329  13.204  24.102  0.00  0.00    +0.000 A 
ATOM     21  C   UNL     1      -4.484  12.864  23.397  0.00  0.00    +0.000 A 
ATOM     22  N   UNL     1      -5.779  12.634  23.776  0.00  0.00    +0.000 N 
ATOM     23  N   UNL     1      -6.562  12.348  22.722  0.00  0.00    +0.000 NA
ATOM     24  N   UNL     1      -5.801  12.387  21.635  0.00  0.00    +0.000 NA
ATOM     25  C   UNL     1      -4.520  12.692  22.019  0.00  0.00    +0.000 A 
ATOM     26  C   UNL     1      -3.347  12.848  21.265  0.00  0.00    +0.000 A 
ATOM     27  H   UNL     1      -6.190  12.646  24.700  0.00  0.00    +0.000 HD
ENDBRANCH  15  18
ENDBRANCH   7  15
TORSDOF 3
ENDMDL
MODEL 5
REMARK VINA RESULT:      -7.1      0.614      1.621
REMARK  Name = 
REMARK  5 active torsions:
REMARK  status: ('A' for Active; 'I' for Inactive)
REMARK    1  A    between atoms: C_1  and  C_2
REMARK    2  A    between atoms: C_2  and  C_3
REMARK    3  A    between atoms: C_4  and  C_5
REMARK    4  A    between atoms: N_14  and  S_15
REMARK    5  A    between atoms: S_15  and  C_18
REMARK                            x       y       z     vdW  Elec       q    Type
REMARK                         _______ _______ _______ _____ _____    ______ ____
ROOT
ATOM      1  C   UNL     1       3.828   7.059  17.972  0.00  0.00    +0.000 C 
ATOM      2  C   UNL     1       2.678   6.231  18.554  0.00  0.00    +0.000 C 
ATOM      3  C   UNL     1       1.472   6.432  17.600  0.00  0.00    +0.000 C 
ATOM      4  C   UNL     1       2.379   6.627  20.037  0.00  0.00    +0.000 C 
ATOM      5  C   UNL     1       1.843   5.341  20.692  0.00  0.00    +0.000 C 
ATOM      6  C   UNL     1       1.931   4.246  19.631  0.00  0.00    +0.000 C 
ATOM      7  N   UNL     1       2.937   4.721  18.625  0.00  0.00    +0.000 NA
ENDROOT
BRANCH   4   8
ATOM      8  C   UNL     1       1.557   7.897  20.196  0.00  0.00    +0.000 A 
ATOM      9  C   UNL     1       0.644   8.090  21.245  0.00  0.00    +0.000 A 
ATOM     10  C   UNL     1      -0.200   9.204  21.260  0.00  0.00    +0.000 A 
ATOM     11  C   UNL     1      -0.135  10.133  20.231  0.00  0.00    +0.000 A 
ATOM     12  F   UNL     1      -0.979  11.173  20.225  0.00  0.00    +0.000 F 
ATOM     13  C   UNL     1       0.782   9.988  19.201  0.00  0.00    +0.000 A 
ATOM     14  C   UNL     1       1.632   8.881  19.189  0.00  0.00    +0.000 A 
ENDBRANCH   4   8
BRANCH   7  15
ATOM     15  S   UNL     1       4.541   4.166  18.925  0.00  0.00    +0.000 S 
ATOM     16  O   UNL     1       5.132   4.973  19.969  0.00  0.00    +0.000 OA
ATOM     17  O   UNL     1       4.495   2.727  19.036  0.00  0.00    +0.000 OA
BRANCH  15  18
ATOM     18  C   UNL     1       5.440   4.576  17.430  0.00  0.00    +0.000 A 
ATOM     19  C   UNL     1       6.581   5.390  17.532  0.00  0.00    +0.000 A 
ATOM     20  C   UNL     1       7.380   5.665  16.415  0.00  0.00    +0.000 A 
ATOM     21  C   UNL     1       6.991   5.070  15.214  0.00  0.00    +0.000 A 
ATOM     22  N   UNL     1       7.502   5.101  13.945  0.00  0.00    +0.000 N 
ATOM     23  N   UNL     1       6.782   4.343  13.101  0.00  0.00    +0.000 NA
ATOM     24  N   UNL     1       5.790   3.800  13.796  0.00  0.00    +0.000 NA
ATOM     25  C   UNL     1       5.887   4.235  15.093  0.00  0.00    +0.000 A 
ATOM     26  C   UNL     1       5.091   3.964  16.216  0.00  0.00    +0.000 A 
ATOM     27  H   UNL     1       8.305   5.601  13.588  0.00  0.00    +0.000 HD
ENDBRANCH  15  18
ENDBRANCH   7  15
TORSDOF 3
ENDMDL
MODEL 6
REMARK VINA RESULT:      -6.9      1.612      2.473
REMARK  Name = 
REMARK  5 active torsions:
REMARK  status: ('A' for Active; 'I' for Inactive)
REMARK    1  A    between atoms: C_1  and  C_2
REMARK    2  A    between atoms: C_2  and  C_3
REMARK    3  A    between atoms: C_4  and  C_5
REMARK    4  A    between atoms: N_14  and  S_15
REMARK    5  A    between atoms: S_15  and  C_18
REMARK                            x       y       z     vdW  Elec       q    Type
REMARK                         _______ _______ _______ _____ _____    ______ ____
ROOT
ATOM      1  C   UNL     1       1.124   4.428  17.704  0.00  0.00    +0.000 C 
ATOM      2  C   UNL     1       1.907   4.638  19.004  0.00  0.00    +0.000 C 
ATOM      3  C   UNL     1       0.851   4.897  20.110  0.00  0.00    +0.000 C 
ATOM      4  C   UNL     1       2.960   5.785  18.860  0.00  0.00    +0.000 C 
ATOM      5  C   UNL     1       4.099   5.404  19.822  0.00  0.00    +0.000 C 
ATOM      6  C   UNL     1       3.732   4.043  20.409  0.00  0.00    +0.000 C 
ATOM      7  N   UNL     1       2.740   3.435  19.462  0.00  0.00    +0.000 NA
ENDROOT
BRANCH   4   8
ATOM      8  C   UNL     1       2.382   7.188  18.970  0.00  0.00    +0.000 A 
ATOM      9  C   UNL     1       1.894   7.721  20.174  0.00  0.00    +0.000 A 
ATOM     10  C   UNL     1       1.230   8.952  20.191  0.00  0.00    +0.000 A 
ATOM     11  C   UNL     1       1.054   9.658  19.010  0.00  0.00    +0.000 A 
ATOM     12  F   UNL     1       0.375  10.812  19.024  0.00  0.00    +0.000 F 
ATOM     13  C   UNL     1       1.557   9.174  17.811  0.00  0.00    +0.000 A 
ATOM     14  C   UNL     1       2.228   7.949  17.793  0.00  0.00    +0.000 A 
ENDBRANCH   4   8
BRANCH   7  15
ATOM     15  S   UNL     1       3.450   2.412  18.270  0.00  0.00    +0.000 S 
ATOM     16  O   UNL     1       4.165   1.343  18.930  0.00  0.00    +0.000 OA
ATOM     17  O   UNL     1       2.440   2.127  17.277  0.00  0.00    +0.000 OA
BRANCH  15  18
ATOM     18  C   UNL     1       4.707   3.432  17.502  0.00  0.00    +0.000 A 
ATOM     19  C   UNL     1       5.837   3.792  18.257  0.00  0.00    +0.000 A 
ATOM     20  C   UNL     1       6.898   4.504  17.684  0.00  0.00    +0.000 A 
ATOM     21  C   UNL     1       6.775   4.812  16.328  0.00  0.00    +0.000 A 
ATOM     22  N   UNL     1       7.579   5.477  15.443  0.00  0.00    +0.000 N 
ATOM     23  N   UNL     1       7.041   5.513  14.212  0.00  0.00    +0.000 NA
ATOM     24  N   UNL     1       5.879   4.873  14.264  0.00  0.00    +0.000 NA
ATOM     25  C   UNL     1       5.685   4.440  15.552  0.00  0.00    +0.000 A 
ATOM     26  C   UNL     1       4.626   3.727  16.131  0.00  0.00    +0.000 A 
ATOM     27  H   UNL     1       8.474   5.923  15.597  0.00  0.00    +0.000 HD
ENDBRANCH  15  18
ENDBRANCH   7  15
TORSDOF 3
ENDMDL
MODEL 7
REMARK VINA RESULT:      -6.8      3.994      7.864
REMARK  Name = 
REMARK  5 active torsions:
REMARK  status: ('A' for Active; 'I' for Inactive)
REMARK    1  A    between atoms: C_1  and  C_2
REMARK    2  A    between atoms: C_2  and  C_3
REMARK    3  A    between atoms: C_4  and  C_5
REMARK    4  A    between atoms: N_14  and  S_15
REMARK    5  A    between atoms: S_15  and  C_18
REMARK                            x       y       z     vdW  Elec       q    Type
REMARK                         _______ _______ _______ _____ _____    ______ ____
ROOT
ATOM      1  C   UNL     1       3.595   6.963  16.677  0.00  0.00    +0.000 C 
ATOM      2  C   UNL     1       4.607   6.151  17.493  0.00  0.00    +0.000 C 
ATOM      3  C   UNL     1       5.929   6.962  17.476  0.00  0.00    +0.000 C 
ATOM      4  C   UNL     1       4.755   4.697  16.939  0.00  0.00    +0.000 C 
ATOM      5  C   UNL     1       5.117   3.839  18.164  0.00  0.00    +0.000 C 
ATOM      6  C   UNL     1       5.079   4.772  19.372  0.00  0.00    +0.000 C 
ATOM      7  N   UNL     1       4.236   5.944  18.966  0.00  0.00    +0.000 NA
ENDROOT
BRANCH   4   8
ATOM      8  C   UNL     1       5.639   4.579  15.707  0.00  0.00    +0.000 A 
ATOM      9  C   UNL     1       6.921   5.147  15.629  0.00  0.00    +0.000 A 
ATOM     10  C   UNL     1       7.630   5.147  14.424  0.00  0.00    +0.000 A 
ATOM     11  C   UNL     1       7.065   4.576  13.291  0.00  0.00    +0.000 A 
ATOM     12  F   UNL     1       7.727   4.621  12.128  0.00  0.00    +0.000 F 
ATOM     13  C   UNL     1       5.817   3.975  13.347  0.00  0.00    +0.000 A 
ATOM     14  C   UNL     1       5.111   3.966  14.552  0.00  0.00    +0.000 A 
ENDBRANCH   4   8
BRANCH   7  15
ATOM     15  S   UNL     1       2.572   5.788  19.391  0.00  0.00    +0.000 S 
ATOM     16  O   UNL     1       1.824   5.374  18.224  0.00  0.00    +0.000 OA
ATOM     17  O   UNL     1       2.501   5.038  20.622  0.00  0.00    +0.000 OA
BRANCH  15  18
ATOM     18  C   UNL     1       2.042   7.465  19.734  0.00  0.00    +0.000 A 
ATOM     19  C   UNL     1       1.850   8.345  18.654  0.00  0.00    +0.000 A 
ATOM     20  C   UNL     1       1.343   9.636  18.850  0.00  0.00    +0.000 A 
ATOM     21  C   UNL     1       1.025   9.983  20.163  0.00  0.00    +0.000 A 
ATOM     22  N   UNL     1       0.522  11.120  20.736  0.00  0.00    +0.000 N 
ATOM     23  N   UNL     1       0.362  10.980  22.063  0.00  0.00    +0.000 NA
ATOM     24  N   UNL     1       0.753   9.753  22.386  0.00  0.00    +0.000 NA
ATOM     25  C   UNL     1       1.174   9.121  21.243  0.00  0.00    +0.000 A 
ATOM     26  C   UNL     1       1.681   7.829  21.040  0.00  0.00    +0.000 A 
ATOM     27  H   UNL     1       0.277  12.001  20.305  0.00  0.00    +0.000 HD
ENDBRANCH  15  18
ENDBRANCH   7  15
TORSDOF 3
ENDMDL
MODEL 8
REMARK VINA RESULT:      -6.8      1.597      2.252
REMARK  Name = 
REMARK  5 active torsions:
REMARK  status: ('A' for Active; 'I' for Inactive)
REMARK    1  A    between atoms: C_1  and  C_2
REMARK    2  A    between atoms: C_2  and  C_3
REMARK    3  A    between atoms: C_4  and  C_5
REMARK    4  A    between atoms: N_14  and  S_15
REMARK    5  A    between atoms: S_15  and  C_18
REMARK                            x       y       z     vdW  Elec       q    Type
REMARK                         _______ _______ _______ _____ _____    ______ ____
ROOT
ATOM      1  C   UNL     1       2.631   4.294  17.438  0.00  0.00    +0.000 C 
ATOM      2  C   UNL     1       2.207   4.250  18.910  0.00  0.00    +0.000 C 
ATOM      3  C   UNL     1       0.657   4.282  18.917  0.00  0.00    +0.000 C 
ATOM      4  C   UNL     1       2.863   5.409  19.730  0.00  0.00    +0.000 C 
ATOM      5  C   UNL     1       3.011   4.852  21.157  0.00  0.00    +0.000 C 
ATOM      6  C   UNL     1       2.539   3.401  21.107  0.00  0.00    +0.000 C 
ATOM      7  N   UNL     1       2.625   2.985  19.668  0.00  0.00    +0.000 NA
ENDROOT
BRANCH   4   8
ATOM      8  C   UNL     1       2.184   6.760  19.565  0.00  0.00    +0.000 A 
ATOM      9  C   UNL     1       2.278   7.524  18.391  0.00  0.00    +0.000 A 
ATOM     10  C   UNL     1       1.769   8.825  18.344  0.00  0.00    +0.000 A 
ATOM     11  C   UNL     1       1.160   9.370  19.467  0.00  0.00    +0.000 A 
ATOM     12  F   UNL     1       0.719  10.633  19.433  0.00  0.00    +0.000 F 
ATOM     13  C   UNL     1       1.021   8.626  20.629  0.00  0.00    +0.000 A 
ATOM     14  C   UNL     1       1.521   7.323  20.674  0.00  0.00    +0.000 A 
ENDBRANCH   4   8
BRANCH   7  15
ATOM     15  S   UNL     1       4.112   2.219  19.252  0.00  0.00    +0.000 S 
ATOM     16  O   UNL     1       4.837   1.904  20.463  0.00  0.00    +0.000 OA
ATOM     17  O   UNL     1       3.822   1.196  18.275  0.00  0.00    +0.000 OA
BRANCH  15  18
ATOM     18  C   UNL     1       5.062   3.504  18.441  0.00  0.00    +0.000 A 
ATOM     19  C   UNL     1       5.702   4.472  19.235  0.00  0.00    +0.000 A 
ATOM     20  C   UNL     1       6.537   5.442  18.667  0.00  0.00    +0.000 A 
ATOM     21  C   UNL     1       6.709   5.377  17.283  0.00  0.00    +0.000 A 
ATOM     22  N   UNL     1       7.427   6.128  16.393  0.00  0.00    +0.000 N 
ATOM     23  N   UNL     1       7.298   5.668  15.137  0.00  0.00    +0.000 NA
ATOM     24  N   UNL     1       6.500   4.608  15.178  0.00  0.00    +0.000 NA
ATOM     25  C   UNL     1       6.115   4.411  16.480  0.00  0.00    +0.000 A 
ATOM     26  C   UNL     1       5.280   3.442  17.055  0.00  0.00    +0.000 A 
ATOM     27  H   UNL     1       8.002   6.943  16.557  0.00  0.00    +0.000 HD
ENDBRANCH  15  18
ENDBRANCH   7  15
TORSDOF 3
ENDMDL
MODEL 9
REMARK VINA RESULT:      -6.8      6.133     10.342
REMARK  Name = 
REMARK  5 active torsions:
REMARK  status: ('A' for Active; 'I' for Inactive)
REMARK    1  A    between atoms: C_1  and  C_2
REMARK    2  A    between atoms: C_2  and  C_3
REMARK    3  A    between atoms: C_4  and  C_5
REMARK    4  A    between atoms: N_14  and  S_15
REMARK    5  A    between atoms: S_15  and  C_18
REMARK                            x       y       z     vdW  Elec       q    Type
REMARK                         _______ _______ _______ _____ _____    ______ ____
ROOT
ATOM      1  C   UNL     1       1.141   9.485  22.214  0.00  0.00    +0.000 C 
ATOM      2  C   UNL     1       0.395   9.329  20.884  0.00  0.00    +0.000 C 
ATOM      3  C   UNL     1      -0.619   8.174  21.088  0.00  0.00    +0.000 C 
ATOM      4  C   UNL     1       1.384   9.096  19.696  0.00  0.00    +0.000 C 
ATOM      5  C   UNL     1       0.681   9.701  18.468  0.00  0.00    +0.000 C 
ATOM      6  C   UNL     1      -0.613  10.332  18.977  0.00  0.00    +0.000 C 
ATOM      7  N   UNL     1      -0.417  10.555  20.448  0.00  0.00    +0.000 NA
ENDROOT
BRANCH   4   8
ATOM      8  C   UNL     1       1.905   7.671  19.581  0.00  0.00    +0.000 A 
ATOM      9  C   UNL     1       1.803   6.734  20.621  0.00  0.00    +0.000 A 
ATOM     10  C   UNL     1       2.435   5.491  20.526  0.00  0.00    +0.000 A 
ATOM     11  C   UNL     1       3.169   5.175  19.391  0.00  0.00    +0.000 A 
ATOM     12  F   UNL     1       3.813   4.003  19.325  0.00  0.00    +0.000 F 
ATOM     13  C   UNL     1       3.258   6.066  18.332  0.00  0.00    +0.000 A 
ATOM     14  C   UNL     1       2.620   7.305  18.422  0.00  0.00    +0.000 A 
ENDBRANCH   4   8
BRANCH   7  15
ATOM     15  S   UNL     1       0.173  12.126  20.843  0.00  0.00    +0.000 S 
ATOM     16  O   UNL     1       1.487  12.003  21.434  0.00  0.00    +0.000 OA
ATOM     17  O   UNL     1      -0.049  12.980  19.700  0.00  0.00    +0.000 OA
BRANCH  15  18
ATOM     18  C   UNL     1      -0.900  12.683  22.166  0.00  0.00    +0.000 A 
ATOM     19  C   UNL     1      -0.696  13.965  22.705  0.00  0.00    +0.000 A 
ATOM     20  C   UNL     1      -1.561  14.494  23.671  0.00  0.00    +0.000 A 
ATOM     21  C   UNL     1      -2.638  13.688  24.045  0.00  0.00    +0.000 A 
ATOM     22  N   UNL     1      -3.667  13.853  24.932  0.00  0.00    +0.000 N 
ATOM     23  N   UNL     1      -4.490  12.791  24.941  0.00  0.00    +0.000 NA
ATOM     24  N   UNL     1      -4.022  11.914  24.061  0.00  0.00    +0.000 NA
ATOM     25  C   UNL     1      -2.881  12.432  23.503  0.00  0.00    +0.000 A 
ATOM     26  C   UNL     1      -2.011  11.908  22.536  0.00  0.00    +0.000 A 
ATOM     27  H   UNL     1      -3.865  14.629  25.549  0.00  0.00    +0.000 HD
ENDBRANCH  15  18
ENDBRANCH   7  15
TORSDOF 3
ENDMDL
