MODEL 1
REMARK VINA RESULT:      -8.5      0.000      0.000
REMARK  Name = 
REMARK  5 active torsions:
REMARK  status: ('A' for Active; 'I' for Inactive)
REMARK    1  A    between atoms: C_2  and  C_3
REMARK    2  A    between atoms: C_3  and  C_4
REMARK    3  A    between atoms: C_7  and  S_8
REMARK    4  A    between atoms: S_8  and  N_11
REMARK    5  A    between atoms: N_19  and  C_20
REMARK                            x       y       z     vdW  Elec       q    Type
REMARK                         _______ _______ _______ _____ _____    ______ ____
ROOT
ATOM      1  C   UNL     1       2.028   7.106  20.226  0.00  0.00    +0.000 A 
ATOM      2  C   UNL     1       1.996   5.850  20.854  0.00  0.00    +0.000 A 
ATOM      3  C   UNL     1       2.348   4.696  20.151  0.00  0.00    +0.000 A 
ATOM      4  C   UNL     1       2.704   4.788  18.803  0.00  0.00    +0.000 A 
ATOM      5  C   UNL     1       2.742   6.032  18.166  0.00  0.00    +0.000 A 
ATOM      6  C   UNL     1       2.396   7.185  18.876  0.00  0.00    +0.000 A 
ENDROOT
BRANCH   4   7
ATOM      7  S   UNL     1       3.216   3.323  17.919  0.00  0.00    +0.000 S 
ATOM      8  O   UNL     1       3.338   2.260  18.894  0.00  0.00    +0.000 OA
ATOM      9  O   UNL     1       2.339   3.186  16.775  0.00  0.00    +0.000 OA
BRANCH   7  10
ATOM     10  N   UNL     1       4.786   3.714  17.349  0.00  0.00    +0.000 NA
ATOM     11  C   UNL     1       4.845   4.206  15.950  0.00  0.00    +0.000 C 
ATOM     12  C   UNL     1       6.286   4.307  15.462  0.00  0.00    +0.000 C 
ATOM     13  C   UNL     1       7.122   5.163  16.406  0.00  0.00    +0.000 C 
ATOM     14  C   UNL     1       7.074   4.565  17.807  0.00  0.00    +0.000 C 
ATOM     15  C   UNL     1       5.637   4.462  18.309  0.00  0.00    +0.000 C 
ENDBRANCH   7  10
ENDBRANCH   4   7
BRANCH   1  16
ATOM     16  C   UNL     1       1.691   8.360  21.004  0.00  0.00    +0.000 C 
BRANCH  16  18
ATOM     17  O   UNL     1      -0.641   8.432  21.501  0.00  0.00    +0.000 OA
ATOM     18  C   UNL     1       0.272   8.889  20.814  0.00  0.00    +0.000 C 
ATOM     19  N   UNL     1       0.132   9.814  19.795  0.00  0.00    +0.000 N 
ATOM     20  H   UNL     1       0.942   9.978  19.210  0.00  0.00    +0.000 HD
BRANCH  19  21
ATOM     21  C   UNL     1      -1.031  10.527  19.437  0.00  0.00    +0.000 A 
ATOM     22  C   UNL     1      -1.529  11.616  20.171  0.00  0.00    +0.000 A 
ATOM     23  C   UNL     1      -2.719  12.252  19.800  0.00  0.00    +0.000 A 
ATOM     24  C   UNL     1      -3.393  11.796  18.680  0.00  0.00    +0.000 A 
ATOM     25  C   UNL     1      -2.880  10.750  17.915  0.00  0.00    +0.000 A 
ATOM     26  C   UNL     1      -1.706  10.108  18.281  0.00  0.00    +0.000 A 
ATOM     27  C   UNL     1      -3.784  10.420  16.771  0.00  0.00    +0.000 C 
ATOM     28  C   UNL     1      -4.761  11.607  16.773  0.00  0.00    +0.000 C 
ATOM     29  C   UNL     1      -4.725  12.239  18.171  0.00  0.00    +0.000 C 
ENDBRANCH  19  21
ENDBRANCH  16  18
ENDBRANCH   1  16
TORSDOF 5
ENDMDL
MODEL 2
REMARK VINA RESULT:      -8.3      1.525      2.738
REMARK  Name = 
REMARK  5 active torsions:
REMARK  status: ('A' for Active; 'I' for Inactive)
REMARK    1  A    between atoms: C_2  and  C_3
REMARK    2  A    between atoms: C_3  and  C_4
REMARK    3  A    between atoms: C_7  and  S_8
REMARK    4  A    between atoms: S_8  and  N_11
REMARK    5  A    between atoms: N_19  and  C_20
REMARK                            x       y       z     vdW  Elec       q    Type
REMARK                         _______ _______ _______ _____ _____    ______ ____
ROOT
ATOM      1  C   UNL     1       1.682   9.274  18.890  0.00  0.00    +0.000 A 
ATOM      2  C   UNL     1       2.282   8.779  17.721  0.00  0.00    +0.000 A 
ATOM      3  C   UNL     1       2.775   7.474  17.675  0.00  0.00    +0.000 A 
ATOM      4  C   UNL     1       2.699   6.664  18.812  0.00  0.00    +0.000 A 
ATOM      5  C   UNL     1       2.102   7.143  19.981  0.00  0.00    +0.000 A 
ATOM      6  C   UNL     1       1.603   8.449  20.020  0.00  0.00    +0.000 A 
ENDROOT
BRANCH   4   7
ATOM      7  S   UNL     1       3.271   4.973  18.736  0.00  0.00    +0.000 S 
ATOM      8  O   UNL     1       3.303   4.475  20.095  0.00  0.00    +0.000 OA
ATOM      9  O   UNL     1       2.490   4.304  17.716  0.00  0.00    +0.000 OA
BRANCH   7  10
ATOM     10  N   UNL     1       4.886   5.110  18.174  0.00  0.00    +0.000 NA
ATOM     11  C   UNL     1       5.916   5.222  19.238  0.00  0.00    +0.000 C 
ATOM     12  C   UNL     1       7.279   5.566  18.649  0.00  0.00    +0.000 C 
ATOM     13  C   UNL     1       7.676   4.566  17.571  0.00  0.00    +0.000 C 
ATOM     14  C   UNL     1       6.613   4.551  16.479  0.00  0.00    +0.000 C 
ATOM     15  C   UNL     1       5.243   4.203  17.054  0.00  0.00    +0.000 C 
ENDBRANCH   7  10
ENDBRANCH   4   7
BRANCH   1  16
ATOM     16  C   UNL     1       1.106  10.675  18.922  0.00  0.00    +0.000 C 
BRANCH  16  18
ATOM     17  O   UNL     1      -0.940  10.516  20.138  0.00  0.00    +0.000 OA
ATOM     18  C   UNL     1      -0.413  10.756  19.052  0.00  0.00    +0.000 C 
ATOM     19  N   UNL     1      -1.080  11.030  17.872  0.00  0.00    +0.000 N 
ATOM     20  H   UNL     1      -0.525  11.048  17.025  0.00  0.00    +0.000 HD
BRANCH  19  21
ATOM     21  C   UNL     1      -2.463  11.238  17.697  0.00  0.00    +0.000 A 
ATOM     22  C   UNL     1      -3.145  10.964  16.499  0.00  0.00    +0.000 A 
ATOM     23  C   UNL     1      -4.509  11.242  16.366  0.00  0.00    +0.000 A 
ATOM     24  C   UNL     1      -5.185  11.781  17.447  0.00  0.00    +0.000 A 
ATOM     25  C   UNL     1      -4.531  12.009  18.656  0.00  0.00    +0.000 A 
ATOM     26  C   UNL     1      -3.176  11.744  18.795  0.00  0.00    +0.000 A 
ATOM     27  C   UNL     1      -5.454  12.610  19.667  0.00  0.00    +0.000 C 
ATOM     28  C   UNL     1      -6.828  12.435  19.002  0.00  0.00    +0.000 C 
ATOM     29  C   UNL     1      -6.598  12.263  17.494  0.00  0.00    +0.000 C 
ENDBRANCH  19  21
ENDBRANCH  16  18
ENDBRANCH   1  16
TORSDOF 5
ENDMDL
MODEL 3
REMARK VINA RESULT:      -8.3      2.359      3.590
REMARK  Name = 
REMARK  5 active torsions:
REMARK  status: ('A' for Active; 'I' for Inactive)
REMARK    1  A    between atoms: C_2  and  C_3
REMARK    2  A    between atoms: C_3  and  C_4
REMARK    3  A    between atoms: C_7  and  S_8
REMARK    4  A    between atoms: S_8  and  N_11
REMARK    5  A    between atoms: N_19  and  C_20
REMARK                            x       y       z     vdW  Elec       q    Type
REMARK                         _______ _______ _______ _____ _____    ______ ____
ROOT
ATOM      1  C   UNL     1       1.507   9.499  19.021  0.00  0.00    +0.000 A 
ATOM      2  C   UNL     1       2.106   9.002  17.853  0.00  0.00    +0.000 A 
ATOM      3  C   UNL     1       2.602   7.697  17.809  0.00  0.00    +0.000 A 
ATOM      4  C   UNL     1       2.531   6.890  18.948  0.00  0.00    +0.000 A 
ATOM      5  C   UNL     1       1.935   7.372  20.117  0.00  0.00    +0.000 A 
ATOM      6  C   UNL     1       1.434   8.676  20.154  0.00  0.00    +0.000 A 
ENDROOT
BRANCH   4   7
ATOM      7  S   UNL     1       3.106   5.201  18.876  0.00  0.00    +0.000 S 
ATOM      8  O   UNL     1       3.210   4.730  20.241  0.00  0.00    +0.000 OA
ATOM      9  O   UNL     1       2.276   4.509  17.911  0.00  0.00    +0.000 OA
BRANCH   7  10
ATOM     10  N   UNL     1       4.689   5.333  18.228  0.00  0.00    +0.000 NA
ATOM     11  C   UNL     1       5.787   5.217  19.221  0.00  0.00    +0.000 C 
ATOM     12  C   UNL     1       7.132   5.572  18.596  0.00  0.00    +0.000 C 
ATOM     13  C   UNL     1       7.394   4.734  17.351  0.00  0.00    +0.000 C 
ATOM     14  C   UNL     1       6.267   4.951  16.349  0.00  0.00    +0.000 C 
ATOM     15  C   UNL     1       4.915   4.595  16.960  0.00  0.00    +0.000 C 
ENDBRANCH   7  10
ENDBRANCH   4   7
BRANCH   1  16
ATOM     16  C   UNL     1       0.928  10.898  19.050  0.00  0.00    +0.000 C 
BRANCH  16  18
ATOM     17  O   UNL     1      -1.351  10.228  18.839  0.00  0.00    +0.000 OA
ATOM     18  C   UNL     1      -0.556  10.986  19.393  0.00  0.00    +0.000 C 
ATOM     19  N   UNL     1      -0.886  12.001  20.274  0.00  0.00    +0.000 N 
ATOM     20  H   UNL     1      -0.148  12.646  20.527  0.00  0.00    +0.000 HD
BRANCH  19  21
ATOM     21  C   UNL     1      -2.153  12.276  20.829  0.00  0.00    +0.000 A 
ATOM     22  C   UNL     1      -3.276  12.627  20.061  0.00  0.00    +0.000 A 
ATOM     23  C   UNL     1      -4.495  12.943  20.670  0.00  0.00    +0.000 A 
ATOM     24  C   UNL     1      -4.581  12.889  22.050  0.00  0.00    +0.000 A 
ATOM     25  C   UNL     1      -3.487  12.492  22.818  0.00  0.00    +0.000 A 
ATOM     26  C   UNL     1      -2.272  12.185  22.223  0.00  0.00    +0.000 A 
ATOM     27  C   UNL     1      -3.808  12.528  24.278  0.00  0.00    +0.000 C 
ATOM     28  C   UNL     1      -5.334  12.709  24.274  0.00  0.00    +0.000 C 
ATOM     29  C   UNL     1      -5.732  13.295  22.912  0.00  0.00    +0.000 C 
ENDBRANCH  19  21
ENDBRANCH  16  18
ENDBRANCH   1  16
TORSDOF 5
ENDMDL
MODEL 4
REMARK VINA RESULT:      -8.2      4.112     10.078
REMARK  Name = 
REMARK  5 active torsions:
REMARK  status: ('A' for Active; 'I' for Inactive)
REMARK    1  A    between atoms: C_2  and  C_3
REMARK    2  A    between atoms: C_3  and  C_4
REMARK    3  A    between atoms: C_7  and  S_8
REMARK    4  A    between atoms: S_8  and  N_11
REMARK    5  A    between atoms: N_19  and  C_20
REMARK                            x       y       z     vdW  Elec       q    Type
REMARK                         _______ _______ _______ _____ _____    ______ ____
ROOT
ATOM      1  C   UNL     1      -0.216  10.688  22.404  0.00  0.00    +0.000 A 
ATOM      2  C   UNL     1      -1.343  10.860  23.223  0.00  0.00    +0.000 A 
ATOM      3  C   UNL     1      -2.224  11.921  23.005  0.00  0.00    +0.000 A 
ATOM      4  C   UNL     1      -1.963  12.839  21.984  0.00  0.00    +0.000 A 
ATOM      5  C   UNL     1      -0.845  12.680  21.160  0.00  0.00    +0.000 A 
ATOM      6  C   UNL     1       0.030  11.611  21.378  0.00  0.00    +0.000 A 
ENDROOT
BRANCH   4   7
ATOM      7  S   UNL     1      -3.121  14.161  21.663  0.00  0.00    +0.000 S 
ATOM      8  O   UNL     1      -3.573  14.651  22.948  0.00  0.00    +0.000 OA
ATOM      9  O   UNL     1      -2.498  15.050  20.704  0.00  0.00    +0.000 OA
BRANCH   7  10
ATOM     10  N   UNL     1      -4.437  13.376  20.891  0.00  0.00    +0.000 NA
ATOM     11  C   UNL     1      -4.065  12.474  19.772  0.00  0.00    +0.000 C 
ATOM     12  C   UNL     1      -5.300  12.007  19.010  0.00  0.00    +0.000 C 
ATOM     13  C   UNL     1      -6.312  11.365  19.951  0.00  0.00    +0.000 C 
ATOM     14  C   UNL     1      -6.701  12.364  21.033  0.00  0.00    +0.000 C 
ATOM     15  C   UNL     1      -5.475  12.838  21.807  0.00  0.00    +0.000 C 
ENDBRANCH   7  10
ENDBRANCH   4   7
BRANCH   1  16
ATOM     16  C   UNL     1       0.711   9.509  22.613  0.00  0.00    +0.000 C 
BRANCH  16  18
ATOM     17  O   UNL     1      -0.565   8.027  21.248  0.00  0.00    +0.000 OA
ATOM     18  C   UNL     1       0.560   8.370  21.608  0.00  0.00    +0.000 C 
ATOM     19  N   UNL     1       1.748   7.762  21.243  0.00  0.00    +0.000 N 
ATOM     20  H   UNL     1       2.582   8.048  21.740  0.00  0.00    +0.000 HD
BRANCH  19  21
ATOM     21  C   UNL     1       1.929   6.743  20.285  0.00  0.00    +0.000 A 
ATOM     22  C   UNL     1       2.496   6.961  19.018  0.00  0.00    +0.000 A 
ATOM     23  C   UNL     1       2.602   5.923  18.087  0.00  0.00    +0.000 A 
ATOM     24  C   UNL     1       2.151   4.664  18.443  0.00  0.00    +0.000 A 
ATOM     25  C   UNL     1       1.635   4.425  19.716  0.00  0.00    +0.000 A 
ATOM     26  C   UNL     1       1.518   5.450  20.642  0.00  0.00    +0.000 A 
ATOM     27  C   UNL     1       1.196   3.003  19.864  0.00  0.00    +0.000 C 
ATOM     28  C   UNL     1       1.795   2.343  18.612  0.00  0.00    +0.000 C 
ATOM     29  C   UNL     1       2.056   3.449  17.580  0.00  0.00    +0.000 C 
ENDBRANCH  19  21
ENDBRANCH  16  18
ENDBRANCH   1  16
TORSDOF 5
ENDMDL
MODEL 5
REMARK VINA RESULT:      -8.1      1.235      2.211
REMARK  Name = 
REMARK  5 active torsions:
REMARK  status: ('A' for Active; 'I' for Inactive)
REMARK    1  A    between atoms: C_2  and  C_3
REMARK    2  A    between atoms: C_3  and  C_4
REMARK    3  A    between atoms: C_7  and  S_8
REMARK    4  A    between atoms: S_8  and  N_11
REMARK    5  A    between atoms: N_19  and  C_20
REMARK                            x       y       z     vdW  Elec       q    Type
REMARK                         _______ _______ _______ _____ _____    ______ ____
ROOT
ATOM      1  C   UNL     1       1.840   8.626  19.042  0.00  0.00    +0.000 A 
ATOM      2  C   UNL     1       2.317   8.135  17.816  0.00  0.00    +0.000 A 
ATOM      3  C   UNL     1       2.750   6.812  17.701  0.00  0.00    +0.000 A 
ATOM      4  C   UNL     1       2.738   5.980  18.823  0.00  0.00    +0.000 A 
ATOM      5  C   UNL     1       2.264   6.454  20.049  0.00  0.00    +0.000 A 
ATOM      6  C   UNL     1       1.825   7.778  20.158  0.00  0.00    +0.000 A 
ENDROOT
BRANCH   4   7
ATOM      7  S   UNL     1       3.231   4.270  18.664  0.00  0.00    +0.000 S 
ATOM      8  O   UNL     1       3.242   3.706  19.998  0.00  0.00    +0.000 OA
ATOM      9  O   UNL     1       2.418   3.688  17.617  0.00  0.00    +0.000 OA
BRANCH   7  10
ATOM     10  N   UNL     1       4.850   4.359  18.103  0.00  0.00    +0.000 NA
ATOM     11  C   UNL     1       5.004   4.392  16.627  0.00  0.00    +0.000 C 
ATOM     12  C   UNL     1       6.467   4.240  16.224  0.00  0.00    +0.000 C 
ATOM     13  C   UNL     1       7.334   5.284  16.915  0.00  0.00    +0.000 C 
ATOM     14  C   UNL     1       7.182   5.151  18.425  0.00  0.00    +0.000 C 
ATOM     15  C   UNL     1       5.723   5.305  18.843  0.00  0.00    +0.000 C 
ENDBRANCH   7  10
ENDBRANCH   4   7
BRANCH   1  16
ATOM     16  C   UNL     1       1.328  10.047  19.152  0.00  0.00    +0.000 C 
BRANCH  16  18
ATOM     17  O   UNL     1      -0.834   9.867  20.144  0.00  0.00    +0.000 OA
ATOM     18  C   UNL     1      -0.191  10.198  19.149  0.00  0.00    +0.000 C 
ATOM     19  N   UNL     1      -0.725  10.640  17.951  0.00  0.00    +0.000 N 
ATOM     20  H   UNL     1      -0.088  10.723  17.168  0.00  0.00    +0.000 HD
BRANCH  19  21
ATOM     21  C   UNL     1      -2.073  10.944  17.674  0.00  0.00    +0.000 A 
ATOM     22  C   UNL     1      -2.694  10.671  16.443  0.00  0.00    +0.000 A 
ATOM     23  C   UNL     1      -4.020  11.045  16.206  0.00  0.00    +0.000 A 
ATOM     24  C   UNL     1      -4.722  11.678  17.216  0.00  0.00    +0.000 A 
ATOM     25  C   UNL     1      -4.133  11.908  18.459  0.00  0.00    +0.000 A 
ATOM     26  C   UNL     1      -2.815  11.548  18.700  0.00  0.00    +0.000 A 
ATOM     27  C   UNL     1      -5.071  12.619  19.380  0.00  0.00    +0.000 C 
ATOM     28  C   UNL     1      -6.407  12.520  18.629  0.00  0.00    +0.000 C 
ATOM     29  C   UNL     1      -6.093  12.266  17.148  0.00  0.00    +0.000 C 
ENDBRANCH  19  21
ENDBRANCH  16  18
ENDBRANCH   1  16
TORSDOF 5
ENDMDL
MODEL 6
REMARK VINA RESULT:      -8.1      2.228      3.339
REMARK  Name = 
REMARK  5 active torsions:
REMARK  status: ('A' for Active; 'I' for Inactive)
REMARK    1  A    between atoms: C_2  and  C_3
REMARK    2  A    between atoms: C_3  and  C_4
REMARK    3  A    between atoms: C_7  and  S_8
REMARK    4  A    between atoms: S_8  and  N_11
REMARK    5  A    between atoms: N_19  and  C_20
REMARK                            x       y       z     vdW  Elec       q    Type
REMARK                         _______ _______ _______ _____ _____    ______ ____
ROOT
ATOM      1  C   UNL     1       1.630   9.313  18.838  0.00  0.00    +0.000 A 
ATOM      2  C   UNL     1       2.294   8.791  17.717  0.00  0.00    +0.000 A 
ATOM      3  C   UNL     1       2.802   7.490  17.734  0.00  0.00    +0.000 A 
ATOM      4  C   UNL     1       2.676   6.713  18.889  0.00  0.00    +0.000 A 
ATOM      5  C   UNL     1       2.016   7.219  20.012  0.00  0.00    +0.000 A 
ATOM      6  C   UNL     1       1.503   8.520  19.987  0.00  0.00    +0.000 A 
ENDROOT
BRANCH   4   7
ATOM      7  S   UNL     1       3.268   5.027  18.892  0.00  0.00    +0.000 S 
ATOM      8  O   UNL     1       3.354   4.611  20.276  0.00  0.00    +0.000 OA
ATOM      9  O   UNL     1       2.460   4.290  17.942  0.00  0.00    +0.000 OA
BRANCH   7  10
ATOM     10  N   UNL     1       4.860   5.149  18.266  0.00  0.00    +0.000 NA
ATOM     11  C   UNL     1       5.932   5.264  19.286  0.00  0.00    +0.000 C 
ATOM     12  C   UNL     1       7.273   5.595  18.640  0.00  0.00    +0.000 C 
ATOM     13  C   UNL     1       7.620   4.583  17.557  0.00  0.00    +0.000 C 
ATOM     14  C   UNL     1       6.515   4.564  16.508  0.00  0.00    +0.000 C 
ATOM     15  C   UNL     1       5.167   4.230  17.141  0.00  0.00    +0.000 C 
ENDBRANCH   7  10
ENDBRANCH   4   7
BRANCH   1  16
ATOM     16  C   UNL     1       1.039  10.706  18.799  0.00  0.00    +0.000 C 
BRANCH  16  18
ATOM     17  O   UNL     1      -1.287  10.237  19.033  0.00  0.00    +0.000 OA
ATOM     18  C   UNL     1      -0.322  10.860  19.472  0.00  0.00    +0.000 C 
ATOM     19  N   UNL     1      -0.354  11.780  20.505  0.00  0.00    +0.000 N 
ATOM     20  H   UNL     1       0.481  12.334  20.653  0.00  0.00    +0.000 HD
BRANCH  19  21
ATOM     21  C   UNL     1      -1.440  12.078  21.354  0.00  0.00    +0.000 A 
ATOM     22  C   UNL     1      -1.518  11.656  22.692  0.00  0.00    +0.000 A 
ATOM     23  C   UNL     1      -2.645  11.935  23.472  0.00  0.00    +0.000 A 
ATOM     24  C   UNL     1      -3.683  12.652  22.904  0.00  0.00    +0.000 A 
ATOM     25  C   UNL     1      -3.595  13.120  21.594  0.00  0.00    +0.000 A 
ATOM     26  C   UNL     1      -2.484  12.841  20.811  0.00  0.00    +0.000 A 
ATOM     27  C   UNL     1      -4.837  13.849  21.194  0.00  0.00    +0.000 C 
ATOM     28  C   UNL     1      -5.565  14.019  22.536  0.00  0.00    +0.000 C 
ATOM     29  C   UNL     1      -5.017  12.959  23.502  0.00  0.00    +0.000 C 
ENDBRANCH  19  21
ENDBRANCH  16  18
ENDBRANCH   1  16
TORSDOF 5
ENDMDL
MODEL 7
REMARK VINA RESULT:      -8.1      1.368      2.366
REMARK  Name = 
REMARK  5 active torsions:
REMARK  status: ('A' for Active; 'I' for Inactive)
REMARK    1  A    between atoms: C_2  and  C_3
REMARK    2  A    between atoms: C_3  and  C_4
REMARK    3  A    between atoms: C_7  and  S_8
REMARK    4  A    between atoms: S_8  and  N_11
REMARK    5  A    between atoms: N_19  and  C_20
REMARK                            x       y       z     vdW  Elec       q    Type
REMARK                         _______ _______ _______ _____ _____    ______ ____
ROOT
ATOM      1  C   UNL     1       1.796   8.891  18.970  0.00  0.00    +0.000 A 
ATOM      2  C   UNL     1       1.677   7.989  20.038  0.00  0.00    +0.000 A 
ATOM      3  C   UNL     1       2.209   6.701  19.943  0.00  0.00    +0.000 A 
ATOM      4  C   UNL     1       2.836   6.297  18.761  0.00  0.00    +0.000 A 
ATOM      5  C   UNL     1       2.964   7.186  17.690  0.00  0.00    +0.000 A 
ATOM      6  C   UNL     1       2.436   8.477  17.793  0.00  0.00    +0.000 A 
ENDROOT
BRANCH   4   7
ATOM      7  S   UNL     1       3.574   4.673  18.658  0.00  0.00    +0.000 S 
ATOM      8  O   UNL     1       4.159   4.391  19.952  0.00  0.00    +0.000 OA
ATOM      9  O   UNL     1       2.582   3.790  18.081  0.00  0.00    +0.000 OA
BRANCH   7  10
ATOM     10  N   UNL     1       4.846   4.870  17.524  0.00  0.00    +0.000 NA
ATOM     11  C   UNL     1       6.215   4.783  18.091  0.00  0.00    +0.000 C 
ATOM     12  C   UNL     1       7.263   5.194  17.063  0.00  0.00    +0.000 C 
ATOM     13  C   UNL     1       7.120   4.380  15.783  0.00  0.00    +0.000 C 
ATOM     14  C   UNL     1       5.717   4.567  15.218  0.00  0.00    +0.000 C 
ATOM     15  C   UNL     1       4.658   4.156  16.236  0.00  0.00    +0.000 C 
ENDBRANCH   7  10
ENDBRANCH   4   7
BRANCH   1  16
ATOM     16  C   UNL     1       1.260  10.302  19.094  0.00  0.00    +0.000 C 
BRANCH  16  18
ATOM     17  O   UNL     1      -0.869  10.134  20.157  0.00  0.00    +0.000 OA
ATOM     18  C   UNL     1      -0.261  10.425  19.127  0.00  0.00    +0.000 C 
ATOM     19  N   UNL     1      -0.837  10.794  17.925  0.00  0.00    +0.000 N 
ATOM     20  H   UNL     1      -0.224  10.847  17.120  0.00  0.00    +0.000 HD
BRANCH  19  21
ATOM     21  C   UNL     1      -2.198  11.059  17.671  0.00  0.00    +0.000 A 
ATOM     22  C   UNL     1      -2.831  10.769  16.451  0.00  0.00    +0.000 A 
ATOM     23  C   UNL     1      -4.172  11.104  16.236  0.00  0.00    +0.000 A 
ATOM     24  C   UNL     1      -4.875  11.714  17.261  0.00  0.00    +0.000 A 
ATOM     25  C   UNL     1      -4.272  11.959  18.493  0.00  0.00    +0.000 A 
ATOM     26  C   UNL     1      -2.940  11.638  18.711  0.00  0.00    +0.000 A 
ATOM     27  C   UNL     1      -5.215  12.641  19.432  0.00  0.00    +0.000 C 
ATOM     28  C   UNL     1      -6.560  12.503  18.704  0.00  0.00    +0.000 C 
ATOM     29  C   UNL     1      -6.264  12.262  17.217  0.00  0.00    +0.000 C 
ENDBRANCH  19  21
ENDBRANCH  16  18
ENDBRANCH   1  16
TORSDOF 5
ENDMDL
MODEL 8
REMARK VINA RESULT:      -8.1      0.633      1.149
REMARK  Name = 
REMARK  5 active torsions:
REMARK  status: ('A' for Active; 'I' for Inactive)
REMARK    1  A    between atoms: C_2  and  C_3
REMARK    2  A    between atoms: C_3  and  C_4
REMARK    3  A    between atoms: C_7  and  S_8
REMARK    4  A    between atoms: S_8  and  N_11
REMARK    5  A    between atoms: N_19  and  C_20
REMARK                            x       y       z     vdW  Elec       q    Type
REMARK                         _______ _______ _______ _____ _____    ______ ____
ROOT
ATOM      1  C   UNL     1       2.019   7.205  20.483  0.00  0.00    +0.000 A 
ATOM      2  C   UNL     1       1.748   5.895  20.907  0.00  0.00    +0.000 A 
ATOM      3  C   UNL     1       2.257   4.801  20.204  0.00  0.00    +0.000 A 
ATOM      4  C   UNL     1       3.015   5.012  19.048  0.00  0.00    +0.000 A 
ATOM      5  C   UNL     1       3.294   6.312  18.616  0.00  0.00    +0.000 A 
ATOM      6  C   UNL     1       2.789   7.404  19.328  0.00  0.00    +0.000 A 
ENDROOT
BRANCH   4   7
ATOM      7  S   UNL     1       3.719   3.618  18.183  0.00  0.00    +0.000 S 
ATOM      8  O   UNL     1       4.412   2.814  19.167  0.00  0.00    +0.000 OA
ATOM      9  O   UNL     1       2.669   3.050  17.362  0.00  0.00    +0.000 OA
BRANCH   7  10
ATOM     10  N   UNL     1       4.889   4.326  17.146  0.00  0.00    +0.000 NA
ATOM     11  C   UNL     1       6.276   4.338  17.675  0.00  0.00    +0.000 C 
ATOM     12  C   UNL     1       7.192   5.182  16.797  0.00  0.00    +0.000 C 
ATOM     13  C   UNL     1       7.137   4.719  15.347  0.00  0.00    +0.000 C 
ATOM     14  C   UNL     1       5.699   4.795  14.846  0.00  0.00    +0.000 C 
ATOM     15  C   UNL     1       4.772   3.952  15.714  0.00  0.00    +0.000 C 
ENDBRANCH   7  10
ENDBRANCH   4   7
BRANCH   1  16
ATOM     16  C   UNL     1       1.506   8.389  21.275  0.00  0.00    +0.000 C 
BRANCH  16  18
ATOM     17  O   UNL     1      -0.862   8.510  21.533  0.00  0.00    +0.000 OA
ATOM     18  C   UNL     1       0.116   8.885  20.887  0.00  0.00    +0.000 C 
ATOM     19  N   UNL     1       0.081   9.680  19.756  0.00  0.00    +0.000 N 
ATOM     20  H   UNL     1       0.945   9.776  19.236  0.00  0.00    +0.000 HD
BRANCH  19  21
ATOM     21  C   UNL     1      -1.037  10.339  19.205  0.00  0.00    +0.000 A 
ATOM     22  C   UNL     1      -1.702  11.401  19.841  0.00  0.00    +0.000 A 
ATOM     23  C   UNL     1      -2.841  11.982  19.272  0.00  0.00    +0.000 A 
ATOM     24  C   UNL     1      -3.294  11.501  18.056  0.00  0.00    +0.000 A 
ATOM     25  C   UNL     1      -2.611  10.483  17.392  0.00  0.00    +0.000 A 
ATOM     26  C   UNL     1      -1.487   9.895  17.953  0.00  0.00    +0.000 A 
ATOM     27  C   UNL     1      -3.294  10.117  16.114  0.00  0.00    +0.000 C 
ATOM     28  C   UNL     1      -4.311  11.257  15.947  0.00  0.00    +0.000 C 
ATOM     29  C   UNL     1      -4.541  11.883  17.329  0.00  0.00    +0.000 C 
ENDBRANCH  19  21
ENDBRANCH  16  18
ENDBRANCH   1  16
TORSDOF 5
ENDMDL
MODEL 9
REMARK VINA RESULT:      -8.1      1.056      1.496
REMARK  Name = 
REMARK  5 active torsions:
REMARK  status: ('A' for Active; 'I' for Inactive)
REMARK    1  A    between atoms: C_2  and  C_3
REMARK    2  A    between atoms: C_3  and  C_4
REMARK    3  A    between atoms: C_7  and  S_8
REMARK    4  A    between atoms: S_8  and  N_11
REMARK    5  A    between atoms: N_19  and  C_20
REMARK                            x       y       z     vdW  Elec       q    Type
REMARK                         _______ _______ _______ _____ _____    ______ ____
ROOT
ATOM      1  C   UNL     1       2.079   7.485  19.980  0.00  0.00    +0.000 A 
ATOM      2  C   UNL     1       2.516   7.434  18.647  0.00  0.00    +0.000 A 
ATOM      3  C   UNL     1       2.886   6.219  18.067  0.00  0.00    +0.000 A 
ATOM      4  C   UNL     1       2.851   5.049  18.830  0.00  0.00    +0.000 A 
ATOM      5  C   UNL     1       2.416   5.084  20.158  0.00  0.00    +0.000 A 
ATOM      6  C   UNL     1       2.040   6.303  20.732  0.00  0.00    +0.000 A 
ENDROOT
BRANCH   4   7
ATOM      7  S   UNL     1       3.263   3.484  18.073  0.00  0.00    +0.000 S 
ATOM      8  O   UNL     1       3.387   2.515  19.142  0.00  0.00    +0.000 OA
ATOM      9  O   UNL     1       2.328   3.277  16.986  0.00  0.00    +0.000 OA
BRANCH   7  10
ATOM     10  N   UNL     1       4.819   3.748  17.402  0.00  0.00    +0.000 NA
ATOM     11  C   UNL     1       4.831   4.108  15.961  0.00  0.00    +0.000 C 
ATOM     12  C   UNL     1       6.250   4.097  15.404  0.00  0.00    +0.000 C 
ATOM     13  C   UNL     1       7.166   4.995  16.227  0.00  0.00    +0.000 C 
ATOM     14  C   UNL     1       7.160   4.531  17.678  0.00  0.00    +0.000 C 
ATOM     15  C   UNL     1       5.746   4.540  18.249  0.00  0.00    +0.000 C 
ENDBRANCH   7  10
ENDBRANCH   4   7
BRANCH   1  16
ATOM     16  C   UNL     1       1.633   8.797  20.591  0.00  0.00    +0.000 C 
BRANCH  16  18
ATOM     17  O   UNL     1       1.443  10.587  19.027  0.00  0.00    +0.000 OA
ATOM     18  C   UNL     1       0.847   9.720  19.664  0.00  0.00    +0.000 C 
ATOM     19  N   UNL     1      -0.523   9.531  19.688  0.00  0.00    +0.000 N 
ATOM     20  H   UNL     1      -0.885   8.886  20.379  0.00  0.00    +0.000 HD
BRANCH  19  21
ATOM     21  C   UNL     1      -1.491  10.176  18.890  0.00  0.00    +0.000 A 
ATOM     22  C   UNL     1      -2.270  11.256  19.337  0.00  0.00    +0.000 A 
ATOM     23  C   UNL     1      -3.255  11.821  18.519  0.00  0.00    +0.000 A 
ATOM     24  C   UNL     1      -3.438  11.306  17.248  0.00  0.00    +0.000 A 
ATOM     25  C   UNL     1      -2.635  10.269  16.776  0.00  0.00    +0.000 A 
ATOM     26  C   UNL     1      -1.663   9.696  17.583  0.00  0.00    +0.000 A 
ATOM     27  C   UNL     1      -3.028   9.867  15.391  0.00  0.00    +0.000 C 
ATOM     28  C   UNL     1      -3.976  11.002  14.976  0.00  0.00    +0.000 C 
ATOM     29  C   UNL     1      -4.496  11.668  16.258  0.00  0.00    +0.000 C 
ENDBRANCH  19  21
ENDBRANCH  16  18
ENDBRANCH   1  16
TORSDOF 5
ENDMDL
