MODEL 1
REMARK VINA RESULT:      -9.3      0.000      0.000
REMARK  Name = 
REMARK  6 active torsions:
REMARK  status: ('A' for Active; 'I' for Inactive)
REMARK    1  A    between atoms: C_2  and  C_21
REMARK    2  A    between atoms: N_3  and  C_4
REMARK    3  A    between atoms: C_4  and  C_5
REMARK    4  A    between atoms: C_5  and  C_6
REMARK    5  A    between atoms: C_5  and  C_12
REMARK    6  A    between atoms: N_25  and  C_26
REMARK                            x       y       z     vdW  Elec       q    Type
REMARK                         _______ _______ _______ _____ _____    ______ ____
ROOT
ATOM      1  C   UNL     1       3.414   6.161  18.944  0.00  0.00    +0.000 C 
ENDROOT
BRANCH   1   2
ATOM      2  C   UNL     1       4.650   5.435  18.448  0.00  0.00    +0.000 A 
ATOM      3  C   UNL     1       5.586   4.960  19.361  0.00  0.00    +0.000 A 
ATOM      4  N   UNL     1       6.592   4.338  18.697  0.00  0.00    +0.000 N 
ATOM      5  C   UNL     1       6.495   4.614  17.360  0.00  0.00    +0.000 A 
ATOM      6  C   UNL     1       7.444   4.387  16.360  0.00  0.00    +0.000 A 
ATOM      7  C   UNL     1       7.105   4.727  15.056  0.00  0.00    +0.000 A 
ATOM      8  C   UNL     1       5.824   5.198  14.764  0.00  0.00    +0.000 A 
ATOM      9  C   UNL     1       4.879   5.422  15.791  0.00  0.00    +0.000 A 
ATOM     10  C   UNL     1       5.232   5.187  17.142  0.00  0.00    +0.000 A 
ATOM     11  H   UNL     1       7.355   3.832  19.126  0.00  0.00    +0.000 HD
ENDBRANCH   1   2
BRANCH   1  12
ATOM     12  C   UNL     1       2.343   5.115  19.227  0.00  0.00    +0.000 A 
ATOM     13  C   UNL     1       1.973   4.772  20.536  0.00  0.00    +0.000 A 
ATOM     14  C   UNL     1       1.218   3.622  20.774  0.00  0.00    +0.000 A 
ATOM     15  C   UNL     1       0.800   2.824  19.709  0.00  0.00    +0.000 A 
ATOM     16  C   UNL     1       1.087   3.203  18.400  0.00  0.00    +0.000 A 
ATOM     17  C   UNL     1       1.846   4.346  18.159  0.00  0.00    +0.000 A 
ENDBRANCH   1  12
BRANCH   1  18
ATOM     18  C   UNL     1       2.799   7.356  18.208  0.00  0.00    +0.000 C 
BRANCH  18  21
ATOM     19  O   UNL     1       1.783   9.905  17.565  0.00  0.00    +0.000 OA
ATOM     20  C   UNL     1       1.425   9.371  18.601  0.00  0.00    +0.000 C 
ATOM     21  N   UNL     1       1.897   8.144  19.019  0.00  0.00    +0.000 N 
ATOM     22  H   UNL     1       1.657   7.790  19.942  0.00  0.00    +0.000 HD
BRANCH  20  23
ATOM     23  C   UNL     1       0.452   9.999  19.588  0.00  0.00    +0.000 C 
ATOM     24  C   UNL     1      -0.813  10.503  18.883  0.00  0.00    +0.000 C 
ATOM     25  C   UNL     1      -0.500  11.948  18.601  0.00  0.00    +0.000 C 
ATOM     26  O   UNL     1      -1.164  12.670  17.864  0.00  0.00    +0.000 OA
ATOM     27  N   UNL     1       0.610  12.304  19.355  0.00  0.00    +0.000 N 
ATOM     28  C   UNL     1       1.007  11.247  20.247  0.00  0.00    +0.000 C 
BRANCH  27  29
ATOM     29  C   UNL     1       1.167  13.613  19.420  0.00  0.00    +0.000 C 
ATOM     30  C   UNL     1       2.236  14.036  18.446  0.00  0.00    +0.000 C 
ATOM     31  C   UNL     1       2.580  13.838  19.889  0.00  0.00    +0.000 C 
ENDBRANCH  27  29
ENDBRANCH  20  23
ENDBRANCH  18  21
ENDBRANCH   1  18
TORSDOF 6
ENDMDL
MODEL 2
REMARK VINA RESULT:      -9.1      1.502      2.336
REMARK  Name = 
REMARK  6 active torsions:
REMARK  status: ('A' for Active; 'I' for Inactive)
REMARK    1  A    between atoms: C_2  and  C_21
REMARK    2  A    between atoms: N_3  and  C_4
REMARK    3  A    between atoms: C_4  and  C_5
REMARK    4  A    between atoms: C_5  and  C_6
REMARK    5  A    between atoms: C_5  and  C_12
REMARK    6  A    between atoms: N_25  and  C_26
REMARK                            x       y       z     vdW  Elec       q    Type
REMARK                         _______ _______ _______ _____ _____    ______ ____
ROOT
ATOM      1  C   UNL     1       3.280   6.532  18.518  0.00  0.00    +0.000 C 
ENDROOT
BRANCH   1   2
ATOM      2  C   UNL     1       4.580   5.790  18.269  0.00  0.00    +0.000 A 
ATOM      3  C   UNL     1       5.434   5.514  19.332  0.00  0.00    +0.000 A 
ATOM      4  N   UNL     1       6.518   4.836  18.879  0.00  0.00    +0.000 N 
ATOM      5  C   UNL     1       6.546   4.882  17.511  0.00  0.00    +0.000 A 
ATOM      6  C   UNL     1       7.594   4.535  16.657  0.00  0.00    +0.000 A 
ATOM      7  C   UNL     1       7.377   4.639  15.288  0.00  0.00    +0.000 A 
ATOM      8  C   UNL     1       6.118   4.998  14.803  0.00  0.00    +0.000 A 
ATOM      9  C   UNL     1       5.070   5.347  15.685  0.00  0.00    +0.000 A 
ATOM     10  C   UNL     1       5.295   5.355  17.083  0.00  0.00    +0.000 A 
ATOM     11  H   UNL     1       7.249   4.443  19.456  0.00  0.00    +0.000 HD
ENDBRANCH   1   2
BRANCH   1  12
ATOM     12  C   UNL     1       2.231   5.507  18.925  0.00  0.00    +0.000 A 
ATOM     13  C   UNL     1       1.813   5.367  20.257  0.00  0.00    +0.000 A 
ATOM     14  C   UNL     1       1.083   4.243  20.650  0.00  0.00    +0.000 A 
ATOM     15  C   UNL     1       0.737   3.269  19.714  0.00  0.00    +0.000 A 
ATOM     16  C   UNL     1       1.070   3.441  18.374  0.00  0.00    +0.000 A 
ATOM     17  C   UNL     1       1.804   4.558  17.979  0.00  0.00    +0.000 A 
ENDBRANCH   1  12
BRANCH   1  18
ATOM     18  C   UNL     1       2.684   7.525  17.515  0.00  0.00    +0.000 C 
BRANCH  18  21
ATOM     19  O   UNL     1       2.569  10.341  17.524  0.00  0.00    +0.000 OA
ATOM     20  C   UNL     1       1.630   9.710  17.981  0.00  0.00    +0.000 C 
ATOM     21  N   UNL     1       1.612   8.333  18.055  0.00  0.00    +0.000 N 
ATOM     22  H   UNL     1       0.859   7.856  18.545  0.00  0.00    +0.000 HD
BRANCH  20  23
ATOM     23  C   UNL     1       0.381  10.352  18.567  0.00  0.00    +0.000 C 
ATOM     24  C   UNL     1       0.671  11.762  19.095  0.00  0.00    +0.000 C 
ATOM     25  C   UNL     1       0.974  11.530  20.550  0.00  0.00    +0.000 C 
ATOM     26  O   UNL     1       1.460  12.371  21.301  0.00  0.00    +0.000 OA
ATOM     27  N   UNL     1       0.559  10.246  20.879  0.00  0.00    +0.000 N 
ATOM     28  C   UNL     1      -0.139   9.619  19.789  0.00  0.00    +0.000 C 
BRANCH  27  29
ATOM     29  C   UNL     1       0.607   9.682  22.186  0.00  0.00    +0.000 C 
ATOM     30  C   UNL     1      -0.412   8.658  22.611  0.00  0.00    +0.000 C 
ATOM     31  C   UNL     1      -0.431  10.024  23.222  0.00  0.00    +0.000 C 
ENDBRANCH  27  29
ENDBRANCH  20  23
ENDBRANCH  18  21
ENDBRANCH   1  18
TORSDOF 6
ENDMDL
MODEL 3
REMARK VINA RESULT:      -8.7      1.839      4.640
REMARK  Name = 
REMARK  6 active torsions:
REMARK  status: ('A' for Active; 'I' for Inactive)
REMARK    1  A    between atoms: C_2  and  C_21
REMARK    2  A    between atoms: N_3  and  C_4
REMARK    3  A    between atoms: C_4  and  C_5
REMARK    4  A    between atoms: C_5  and  C_6
REMARK    5  A    between atoms: C_5  and  C_12
REMARK    6  A    between atoms: N_25  and  C_26
REMARK                            x       y       z     vdW  Elec       q    Type
REMARK                         _______ _______ _______ _____ _____    ______ ____
ROOT
ATOM      1  C   UNL     1       3.112   6.663  17.602  0.00  0.00    +0.000 C 
ENDROOT
BRANCH   1   2
ATOM      2  C   UNL     1       2.549   5.917  18.797  0.00  0.00    +0.000 A 
ATOM      3  C   UNL     1       2.753   6.414  20.081  0.00  0.00    +0.000 A 
ATOM      4  N   UNL     1       2.153   5.598  20.983  0.00  0.00    +0.000 N 
ATOM      5  C   UNL     1       1.784   4.432  20.369  0.00  0.00    +0.000 A 
ATOM      6  C   UNL     1       1.367   3.237  20.961  0.00  0.00    +0.000 A 
ATOM      7  C   UNL     1       1.013   2.187  20.124  0.00  0.00    +0.000 A 
ATOM      8  C   UNL     1       0.998   2.368  18.739  0.00  0.00    +0.000 A 
ATOM      9  C   UNL     1       1.425   3.584  18.159  0.00  0.00    +0.000 A 
ATOM     10  C   UNL     1       1.895   4.635  18.984  0.00  0.00    +0.000 A 
ATOM     11  H   UNL     1       2.078   5.773  21.976  0.00  0.00    +0.000 HD
ENDBRANCH   1   2
BRANCH   1  12
ATOM     12  C   UNL     1       4.492   6.091  17.305  0.00  0.00    +0.000 A 
ATOM     13  C   UNL     1       5.659   6.850  17.480  0.00  0.00    +0.000 A 
ATOM     14  C   UNL     1       6.867   6.417  16.930  0.00  0.00    +0.000 A 
ATOM     15  C   UNL     1       6.929   5.211  16.232  0.00  0.00    +0.000 A 
ATOM     16  C   UNL     1       5.796   4.408  16.128  0.00  0.00    +0.000 A 
ATOM     17  C   UNL     1       4.587   4.840  16.669  0.00  0.00    +0.000 A 
ENDBRANCH   1  12
BRANCH   1  18
ATOM     18  C   UNL     1       3.148   8.192  17.518  0.00  0.00    +0.000 C 
BRANCH  18  21
ATOM     19  O   UNL     1       2.675  10.969  17.624  0.00  0.00    +0.000 OA
ATOM     20  C   UNL     1       1.799  10.206  17.996  0.00  0.00    +0.000 C 
ATOM     21  N   UNL     1       1.953   8.836  18.019  0.00  0.00    +0.000 N 
ATOM     22  H   UNL     1       1.240   8.247  18.442  0.00  0.00    +0.000 HD
BRANCH  20  23
ATOM     23  C   UNL     1       0.447  10.660  18.525  0.00  0.00    +0.000 C 
ATOM     24  C   UNL     1       0.528  12.063  19.140  0.00  0.00    +0.000 C 
ATOM     25  C   UNL     1       0.766  11.787  20.600  0.00  0.00    +0.000 C 
ATOM     26  O   UNL     1       1.097  12.637  21.421  0.00  0.00    +0.000 OA
ATOM     27  N   UNL     1       0.492  10.446  20.837  0.00  0.00    +0.000 N 
ATOM     28  C   UNL     1      -0.054   9.803  19.672  0.00  0.00    +0.000 C 
BRANCH  27  29
ATOM     29  C   UNL     1       0.526   9.819  22.115  0.00  0.00    +0.000 C 
ATOM     30  C   UNL     1      -0.472   8.747  22.465  0.00  0.00    +0.000 C 
ATOM     31  C   UNL     1      -0.544  10.080  23.141  0.00  0.00    +0.000 C 
ENDBRANCH  27  29
ENDBRANCH  20  23
ENDBRANCH  18  21
ENDBRANCH   1  18
TORSDOF 6
ENDMDL
MODEL 4
REMARK VINA RESULT:      -8.6      2.748      7.371
REMARK  Name = 
REMARK  6 active torsions:
REMARK  status: ('A' for Active; 'I' for Inactive)
REMARK    1  A    between atoms: C_2  and  C_21
REMARK    2  A    between atoms: N_3  and  C_4
REMARK    3  A    between atoms: C_4  and  C_5
REMARK    4  A    between atoms: C_5  and  C_6
REMARK    5  A    between atoms: C_5  and  C_12
REMARK    6  A    between atoms: N_25  and  C_26
REMARK                            x       y       z     vdW  Elec       q    Type
REMARK                         _______ _______ _______ _____ _____    ______ ____
ROOT
ATOM      1  C   UNL     1       2.993   6.112  18.986  0.00  0.00    +0.000 C 
ENDROOT
BRANCH   1   2
ATOM      2  C   UNL     1       2.209   7.410  18.924  0.00  0.00    +0.000 A 
ATOM      3  C   UNL     1       2.188   8.149  17.745  0.00  0.00    +0.000 A 
ATOM      4  N   UNL     1       1.419   9.254  17.916  0.00  0.00    +0.000 N 
ATOM      5  C   UNL     1       1.142   9.415  19.246  0.00  0.00    +0.000 A 
ATOM      6  C   UNL     1       0.602  10.532  19.887  0.00  0.00    +0.000 A 
ATOM      7  C   UNL     1       0.382  10.452  21.256  0.00  0.00    +0.000 A 
ATOM      8  C   UNL     1       0.620   9.256  21.936  0.00  0.00    +0.000 A 
ATOM      9  C   UNL     1       1.170   8.137  21.270  0.00  0.00    +0.000 A 
ATOM     10  C   UNL     1       1.505   8.225  19.897  0.00  0.00    +0.000 A 
ATOM     11  H   UNL     1       1.170   9.914  17.192  0.00  0.00    +0.000 HD
ENDBRANCH   1   2
BRANCH   1  12
ATOM     12  C   UNL     1       1.993   4.964  18.967  0.00  0.00    +0.000 A 
ATOM     13  C   UNL     1       1.354   4.522  20.135  0.00  0.00    +0.000 A 
ATOM     14  C   UNL     1       0.680   3.299  20.148  0.00  0.00    +0.000 A 
ATOM     15  C   UNL     1       0.609   2.525  18.990  0.00  0.00    +0.000 A 
ATOM     16  C   UNL     1       1.164   2.995  17.803  0.00  0.00    +0.000 A 
ATOM     17  C   UNL     1       1.844   4.212  17.788  0.00  0.00    +0.000 A 
ENDBRANCH   1  12
BRANCH   1  18
ATOM     18  C   UNL     1       4.078   5.847  20.035  0.00  0.00    +0.000 C 
BRANCH  18  21
ATOM     19  O   UNL     1       5.565   3.521  19.462  0.00  0.00    +0.000 OA
ATOM     20  C   UNL     1       6.053   4.611  19.212  0.00  0.00    +0.000 C 
ATOM     21  N   UNL     1       5.419   5.803  19.493  0.00  0.00    +0.000 N 
ATOM     22  H   UNL     1       5.910   6.686  19.371  0.00  0.00    +0.000 HD
BRANCH  20  23
ATOM     23  C   UNL     1       7.435   4.802  18.604  0.00  0.00    +0.000 C 
ATOM     24  C   UNL     1       7.826   6.284  18.559  0.00  0.00    +0.000 C 
ATOM     25  C   UNL     1       7.396   6.713  17.182  0.00  0.00    +0.000 C 
ATOM     26  O   UNL     1       7.338   7.880  16.805  0.00  0.00    +0.000 OA
ATOM     27  N   UNL     1       7.143   5.572  16.433  0.00  0.00    +0.000 N 
ATOM     28  C   UNL     1       7.501   4.377  17.150  0.00  0.00    +0.000 C 
BRANCH  27  29
ATOM     29  C   UNL     1       6.787   5.562  15.054  0.00  0.00    +0.000 C 
ATOM     30  C   UNL     1       5.424   5.088  14.622  0.00  0.00    +0.000 C 
ATOM     31  C   UNL     1       6.634   4.270  14.296  0.00  0.00    +0.000 C 
ENDBRANCH  27  29
ENDBRANCH  20  23
ENDBRANCH  18  21
ENDBRANCH   1  18
TORSDOF 6
ENDMDL
MODEL 5
REMARK VINA RESULT:      -8.4      3.161      8.109
REMARK  Name = 
REMARK  6 active torsions:
REMARK  status: ('A' for Active; 'I' for Inactive)
REMARK    1  A    between atoms: C_2  and  C_21
REMARK    2  A    between atoms: N_3  and  C_4
REMARK    3  A    between atoms: C_4  and  C_5
REMARK    4  A    between atoms: C_5  and  C_6
REMARK    5  A    between atoms: C_5  and  C_12
REMARK    6  A    between atoms: N_25  and  C_26
REMARK                            x       y       z     vdW  Elec       q    Type
REMARK                         _______ _______ _______ _____ _____    ______ ____
ROOT
ATOM      1  C   UNL     1       3.233   6.782  18.668  0.00  0.00    +0.000 C 
ENDROOT
BRANCH   1   2
ATOM      2  C   UNL     1       2.549   5.431  18.766  0.00  0.00    +0.000 A 
ATOM      3  C   UNL     1       1.807   4.952  17.690  0.00  0.00    +0.000 A 
ATOM      4  N   UNL     1       1.303   3.730  17.995  0.00  0.00    +0.000 N 
ATOM      5  C   UNL     1       1.460   3.493  19.334  0.00  0.00    +0.000 A 
ATOM      6  C   UNL     1       0.876   2.488  20.108  0.00  0.00    +0.000 A 
ATOM      7  C   UNL     1       1.211   2.428  21.455  0.00  0.00    +0.000 A 
ATOM      8  C   UNL     1       2.167   3.301  21.978  0.00  0.00    +0.000 A 
ATOM      9  C   UNL     1       2.745   4.313  21.179  0.00  0.00    +0.000 A 
ATOM     10  C   UNL     1       2.342   4.467  19.831  0.00  0.00    +0.000 A 
ATOM     11  H   UNL     1       0.798   3.127  17.360  0.00  0.00    +0.000 HD
ENDBRANCH   1   2
BRANCH   1  12
ATOM     12  C   UNL     1       2.171   7.856  18.858  0.00  0.00    +0.000 A 
ATOM     13  C   UNL     1       1.826   8.744  17.828  0.00  0.00    +0.000 A 
ATOM     14  C   UNL     1       1.079   9.889  18.108  0.00  0.00    +0.000 A 
ATOM     15  C   UNL     1       0.642  10.141  19.409  0.00  0.00    +0.000 A 
ATOM     16  C   UNL     1       0.903   9.222  20.421  0.00  0.00    +0.000 A 
ATOM     17  C   UNL     1       1.655   8.081  20.147  0.00  0.00    +0.000 A 
ENDBRANCH   1  12
BRANCH   1  18
ATOM     18  C   UNL     1       4.163   7.161  17.511  0.00  0.00    +0.000 C 
BRANCH  18  21
ATOM     19  O   UNL     1       4.993   6.576  14.882  0.00  0.00    +0.000 OA
ATOM     20  C   UNL     1       5.447   5.919  15.804  0.00  0.00    +0.000 C 
ATOM     21  N   UNL     1       5.071   6.105  17.118  0.00  0.00    +0.000 N 
ATOM     22  H   UNL     1       5.389   5.461  17.838  0.00  0.00    +0.000 HD
BRANCH  20  23
ATOM     23  C   UNL     1       6.445   4.785  15.627  0.00  0.00    +0.000 C 
ATOM     24  C   UNL     1       7.780   5.296  15.073  0.00  0.00    +0.000 C 
ATOM     25  C   UNL     1       7.631   5.109  13.587  0.00  0.00    +0.000 C 
ATOM     26  O   UNL     1       8.393   5.582  12.749  0.00  0.00    +0.000 OA
ATOM     27  N   UNL     1       6.539   4.282  13.362  0.00  0.00    +0.000 N 
ATOM     28  C   UNL     1       6.003   3.767  14.594  0.00  0.00    +0.000 C 
BRANCH  27  29
ATOM     29  C   UNL     1       6.122   3.809  12.085  0.00  0.00    +0.000 C 
ATOM     30  C   UNL     1       4.678   3.456  11.838  0.00  0.00    +0.000 C 
ATOM     31  C   UNL     1       5.712   2.375  11.880  0.00  0.00    +0.000 C 
ENDBRANCH  27  29
ENDBRANCH  20  23
ENDBRANCH  18  21
ENDBRANCH   1  18
TORSDOF 6
ENDMDL
MODEL 6
REMARK VINA RESULT:      -8.2      1.476      2.151
REMARK  Name = 
REMARK  6 active torsions:
REMARK  status: ('A' for Active; 'I' for Inactive)
REMARK    1  A    between atoms: C_2  and  C_21
REMARK    2  A    between atoms: N_3  and  C_4
REMARK    3  A    between atoms: C_4  and  C_5
REMARK    4  A    between atoms: C_5  and  C_6
REMARK    5  A    between atoms: C_5  and  C_12
REMARK    6  A    between atoms: N_25  and  C_26
REMARK                            x       y       z     vdW  Elec       q    Type
REMARK                         _______ _______ _______ _____ _____    ______ ____
ROOT
ATOM      1  C   UNL     1       3.237   6.116  18.956  0.00  0.00    +0.000 C 
ENDROOT
BRANCH   1   2
ATOM      2  C   UNL     1       4.545   5.474  18.534  0.00  0.00    +0.000 A 
ATOM      3  C   UNL     1       5.531   5.225  19.483  0.00  0.00    +0.000 A 
ATOM      4  N   UNL     1       6.599   4.639  18.885  0.00  0.00    +0.000 N 
ATOM      5  C   UNL     1       6.467   4.730  17.526  0.00  0.00    +0.000 A 
ATOM      6  C   UNL     1       7.432   4.485  16.546  0.00  0.00    +0.000 A 
ATOM      7  C   UNL     1       7.053   4.617  15.216  0.00  0.00    +0.000 A 
ATOM      8  C   UNL     1       5.726   4.902  14.889  0.00  0.00    +0.000 A 
ATOM      9  C   UNL     1       4.765   5.149  15.896  0.00  0.00    +0.000 A 
ATOM     10  C   UNL     1       5.147   5.128  17.259  0.00  0.00    +0.000 A 
ATOM     11  H   UNL     1       7.415   4.280  19.361  0.00  0.00    +0.000 HD
ENDBRANCH   1   2
BRANCH   1  12
ATOM     12  C   UNL     1       2.265   4.999  19.312  0.00  0.00    +0.000 A 
ATOM     13  C   UNL     1       2.011   4.637  20.643  0.00  0.00    +0.000 A 
ATOM     14  C   UNL     1       1.358   3.437  20.933  0.00  0.00    +0.000 A 
ATOM     15  C   UNL     1       0.925   2.606  19.900  0.00  0.00    +0.000 A 
ATOM     16  C   UNL     1       1.093   2.998  18.574  0.00  0.00    +0.000 A 
ATOM     17  C   UNL     1       1.751   4.191  18.281  0.00  0.00    +0.000 A 
ENDBRANCH   1  12
BRANCH   1  18
ATOM     18  C   UNL     1       2.525   7.183  18.118  0.00  0.00    +0.000 C 
BRANCH  18  21
ATOM     19  O   UNL     1       2.329   9.820  17.143  0.00  0.00    +0.000 OA
ATOM     20  C   UNL     1       2.012   9.593  18.298  0.00  0.00    +0.000 C 
ATOM     21  N   UNL     1       2.112   8.345  18.875  0.00  0.00    +0.000 N 
ATOM     22  H   UNL     1       1.944   8.225  19.872  0.00  0.00    +0.000 HD
BRANCH  20  23
ATOM     23  C   UNL     1       1.512  10.656  19.266  0.00  0.00    +0.000 C 
ATOM     24  C   UNL     1       1.080  10.038  20.601  0.00  0.00    +0.000 C 
ATOM     25  C   UNL     1      -0.397   9.816  20.418  0.00  0.00    +0.000 C 
ATOM     26  O   UNL     1      -1.097   9.149  21.174  0.00  0.00    +0.000 OA
ATOM     27  N   UNL     1      -0.807  10.533  19.302  0.00  0.00    +0.000 N 
ATOM     28  C   UNL     1       0.255  11.351  18.778  0.00  0.00    +0.000 C 
BRANCH  27  29
ATOM     29  C   UNL     1      -2.152  10.638  18.847  0.00  0.00    +0.000 C 
ATOM     30  C   UNL     1      -2.485  11.474  17.639  0.00  0.00    +0.000 C 
ATOM     31  C   UNL     1      -2.929  11.919  18.997  0.00  0.00    +0.000 C 
ENDBRANCH  27  29
ENDBRANCH  20  23
ENDBRANCH  18  21
ENDBRANCH   1  18
TORSDOF 6
ENDMDL
MODEL 7
REMARK VINA RESULT:      -8.2      1.657      2.232
REMARK  Name = 
REMARK  6 active torsions:
REMARK  status: ('A' for Active; 'I' for Inactive)
REMARK    1  A    between atoms: C_2  and  C_21
REMARK    2  A    between atoms: N_3  and  C_4
REMARK    3  A    between atoms: C_4  and  C_5
REMARK    4  A    between atoms: C_5  and  C_6
REMARK    5  A    between atoms: C_5  and  C_12
REMARK    6  A    between atoms: N_25  and  C_26
REMARK                            x       y       z     vdW  Elec       q    Type
REMARK                         _______ _______ _______ _____ _____    ______ ____
ROOT
ATOM      1  C   UNL     1       3.115   6.102  18.936  0.00  0.00    +0.000 C 
ENDROOT
BRANCH   1   2
ATOM      2  C   UNL     1       4.459   5.520  18.540  0.00  0.00    +0.000 A 
ATOM      3  C   UNL     1       5.478   5.430  19.483  0.00  0.00    +0.000 A 
ATOM      4  N   UNL     1       6.575   4.870  18.913  0.00  0.00    +0.000 N 
ATOM      5  C   UNL     1       6.412   4.827  17.555  0.00  0.00    +0.000 A 
ATOM      6  C   UNL     1       7.374   4.564  16.577  0.00  0.00    +0.000 A 
ATOM      7  C   UNL     1       6.962   4.547  15.250  0.00  0.00    +0.000 A 
ATOM      8  C   UNL     1       5.612   4.705  14.933  0.00  0.00    +0.000 A 
ATOM      9  C   UNL     1       4.654   4.973  15.937  0.00  0.00    +0.000 A 
ATOM     10  C   UNL     1       5.062   5.104  17.287  0.00  0.00    +0.000 A 
ATOM     11  H   UNL     1       7.424   4.614  19.399  0.00  0.00    +0.000 HD
ENDBRANCH   1   2
BRANCH   1  12
ATOM     12  C   UNL     1       2.299   4.989  19.579  0.00  0.00    +0.000 A 
ATOM     13  C   UNL     1       2.353   4.735  20.958  0.00  0.00    +0.000 A 
ATOM     14  C   UNL     1       1.837   3.545  21.474  0.00  0.00    +0.000 A 
ATOM     15  C   UNL     1       1.235   2.615  20.627  0.00  0.00    +0.000 A 
ATOM     16  C   UNL     1       1.097   2.896  19.270  0.00  0.00    +0.000 A 
ATOM     17  C   UNL     1       1.617   4.080  18.750  0.00  0.00    +0.000 A 
ENDBRANCH   1  12
BRANCH   1  18
ATOM     18  C   UNL     1       2.239   6.904  17.969  0.00  0.00    +0.000 C 
BRANCH  18  21
ATOM     19  O   UNL     1       1.002   7.937  20.282  0.00  0.00    +0.000 OA
ATOM     20  C   UNL     1       1.518   8.711  19.492  0.00  0.00    +0.000 C 
ATOM     21  N   UNL     1       2.111   8.303  18.316  0.00  0.00    +0.000 N 
ATOM     22  H   UNL     1       2.426   8.991  17.636  0.00  0.00    +0.000 HD
BRANCH  20  23
ATOM     23  C   UNL     1       1.537  10.221  19.674  0.00  0.00    +0.000 C 
ATOM     24  C   UNL     1       1.004  10.626  21.053  0.00  0.00    +0.000 C 
ATOM     25  C   UNL     1      -0.455  10.890  20.797  0.00  0.00    +0.000 C 
ATOM     26  O   UNL     1      -1.297  11.042  21.677  0.00  0.00    +0.000 OA
ATOM     27  N   UNL     1      -0.643  10.983  19.425  0.00  0.00    +0.000 N 
ATOM     28  C   UNL     1       0.608  10.941  18.715  0.00  0.00    +0.000 C 
BRANCH  27  29
ATOM     29  C   UNL     1      -1.877  11.303  18.789  0.00  0.00    +0.000 C 
ATOM     30  C   UNL     1      -2.624  10.256  18.005  0.00  0.00    +0.000 C 
ATOM     31  C   UNL     1      -1.980  11.402  17.291  0.00  0.00    +0.000 C 
ENDBRANCH  27  29
ENDBRANCH  20  23
ENDBRANCH  18  21
ENDBRANCH   1  18
TORSDOF 6
ENDMDL
MODEL 8
REMARK VINA RESULT:      -8.2      0.962      1.356
REMARK  Name = 
REMARK  6 active torsions:
REMARK  status: ('A' for Active; 'I' for Inactive)
REMARK    1  A    between atoms: C_2  and  C_21
REMARK    2  A    between atoms: N_3  and  C_4
REMARK    3  A    between atoms: C_4  and  C_5
REMARK    4  A    between atoms: C_5  and  C_6
REMARK    5  A    between atoms: C_5  and  C_12
REMARK    6  A    between atoms: N_25  and  C_26
REMARK                            x       y       z     vdW  Elec       q    Type
REMARK                         _______ _______ _______ _____ _____    ______ ____
ROOT
ATOM      1  C   UNL     1       3.931   6.547  18.156  0.00  0.00    +0.000 C 
ENDROOT
BRANCH   1   2
ATOM      2  C   UNL     1       5.187   6.039  17.474  0.00  0.00    +0.000 A 
ATOM      3  C   UNL     1       6.437   6.420  17.953  0.00  0.00    +0.000 A 
ATOM      4  N   UNL     1       7.406   5.839  17.203  0.00  0.00    +0.000 N 
ATOM      5  C   UNL     1       6.848   5.296  16.077  0.00  0.00    +0.000 A 
ATOM      6  C   UNL     1       7.496   4.826  14.932  0.00  0.00    +0.000 A 
ATOM      7  C   UNL     1       6.713   4.286  13.919  0.00  0.00    +0.000 A 
ATOM      8  C   UNL     1       5.335   4.148  14.096  0.00  0.00    +0.000 A 
ATOM      9  C   UNL     1       4.698   4.631  15.262  0.00  0.00    +0.000 A 
ATOM     10  C   UNL     1       5.457   5.284  16.263  0.00  0.00    +0.000 A 
ATOM     11  H   UNL     1       8.399   5.883  17.388  0.00  0.00    +0.000 HD
ENDBRANCH   1   2
BRANCH   1  12
ATOM     12  C   UNL     1       3.138   5.337  18.631  0.00  0.00    +0.000 A 
ATOM     13  C   UNL     1       2.264   4.646  17.778  0.00  0.00    +0.000 A 
ATOM     14  C   UNL     1       1.340   3.741  18.304  0.00  0.00    +0.000 A 
ATOM     15  C   UNL     1       1.302   3.493  19.676  0.00  0.00    +0.000 A 
ATOM     16  C   UNL     1       2.223   4.107  20.520  0.00  0.00    +0.000 A 
ATOM     17  C   UNL     1       3.143   5.016  20.000  0.00  0.00    +0.000 A 
ENDBRANCH   1  12
BRANCH   1  18
ATOM     18  C   UNL     1       2.991   7.571  17.511  0.00  0.00    +0.000 C 
BRANCH  18  21
ATOM     19  O   UNL     1       2.134  10.256  17.530  0.00  0.00    +0.000 OA
ATOM     20  C   UNL     1       1.656   9.479  18.339  0.00  0.00    +0.000 C 
ATOM     21  N   UNL     1       2.041   8.158  18.432  0.00  0.00    +0.000 N 
ATOM     22  H   UNL     1       1.699   7.576  19.194  0.00  0.00    +0.000 HD
BRANCH  20  23
ATOM     23  C   UNL     1       0.614   9.867  19.376  0.00  0.00    +0.000 C 
ATOM     24  C   UNL     1      -0.745  10.152  18.725  0.00  0.00    +0.000 C 
ATOM     25  C   UNL     1      -0.718  11.641  18.508  0.00  0.00    +0.000 C 
ATOM     26  O   UNL     1      -1.529  12.257  17.822  0.00  0.00    +0.000 OA
ATOM     27  N   UNL     1       0.328  12.168  19.253  0.00  0.00    +0.000 N 
ATOM     28  C   UNL     1       0.943  11.168  20.084  0.00  0.00    +0.000 C 
BRANCH  27  29
ATOM     29  C   UNL     1       0.630  13.555  19.370  0.00  0.00    +0.000 C 
ATOM     30  C   UNL     1       1.788  14.149  18.611  0.00  0.00    +0.000 C 
ATOM     31  C   UNL     1       1.858  14.027  20.101  0.00  0.00    +0.000 C 
ENDBRANCH  27  29
ENDBRANCH  20  23
ENDBRANCH  18  21
ENDBRANCH   1  18
TORSDOF 6
ENDMDL
MODEL 9
REMARK VINA RESULT:      -8.1      1.799      4.442
REMARK  Name = 
REMARK  6 active torsions:
REMARK  status: ('A' for Active; 'I' for Inactive)
REMARK    1  A    between atoms: C_2  and  C_21
REMARK    2  A    between atoms: N_3  and  C_4
REMARK    3  A    between atoms: C_4  and  C_5
REMARK    4  A    between atoms: C_5  and  C_6
REMARK    5  A    between atoms: C_5  and  C_12
REMARK    6  A    between atoms: N_25  and  C_26
REMARK                            x       y       z     vdW  Elec       q    Type
REMARK                         _______ _______ _______ _____ _____    ______ ____
ROOT
ATOM      1  C   UNL     1       3.008   6.939  17.688  0.00  0.00    +0.000 C 
ENDROOT
BRANCH   1   2
ATOM      2  C   UNL     1       2.398   5.993  18.706  0.00  0.00    +0.000 A 
ATOM      3  C   UNL     1       2.191   6.424  20.013  0.00  0.00    +0.000 A 
ATOM      4  N   UNL     1       1.627   5.424  20.735  0.00  0.00    +0.000 N 
ATOM      5  C   UNL     1       1.694   4.255  20.027  0.00  0.00    +0.000 A 
ATOM      6  C   UNL     1       1.462   2.955  20.481  0.00  0.00    +0.000 A 
ATOM      7  C   UNL     1       1.563   1.918  19.561  0.00  0.00    +0.000 A 
ATOM      8  C   UNL     1       1.806   2.197  18.215  0.00  0.00    +0.000 A 
ATOM      9  C   UNL     1       2.040   3.520  17.775  0.00  0.00    +0.000 A 
ATOM     10  C   UNL     1       2.050   4.584  18.709  0.00  0.00    +0.000 A 
ATOM     11  H   UNL     1       1.298   5.501  21.688  0.00  0.00    +0.000 HD
ENDBRANCH   1   2
BRANCH   1  12
ATOM     12  C   UNL     1       4.444   6.494  17.444  0.00  0.00    +0.000 A 
ATOM     13  C   UNL     1       4.988   6.430  16.152  0.00  0.00    +0.000 A 
ATOM     14  C   UNL     1       6.186   5.749  15.927  0.00  0.00    +0.000 A 
ATOM     15  C   UNL     1       6.867   5.157  16.991  0.00  0.00    +0.000 A 
ATOM     16  C   UNL     1       6.382   5.290  18.289  0.00  0.00    +0.000 A 
ATOM     17  C   UNL     1       5.183   5.963  18.517  0.00  0.00    +0.000 A 
ENDBRANCH   1  12
BRANCH   1  18
ATOM     18  C   UNL     1       2.947   8.463  17.828  0.00  0.00    +0.000 C 
BRANCH  18  21
ATOM     19  O   UNL     1       2.233  11.175  18.111  0.00  0.00    +0.000 OA
ATOM     20  C   UNL     1       1.373  10.321  18.250  0.00  0.00    +0.000 C 
ATOM     21  N   UNL     1       1.635   8.969  18.170  0.00  0.00    +0.000 N 
ATOM     22  H   UNL     1       0.913   8.292  18.404  0.00  0.00    +0.000 HD
BRANCH  20  23
ATOM     23  C   UNL     1      -0.082  10.625  18.574  0.00  0.00    +0.000 C 
ATOM     24  C   UNL     1      -0.343  12.135  18.610  0.00  0.00    +0.000 C 
ATOM     25  C   UNL     1      -0.171  12.482  20.064  0.00  0.00    +0.000 C 
ATOM     26  O   UNL     1      -0.091  13.626  20.500  0.00  0.00    +0.000 OA
ATOM     27  N   UNL     1      -0.178  11.300  20.794  0.00  0.00    +0.000 N 
ATOM     28  C   UNL     1      -0.484  10.166  19.963  0.00  0.00    +0.000 C 
BRANCH  27  29
ATOM     29  C   UNL     1      -0.117  11.217  22.214  0.00  0.00    +0.000 C 
ATOM     30  C   UNL     1      -0.468   9.933  22.918  0.00  0.00    +0.000 C 
ATOM     31  C   UNL     1      -1.368  11.121  23.045  0.00  0.00    +0.000 C 
ENDBRANCH  27  29
ENDBRANCH  20  23
ENDBRANCH  18  21
ENDBRANCH   1  18
TORSDOF 6
ENDMDL
