MODEL 1
REMARK VINA RESULT:      -8.3      0.000      0.000
REMARK  Name = 
REMARK  4 active torsions:
REMARK  status: ('A' for Active; 'I' for Inactive)
REMARK    1  A    between atoms: C_2  and  C_19
REMARK    2  A    between atoms: N_3  and  C_4
REMARK    3  A    between atoms: C_7  and  C_8
REMARK    4  A    between atoms: C_22  and  C_23
REMARK                            x       y       z     vdW  Elec       q    Type
REMARK                         _______ _______ _______ _____ _____    ______ ____
ROOT
ATOM      1  O   UNL     1       9.059  10.037  20.156  0.00  0.00    +0.000 OA
ATOM      2  C   UNL     1       9.218  10.381  18.989  0.00  0.00    +0.000 C 
ATOM      3  N   UNL     1       8.776   9.645  17.899  0.00  0.00    +0.000 N 
ATOM      4  H   UNL     1       9.109   9.946  16.991  0.00  0.00    +0.000 HD
ENDROOT
BRANCH   3   5
ATOM      5  C   UNL     1       8.024   8.454  17.951  0.00  0.00    +0.000 A 
ATOM      6  C   UNL     1       8.395   7.334  18.699  0.00  0.00    +0.000 A 
ATOM      7  C   UNL     1       7.659   6.146  18.624  0.00  0.00    +0.000 A 
ATOM      8  C   UNL     1       6.517   6.064  17.820  0.00  0.00    +0.000 A 
ATOM      9  C   UNL     1       6.069   7.235  17.201  0.00  0.00    +0.000 A 
ATOM     10  C   UNL     1       6.835   8.407  17.225  0.00  0.00    +0.000 A 
BRANCH   8  11
ATOM     11  C   UNL     1       5.830   4.736  17.702  0.00  0.00    +0.000 C 
ATOM     12  O   UNL     1       6.256   3.966  16.838  0.00  0.00    +0.000 OA
ATOM     13  N   UNL     1       4.726   4.404  18.513  0.00  0.00    +0.000 N 
ATOM     14  C   UNL     1       4.200   3.040  18.422  0.00  0.00    +0.000 C 
ATOM     15  C   UNL     1       2.949   2.934  17.550  0.00  0.00    +0.000 C 
ATOM     16  C   UNL     1       1.663   3.436  18.205  0.00  0.00    +0.000 C 
ATOM     17  C   UNL     1       1.709   4.891  18.658  0.00  0.00    +0.000 C 
ATOM     18  C   UNL     1       2.642   5.082  19.844  0.00  0.00    +0.000 C 
ATOM     19  C   UNL     1       4.086   5.334  19.440  0.00  0.00    +0.000 C 
ENDBRANCH   8  11
ENDBRANCH   3   5
BRANCH   2  20
ATOM     20  C   UNL     1       9.942  11.595  18.679  0.00  0.00    +0.000 A 
ATOM     21  C   UNL     1      11.092  11.672  17.915  0.00  0.00    +0.000 A 
ATOM     22  N   UNL     1      11.651  12.925  17.794  0.00  0.00    +0.000 NA
ATOM     23  C   UNL     1      10.959  13.794  18.504  0.00  0.00    +0.000 A 
ATOM     24  S   UNL     1       9.528  13.155  19.229  0.00  0.00    +0.000 S 
BRANCH  23  25
ATOM     25  C   UNL     1      11.333  15.207  18.632  0.00  0.00    +0.000 A 
ATOM     26  C   UNL     1      11.628  15.716  19.909  0.00  0.00    +0.000 A 
ATOM     27  C   UNL     1      11.947  17.063  20.092  0.00  0.00    +0.000 A 
ATOM     28  C   UNL     1      11.970  17.928  19.002  0.00  0.00    +0.000 A 
ATOM     29  C   UNL     1      11.670  17.444  17.730  0.00  0.00    +0.000 A 
ATOM     30  C   UNL     1      11.351  16.098  17.553  0.00  0.00    +0.000 A 
ATOM     31  F   UNL     1      11.024  15.694  16.316  0.00  0.00    +0.000 F 
ENDBRANCH  23  25
ENDBRANCH   2  20
TORSDOF 4
ENDMDL
MODEL 2
REMARK VINA RESULT:      -8.3      9.215     12.654
REMARK  Name = 
REMARK  4 active torsions:
REMARK  status: ('A' for Active; 'I' for Inactive)
REMARK    1  A    between atoms: C_2  and  C_19
REMARK    2  A    between atoms: N_3  and  C_4
REMARK    3  A    between atoms: C_7  and  C_8
REMARK    4  A    between atoms: C_22  and  C_23
REMARK                            x       y       z     vdW  Elec       q    Type
REMARK                         _______ _______ _______ _____ _____    ______ ____
ROOT
ATOM      1  O   UNL     1       1.409  11.309  19.638  0.00  0.00    +0.000 OA
ATOM      2  C   UNL     1       0.836  10.251  19.880  0.00  0.00    +0.000 C 
ATOM      3  N   UNL     1      -0.390  10.165  20.526  0.00  0.00    +0.000 N 
ATOM      4  H   UNL     1      -0.681   9.239  20.813  0.00  0.00    +0.000 HD
ENDROOT
BRANCH   3   5
ATOM      5  C   UNL     1      -1.193  11.251  20.930  0.00  0.00    +0.000 A 
ATOM      6  C   UNL     1      -1.320  11.671  22.256  0.00  0.00    +0.000 A 
ATOM      7  C   UNL     1      -2.217  12.688  22.603  0.00  0.00    +0.000 A 
ATOM      8  C   UNL     1      -2.983  13.328  21.623  0.00  0.00    +0.000 A 
ATOM      9  C   UNL     1      -2.733  13.008  20.285  0.00  0.00    +0.000 A 
ATOM     10  C   UNL     1      -1.883  11.950  19.940  0.00  0.00    +0.000 A 
BRANCH   8  11
ATOM     11  C   UNL     1      -3.998  14.339  22.068  0.00  0.00    +0.000 C 
ATOM     12  O   UNL     1      -3.565  15.428  22.450  0.00  0.00    +0.000 OA
ATOM     13  N   UNL     1      -5.375  14.039  22.086  0.00  0.00    +0.000 N 
ATOM     14  C   UNL     1      -6.304  15.124  22.408  0.00  0.00    +0.000 C 
ATOM     15  C   UNL     1      -6.793  15.088  23.857  0.00  0.00    +0.000 C 
ATOM     16  C   UNL     1      -7.855  14.028  24.151  0.00  0.00    +0.000 C 
ATOM     17  C   UNL     1      -7.427  12.599  23.840  0.00  0.00    +0.000 C 
ATOM     18  C   UNL     1      -7.299  12.363  22.343  0.00  0.00    +0.000 C 
ATOM     19  C   UNL     1      -5.927  12.718  21.792  0.00  0.00    +0.000 C 
ENDBRANCH   8  11
ENDBRANCH   3   5
BRANCH   2  20
ATOM     20  C   UNL     1       1.454   8.991  19.529  0.00  0.00    +0.000 A 
ATOM     21  C   UNL     1       1.624   7.915  20.382  0.00  0.00    +0.000 A 
ATOM     22  N   UNL     1       2.292   6.832  19.857  0.00  0.00    +0.000 NA
ATOM     23  C   UNL     1       2.675   7.096  18.624  0.00  0.00    +0.000 A 
ATOM     24  S   UNL     1       2.120   8.611  18.007  0.00  0.00    +0.000 S 
BRANCH  23  25
ATOM     25  C   UNL     1       3.464   6.165  17.809  0.00  0.00    +0.000 A 
ATOM     26  C   UNL     1       4.536   6.671  17.052  0.00  0.00    +0.000 A 
ATOM     27  C   UNL     1       5.292   5.835  16.226  0.00  0.00    +0.000 A 
ATOM     28  C   UNL     1       4.985   4.481  16.137  0.00  0.00    +0.000 A 
ATOM     29  C   UNL     1       3.920   3.964  16.872  0.00  0.00    +0.000 A 
ATOM     30  C   UNL     1       3.168   4.803  17.695  0.00  0.00    +0.000 A 
ATOM     31  F   UNL     1       2.125   4.265  18.343  0.00  0.00    +0.000 F 
ENDBRANCH  23  25
ENDBRANCH   2  20
TORSDOF 4
ENDMDL
MODEL 3
REMARK VINA RESULT:      -8.2      1.429      1.544
REMARK  Name = 
REMARK  4 active torsions:
REMARK  status: ('A' for Active; 'I' for Inactive)
REMARK    1  A    between atoms: C_2  and  C_19
REMARK    2  A    between atoms: N_3  and  C_4
REMARK    3  A    between atoms: C_7  and  C_8
REMARK    4  A    between atoms: C_22  and  C_23
REMARK                            x       y       z     vdW  Elec       q    Type
REMARK                         _______ _______ _______ _____ _____    ______ ____
ROOT
ATOM      1  O   UNL     1       8.960   9.221  19.622  0.00  0.00    +0.000 OA
ATOM      2  C   UNL     1       8.805   9.717  18.511  0.00  0.00    +0.000 C 
ATOM      3  N   UNL     1       8.074   9.121  17.493  0.00  0.00    +0.000 N 
ATOM      4  H   UNL     1       8.155   9.544  16.577  0.00  0.00    +0.000 HD
ENDROOT
BRANCH   3   5
ATOM      5  C   UNL     1       7.346   7.918  17.589  0.00  0.00    +0.000 A 
ATOM      6  C   UNL     1       7.842   6.756  18.184  0.00  0.00    +0.000 A 
ATOM      7  C   UNL     1       7.107   5.564  18.151  0.00  0.00    +0.000 A 
ATOM      8  C   UNL     1       5.846   5.520  17.548  0.00  0.00    +0.000 A 
ATOM      9  C   UNL     1       5.296   6.723  17.096  0.00  0.00    +0.000 A 
ATOM     10  C   UNL     1       6.051   7.902  17.072  0.00  0.00    +0.000 A 
BRANCH   8  11
ATOM     11  C   UNL     1       5.154   4.193  17.455  0.00  0.00    +0.000 C 
ATOM     12  O   UNL     1       5.354   3.533  16.434  0.00  0.00    +0.000 OA
ATOM     13  N   UNL     1       4.284   3.745  18.470  0.00  0.00    +0.000 N 
ATOM     14  C   UNL     1       3.755   2.383  18.361  0.00  0.00    +0.000 C 
ATOM     15  C   UNL     1       2.327   2.335  17.816  0.00  0.00    +0.000 C 
ATOM     16  C   UNL     1       1.242   2.727  18.818  0.00  0.00    +0.000 C 
ATOM     17  C   UNL     1       1.396   4.126  19.404  0.00  0.00    +0.000 C 
ATOM     18  C   UNL     1       2.592   4.215  20.339  0.00  0.00    +0.000 C 
ATOM     19  C   UNL     1       3.891   4.551  19.624  0.00  0.00    +0.000 C 
ENDBRANCH   8  11
ENDBRANCH   3   5
BRANCH   2  20
ATOM     20  C   UNL     1       9.437  10.976  18.181  0.00  0.00    +0.000 A 
ATOM     21  C   UNL     1      10.793  11.168  17.991  0.00  0.00    +0.000 A 
ATOM     22  N   UNL     1      11.188  12.464  17.740  0.00  0.00    +0.000 NA
ATOM     23  C   UNL     1      10.143  13.266  17.787  0.00  0.00    +0.000 A 
ATOM     24  S   UNL     1       8.628  12.465  17.997  0.00  0.00    +0.000 S 
BRANCH  23  25
ATOM     25  C   UNL     1      10.239  14.721  17.621  0.00  0.00    +0.000 A 
ATOM     26  C   UNL     1      11.435  15.268  17.122  0.00  0.00    +0.000 A 
ATOM     27  C   UNL     1      11.594  16.649  16.986  0.00  0.00    +0.000 A 
ATOM     28  C   UNL     1      10.562  17.509  17.353  0.00  0.00    +0.000 A 
ATOM     29  C   UNL     1       9.374  16.986  17.858  0.00  0.00    +0.000 A 
ATOM     30  C   UNL     1       9.220  15.605  17.993  0.00  0.00    +0.000 A 
ATOM     31  F   UNL     1       8.076  15.157  18.529  0.00  0.00    +0.000 F 
ENDBRANCH  23  25
ENDBRANCH   2  20
TORSDOF 4
ENDMDL
MODEL 4
REMARK VINA RESULT:      -8.2      8.062     10.366
REMARK  Name = 
REMARK  4 active torsions:
REMARK  status: ('A' for Active; 'I' for Inactive)
REMARK    1  A    between atoms: C_2  and  C_19
REMARK    2  A    between atoms: N_3  and  C_4
REMARK    3  A    between atoms: C_7  and  C_8
REMARK    4  A    between atoms: C_22  and  C_23
REMARK                            x       y       z     vdW  Elec       q    Type
REMARK                         _______ _______ _______ _____ _____    ______ ____
ROOT
ATOM      1  O   UNL     1       1.504  11.648  20.517  0.00  0.00    +0.000 OA
ATOM      2  C   UNL     1       0.600  11.013  21.051  0.00  0.00    +0.000 C 
ATOM      3  N   UNL     1       0.374   9.660  20.836  0.00  0.00    +0.000 N 
ATOM      4  H   UNL     1      -0.494   9.288  21.200  0.00  0.00    +0.000 HD
ENDROOT
BRANCH   3   5
ATOM      5  C   UNL     1       1.171   8.800  20.054  0.00  0.00    +0.000 A 
ATOM      6  C   UNL     1       1.466   9.026  18.708  0.00  0.00    +0.000 A 
ATOM      7  C   UNL     1       2.174   8.078  17.960  0.00  0.00    +0.000 A 
ATOM      8  C   UNL     1       2.629   6.896  18.554  0.00  0.00    +0.000 A 
ATOM      9  C   UNL     1       2.464   6.754  19.935  0.00  0.00    +0.000 A 
ATOM     10  C   UNL     1       1.704   7.670  20.672  0.00  0.00    +0.000 A 
BRANCH   8  11
ATOM     11  C   UNL     1       3.292   5.875  17.678  0.00  0.00    +0.000 C 
ATOM     12  O   UNL     1       2.657   4.843  17.451  0.00  0.00    +0.000 OA
ATOM     13  N   UNL     1       4.594   6.072  17.175  0.00  0.00    +0.000 N 
ATOM     14  C   UNL     1       5.112   5.087  16.223  0.00  0.00    +0.000 C 
ATOM     15  C   UNL     1       6.059   4.071  16.864  0.00  0.00    +0.000 C 
ATOM     16  C   UNL     1       7.464   4.597  17.157  0.00  0.00    +0.000 C 
ATOM     17  C   UNL     1       7.507   5.813  18.074  0.00  0.00    +0.000 C 
ATOM     18  C   UNL     1       6.953   7.053  17.390  0.00  0.00    +0.000 C 
ATOM     19  C   UNL     1       5.447   7.202  17.538  0.00  0.00    +0.000 C 
ENDBRANCH   8  11
ENDBRANCH   3   5
BRANCH   2  20
ATOM     20  C   UNL     1      -0.339  11.678  21.929  0.00  0.00    +0.000 A 
ATOM     21  C   UNL     1      -1.262  11.047  22.742  0.00  0.00    +0.000 A 
ATOM     22  N   UNL     1      -2.100  11.876  23.455  0.00  0.00    +0.000 NA
ATOM     23  C   UNL     1      -1.852  13.134  23.149  0.00  0.00    +0.000 A 
ATOM     24  S   UNL     1      -0.503  13.366  22.096  0.00  0.00    +0.000 S 
BRANCH  23  25
ATOM     25  C   UNL     1      -2.617  14.261  23.695  0.00  0.00    +0.000 A 
ATOM     26  C   UNL     1      -2.033  15.049  24.703  0.00  0.00    +0.000 A 
ATOM     27  C   UNL     1      -2.735  16.107  25.287  0.00  0.00    +0.000 A 
ATOM     28  C   UNL     1      -4.035  16.390  24.879  0.00  0.00    +0.000 A 
ATOM     29  C   UNL     1      -4.633  15.613  23.889  0.00  0.00    +0.000 A 
ATOM     30  C   UNL     1      -3.928  14.558  23.309  0.00  0.00    +0.000 A 
ATOM     31  F   UNL     1      -4.567  13.812  22.396  0.00  0.00    +0.000 F 
ENDBRANCH  23  25
ENDBRANCH   2  20
TORSDOF 4
ENDMDL
MODEL 5
REMARK VINA RESULT:      -8.1      8.631     11.414
REMARK  Name = 
REMARK  4 active torsions:
REMARK  status: ('A' for Active; 'I' for Inactive)
REMARK    1  A    between atoms: C_2  and  C_19
REMARK    2  A    between atoms: N_3  and  C_4
REMARK    3  A    between atoms: C_7  and  C_8
REMARK    4  A    between atoms: C_22  and  C_23
REMARK                            x       y       z     vdW  Elec       q    Type
REMARK                         _______ _______ _______ _____ _____    ______ ____
ROOT
ATOM      1  O   UNL     1       0.926  12.228  21.585  0.00  0.00    +0.000 OA
ATOM      2  C   UNL     1      -0.204  11.755  21.524  0.00  0.00    +0.000 C 
ATOM      3  N   UNL     1      -0.507  10.550  20.905  0.00  0.00    +0.000 N 
ATOM      4  H   UNL     1      -1.490  10.347  20.777  0.00  0.00    +0.000 HD
ENDROOT
BRANCH   3   5
ATOM      5  C   UNL     1       0.420   9.658  20.329  0.00  0.00    +0.000 A 
ATOM      6  C   UNL     1       0.846   9.733  19.000  0.00  0.00    +0.000 A 
ATOM      7  C   UNL     1       1.686   8.752  18.461  0.00  0.00    +0.000 A 
ATOM      8  C   UNL     1       2.143   7.692  19.250  0.00  0.00    +0.000 A 
ATOM      9  C   UNL     1       1.837   7.713  20.614  0.00  0.00    +0.000 A 
ATOM     10  C   UNL     1       0.948   8.657  21.143  0.00  0.00    +0.000 A 
BRANCH   8  11
ATOM     11  C   UNL     1       2.956   6.619  18.589  0.00  0.00    +0.000 C 
ATOM     12  O   UNL     1       3.675   6.967  17.650  0.00  0.00    +0.000 OA
ATOM     13  N   UNL     1       2.870   5.273  18.999  0.00  0.00    +0.000 N 
ATOM     14  C   UNL     1       3.795   4.315  18.389  0.00  0.00    +0.000 C 
ATOM     15  C   UNL     1       3.156   3.489  17.271  0.00  0.00    +0.000 C 
ATOM     16  C   UNL     1       2.234   2.367  17.748  0.00  0.00    +0.000 C 
ATOM     17  C   UNL     1       1.069   2.829  18.616  0.00  0.00    +0.000 C 
ATOM     18  C   UNL     1       1.540   3.311  19.979  0.00  0.00    +0.000 C 
ATOM     19  C   UNL     1       1.923   4.783  19.998  0.00  0.00    +0.000 C 
ENDBRANCH   8  11
ENDBRANCH   3   5
BRANCH   2  20
ATOM     20  C   UNL     1      -1.328  12.480  22.078  0.00  0.00    +0.000 A 
ATOM     21  C   UNL     1      -1.275  13.339  23.160  0.00  0.00    +0.000 A 
ATOM     22  N   UNL     1      -2.477  13.880  23.558  0.00  0.00    +0.000 NA
ATOM     23  C   UNL     1      -3.453  13.398  22.814  0.00  0.00    +0.000 A 
ATOM     24  S   UNL     1      -2.935  12.381  21.517  0.00  0.00    +0.000 S 
BRANCH  23  25
ATOM     25  C   UNL     1      -4.866  13.732  23.024  0.00  0.00    +0.000 A 
ATOM     26  C   UNL     1      -5.617  12.958  23.927  0.00  0.00    +0.000 A 
ATOM     27  C   UNL     1      -6.977  13.207  24.132  0.00  0.00    +0.000 A 
ATOM     28  C   UNL     1      -7.611  14.229  23.432  0.00  0.00    +0.000 A 
ATOM     29  C   UNL     1      -6.885  14.999  22.526  0.00  0.00    +0.000 A 
ATOM     30  C   UNL     1      -5.528  14.747  22.325  0.00  0.00    +0.000 A 
ATOM     31  F   UNL     1      -4.888  15.486  21.407  0.00  0.00    +0.000 F 
ENDBRANCH  23  25
ENDBRANCH   2  20
TORSDOF 4
ENDMDL
MODEL 6
REMARK VINA RESULT:      -8.1      9.000     12.553
REMARK  Name = 
REMARK  4 active torsions:
REMARK  status: ('A' for Active; 'I' for Inactive)
REMARK    1  A    between atoms: C_2  and  C_19
REMARK    2  A    between atoms: N_3  and  C_4
REMARK    3  A    between atoms: C_7  and  C_8
REMARK    4  A    between atoms: C_22  and  C_23
REMARK                            x       y       z     vdW  Elec       q    Type
REMARK                         _______ _______ _______ _____ _____    ______ ____
ROOT
ATOM      1  O   UNL     1       1.438  11.260  19.600  0.00  0.00    +0.000 OA
ATOM      2  C   UNL     1       0.863  10.214  19.885  0.00  0.00    +0.000 C 
ATOM      3  N   UNL     1      -0.349  10.157  20.559  0.00  0.00    +0.000 N 
ATOM      4  H   UNL     1      -0.640   9.242  20.881  0.00  0.00    +0.000 HD
ENDROOT
BRANCH   3   5
ATOM      5  C   UNL     1      -1.135  11.260  20.948  0.00  0.00    +0.000 A 
ATOM      6  C   UNL     1      -1.208  11.738  22.258  0.00  0.00    +0.000 A 
ATOM      7  C   UNL     1      -2.090  12.771  22.597  0.00  0.00    +0.000 A 
ATOM      8  C   UNL     1      -2.896  13.368  21.623  0.00  0.00    +0.000 A 
ATOM      9  C   UNL     1      -2.702  12.988  20.291  0.00  0.00    +0.000 A 
ATOM     10  C   UNL     1      -1.866  11.915  19.958  0.00  0.00    +0.000 A 
BRANCH   8  11
ATOM     11  C   UNL     1      -3.893  14.398  22.065  0.00  0.00    +0.000 C 
ATOM     12  O   UNL     1      -3.441  15.485  22.431  0.00  0.00    +0.000 OA
ATOM     13  N   UNL     1      -5.274  14.118  22.097  0.00  0.00    +0.000 N 
ATOM     14  C   UNL     1      -6.185  15.221  22.415  0.00  0.00    +0.000 C 
ATOM     15  C   UNL     1      -6.661  15.208  23.868  0.00  0.00    +0.000 C 
ATOM     16  C   UNL     1      -7.736  14.167  24.184  0.00  0.00    +0.000 C 
ATOM     17  C   UNL     1      -7.331  12.729  23.886  0.00  0.00    +0.000 C 
ATOM     18  C   UNL     1      -7.220  12.474  22.391  0.00  0.00    +0.000 C 
ATOM     19  C   UNL     1      -5.848  12.802  21.824  0.00  0.00    +0.000 C 
ENDBRANCH   8  11
ENDBRANCH   3   5
BRANCH   2  20
ATOM     20  C   UNL     1       1.464   8.939  19.559  0.00  0.00    +0.000 A 
ATOM     21  C   UNL     1       1.687   7.905  20.450  0.00  0.00    +0.000 A 
ATOM     22  N   UNL     1       2.327   6.798  19.939  0.00  0.00    +0.000 NA
ATOM     23  C   UNL     1       2.638   7.005  18.674  0.00  0.00    +0.000 A 
ATOM     24  S   UNL     1       2.043   8.488  18.020  0.00  0.00    +0.000 S 
BRANCH  23  25
ATOM     25  C   UNL     1       3.382   6.037  17.860  0.00  0.00    +0.000 A 
ATOM     26  C   UNL     1       2.890   4.724  17.751  0.00  0.00    +0.000 A 
ATOM     27  C   UNL     1       3.583   3.753  17.024  0.00  0.00    +0.000 A 
ATOM     28  C   UNL     1       4.784   4.076  16.399  0.00  0.00    +0.000 A 
ATOM     29  C   UNL     1       5.292   5.369  16.504  0.00  0.00    +0.000 A 
ATOM     30  C   UNL     1       4.596   6.335  17.232  0.00  0.00    +0.000 A 
ATOM     31  F   UNL     1       5.153   7.550  17.342  0.00  0.00    +0.000 F 
ENDBRANCH  23  25
ENDBRANCH   2  20
TORSDOF 4
ENDMDL
MODEL 7
REMARK VINA RESULT:      -8.1      8.789     11.130
REMARK  Name = 
REMARK  4 active torsions:
REMARK  status: ('A' for Active; 'I' for Inactive)
REMARK    1  A    between atoms: C_2  and  C_19
REMARK    2  A    between atoms: N_3  and  C_4
REMARK    3  A    between atoms: C_7  and  C_8
REMARK    4  A    between atoms: C_22  and  C_23
REMARK                            x       y       z     vdW  Elec       q    Type
REMARK                         _______ _______ _______ _____ _____    ______ ____
ROOT
ATOM      1  O   UNL     1       0.741  11.803  21.681  0.00  0.00    +0.000 OA
ATOM      2  C   UNL     1      -0.270  11.654  21.003  0.00  0.00    +0.000 C 
ATOM      3  N   UNL     1      -0.404  10.685  20.017  0.00  0.00    +0.000 N 
ATOM      4  H   UNL     1      -1.215  10.767  19.417  0.00  0.00    +0.000 HD
ENDROOT
BRANCH   3   5
ATOM      5  C   UNL     1       0.542   9.691  19.697  0.00  0.00    +0.000 A 
ATOM      6  C   UNL     1       1.134   9.561  18.438  0.00  0.00    +0.000 A 
ATOM      7  C   UNL     1       1.987   8.487  18.155  0.00  0.00    +0.000 A 
ATOM      8  C   UNL     1       2.287   7.537  19.137  0.00  0.00    +0.000 A 
ATOM      9  C   UNL     1       1.814   7.764  20.433  0.00  0.00    +0.000 A 
ATOM     10  C   UNL     1       0.914   8.802  20.704  0.00  0.00    +0.000 A 
BRANCH   8  11
ATOM     11  C   UNL     1       3.124   6.356  18.744  0.00  0.00    +0.000 C 
ATOM     12  O   UNL     1       4.039   6.565  17.945  0.00  0.00    +0.000 OA
ATOM     13  N   UNL     1       2.848   5.063  19.235  0.00  0.00    +0.000 N 
ATOM     14  C   UNL     1       3.792   3.993  18.905  0.00  0.00    +0.000 C 
ATOM     15  C   UNL     1       3.319   3.107  17.752  0.00  0.00    +0.000 C 
ATOM     16  C   UNL     1       2.231   2.098  18.122  0.00  0.00    +0.000 C 
ATOM     17  C   UNL     1       0.962   2.716  18.695  0.00  0.00    +0.000 C 
ATOM     18  C   UNL     1       1.195   3.295  20.082  0.00  0.00    +0.000 C 
ATOM     19  C   UNL     1       1.686   4.734  20.059  0.00  0.00    +0.000 C 
ENDBRANCH   8  11
ENDBRANCH   3   5
BRANCH   2  20
ATOM     20  C   UNL     1      -1.399  12.543  21.171  0.00  0.00    +0.000 A 
ATOM     21  C   UNL     1      -1.654  13.670  20.411  0.00  0.00    +0.000 A 
ATOM     22  N   UNL     1      -2.756  14.408  20.781  0.00  0.00    +0.000 NA
ATOM     23  C   UNL     1      -3.313  13.875  21.850  0.00  0.00    +0.000 A 
ATOM     24  S   UNL     1      -2.607  12.385  22.363  0.00  0.00    +0.000 S 
BRANCH  23  25
ATOM     25  C   UNL     1      -4.475  14.461  22.529  0.00  0.00    +0.000 A 
ATOM     26  C   UNL     1      -4.313  15.677  23.217  0.00  0.00    +0.000 A 
ATOM     27  C   UNL     1      -5.376  16.255  23.916  0.00  0.00    +0.000 A 
ATOM     28  C   UNL     1      -6.616  15.625  23.945  0.00  0.00    +0.000 A 
ATOM     29  C   UNL     1      -6.791  14.414  23.278  0.00  0.00    +0.000 A 
ATOM     30  C   UNL     1      -5.727  13.840  22.582  0.00  0.00    +0.000 A 
ATOM     31  F   UNL     1      -5.936  12.651  21.998  0.00  0.00    +0.000 F 
ENDBRANCH  23  25
ENDBRANCH   2  20
TORSDOF 4
ENDMDL
MODEL 8
REMARK VINA RESULT:      -8.1      8.170     10.277
REMARK  Name = 
REMARK  4 active torsions:
REMARK  status: ('A' for Active; 'I' for Inactive)
REMARK    1  A    between atoms: C_2  and  C_19
REMARK    2  A    between atoms: N_3  and  C_4
REMARK    3  A    between atoms: C_7  and  C_8
REMARK    4  A    between atoms: C_22  and  C_23
REMARK                            x       y       z     vdW  Elec       q    Type
REMARK                         _______ _______ _______ _____ _____    ______ ____
ROOT
ATOM      1  O   UNL     1      -1.374  10.250  18.665  0.00  0.00    +0.000 OA
ATOM      2  C   UNL     1      -0.813  10.715  19.652  0.00  0.00    +0.000 C 
ATOM      3  N   UNL     1       0.410  10.265  20.130  0.00  0.00    +0.000 N 
ATOM      4  H   UNL     1       0.690  10.612  21.039  0.00  0.00    +0.000 HD
ENDROOT
BRANCH   3   5
ATOM      5  C   UNL     1       1.223   9.281  19.533  0.00  0.00    +0.000 A 
ATOM      6  C   UNL     1       1.711   9.366  18.227  0.00  0.00    +0.000 A 
ATOM      7  C   UNL     1       2.426   8.304  17.659  0.00  0.00    +0.000 A 
ATOM      8  C   UNL     1       2.693   7.148  18.399  0.00  0.00    +0.000 A 
ATOM      9  C   UNL     1       2.336   7.139  19.751  0.00  0.00    +0.000 A 
ATOM     10  C   UNL     1       1.569   8.172  20.304  0.00  0.00    +0.000 A 
BRANCH   8  11
ATOM     11  C   UNL     1       3.373   6.006  17.704  0.00  0.00    +0.000 C 
ATOM     12  O   UNL     1       2.730   4.959  17.597  0.00  0.00    +0.000 OA
ATOM     13  N   UNL     1       4.697   6.115  17.233  0.00  0.00    +0.000 N 
ATOM     14  C   UNL     1       5.237   5.000  16.451  0.00  0.00    +0.000 C 
ATOM     15  C   UNL     1       6.138   4.073  17.268  0.00  0.00    +0.000 C 
ATOM     16  C   UNL     1       7.539   4.619  17.544  0.00  0.00    +0.000 C 
ATOM     17  C   UNL     1       7.566   5.951  18.283  0.00  0.00    +0.000 C 
ATOM     18  C   UNL     1       7.063   7.089  17.409  0.00  0.00    +0.000 C 
ATOM     19  C   UNL     1       5.555   7.274  17.471  0.00  0.00    +0.000 C 
ENDBRANCH   8  11
ENDBRANCH   3   5
BRANCH   2  20
ATOM     20  C   UNL     1      -1.444  11.766  20.421  0.00  0.00    +0.000 A 
ATOM     21  C   UNL     1      -2.426  12.622  19.957  0.00  0.00    +0.000 A 
ATOM     22  N   UNL     1      -2.847  13.590  20.842  0.00  0.00    +0.000 NA
ATOM     23  C   UNL     1      -2.155  13.505  21.961  0.00  0.00    +0.000 A 
ATOM     24  S   UNL     1      -1.067  12.166  22.035  0.00  0.00    +0.000 S 
BRANCH  23  25
ATOM     25  C   UNL     1      -2.322  14.436  23.083  0.00  0.00    +0.000 A 
ATOM     26  C   UNL     1      -1.747  15.716  22.991  0.00  0.00    +0.000 A 
ATOM     27  C   UNL     1      -1.840  16.624  24.049  0.00  0.00    +0.000 A 
ATOM     28  C   UNL     1      -2.503  16.267  25.219  0.00  0.00    +0.000 A 
ATOM     29  C   UNL     1      -3.070  14.998  25.331  0.00  0.00    +0.000 A 
ATOM     30  C   UNL     1      -2.974  14.095  24.273  0.00  0.00    +0.000 A 
ATOM     31  F   UNL     1      -3.495  12.872  24.451  0.00  0.00    +0.000 F 
ENDBRANCH  23  25
ENDBRANCH   2  20
TORSDOF 4
ENDMDL
MODEL 9
REMARK VINA RESULT:      -8.0      9.096     12.436
REMARK  Name = 
REMARK  4 active torsions:
REMARK  status: ('A' for Active; 'I' for Inactive)
REMARK    1  A    between atoms: C_2  and  C_19
REMARK    2  A    between atoms: N_3  and  C_4
REMARK    3  A    between atoms: C_7  and  C_8
REMARK    4  A    between atoms: C_22  and  C_23
REMARK                            x       y       z     vdW  Elec       q    Type
REMARK                         _______ _______ _______ _____ _____    ______ ____
ROOT
ATOM      1  O   UNL     1      -0.166  10.173  18.940  0.00  0.00    +0.000 OA
ATOM      2  C   UNL     1       0.686   9.743  19.712  0.00  0.00    +0.000 C 
ATOM      3  N   UNL     1       0.989  10.328  20.934  0.00  0.00    +0.000 N 
ATOM      4  H   UNL     1       1.817   9.983  21.403  0.00  0.00    +0.000 HD
ENDROOT
BRANCH   3   5
ATOM      5  C   UNL     1       0.332  11.435  21.509  0.00  0.00    +0.000 A 
ATOM      6  C   UNL     1       0.629  12.763  21.194  0.00  0.00    +0.000 A 
ATOM      7  C   UNL     1       0.013  13.817  21.879  0.00  0.00    +0.000 A 
ATOM      8  C   UNL     1      -0.935  13.563  22.875  0.00  0.00    +0.000 A 
ATOM      9  C   UNL     1      -1.336  12.238  23.072  0.00  0.00    +0.000 A 
ATOM     10  C   UNL     1      -0.680  11.179  22.432  0.00  0.00    +0.000 A 
BRANCH   8  11
ATOM     11  C   UNL     1      -1.483  14.728  23.643  0.00  0.00    +0.000 C 
ATOM     12  O   UNL     1      -0.922  15.006  24.705  0.00  0.00    +0.000 OA
ATOM     13  N   UNL     1      -2.610  15.443  23.190  0.00  0.00    +0.000 N 
ATOM     14  C   UNL     1      -2.998  16.646  23.931  0.00  0.00    +0.000 C 
ATOM     15  C   UNL     1      -4.162  16.411  24.894  0.00  0.00    +0.000 C 
ATOM     16  C   UNL     1      -5.537  16.321  24.230  0.00  0.00    +0.000 C 
ATOM     17  C   UNL     1      -5.662  15.224  23.180  0.00  0.00    +0.000 C 
ATOM     18  C   UNL     1      -4.845  15.540  21.936  0.00  0.00    +0.000 C 
ATOM     19  C   UNL     1      -3.405  15.061  22.024  0.00  0.00    +0.000 C 
ENDBRANCH   8  11
ENDBRANCH   3   5
BRANCH   2  20
ATOM     20  C   UNL     1       1.479   8.587  19.352  0.00  0.00    +0.000 A 
ATOM     21  C   UNL     1       1.861   7.576  20.214  0.00  0.00    +0.000 A 
ATOM     22  N   UNL     1       2.665   6.597  19.674  0.00  0.00    +0.000 NA
ATOM     23  C   UNL     1       2.938   6.886  18.417  0.00  0.00    +0.000 A 
ATOM     24  S   UNL     1       2.118   8.276  17.803  0.00  0.00    +0.000 S 
BRANCH  23  25
ATOM     25  C   UNL     1       3.823   6.069  17.578  0.00  0.00    +0.000 A 
ATOM     26  C   UNL     1       4.804   6.714  16.803  0.00  0.00    +0.000 A 
ATOM     27  C   UNL     1       5.643   5.987  15.954  0.00  0.00    +0.000 A 
ATOM     28  C   UNL     1       5.512   4.605  15.860  0.00  0.00    +0.000 A 
ATOM     29  C   UNL     1       4.539   3.951  16.613  0.00  0.00    +0.000 A 
ATOM     30  C   UNL     1       3.703   4.681  17.459  0.00  0.00    +0.000 A 
ATOM     31  F   UNL     1       2.753   4.008  18.125  0.00  0.00    +0.000 F 
ENDBRANCH  23  25
ENDBRANCH   2  20
TORSDOF 4
ENDMDL
