MODEL 1
REMARK VINA RESULT:      -7.9      0.000      0.000
REMARK  Name = 
REMARK  3 active torsions:
REMARK  status: ('A' for Active; 'I' for Inactive)
REMARK    1  A    between atoms: N_14  and  C_15
REMARK    2  A    between atoms: C_15  and  C_16
REMARK    3  A    between atoms: C_20  and  N_21
REMARK                            x       y       z     vdW  Elec       q    Type
REMARK                         _______ _______ _______ _____ _____    ______ ____
ROOT
ATOM      1  O   UNL     1       2.966   8.391  17.200  0.00  0.00    +0.000 OA
ATOM      2  C   UNL     1       3.085   7.416  17.918  0.00  0.00    +0.000 C 
ATOM      3  N   UNL     1       4.278   6.709  18.105  0.00  0.00    +0.000 N 
ATOM      4  C   UNL     1       3.890   5.335  18.230  0.00  0.00    +0.000 C 
ATOM      5  C   UNL     1       4.323   4.064  18.930  0.00  0.00    +0.000 C 
ATOM      6  C   UNL     1       5.005   4.433  17.671  0.00  0.00    +0.000 C 
ATOM      7  C   UNL     1       6.491   4.670  17.962  0.00  0.00    +0.000 C 
ATOM      8  C   UNL     1       7.172   5.564  16.942  0.00  0.00    +0.000 C 
ATOM      9  C   UNL     1       6.910   5.081  15.523  0.00  0.00    +0.000 C 
ATOM     10  C   UNL     1       5.418   4.838  15.256  0.00  0.00    +0.000 C 
ATOM     11  C   UNL     1       4.774   3.885  16.285  0.00  0.00    +0.000 C 
ATOM     12  C   UNL     1       2.378   5.425  18.328  0.00  0.00    +0.000 C 
ATOM     13  O   UNL     1       1.601   4.514  18.069  0.00  0.00    +0.000 OA
ATOM     14  N   UNL     1       2.082   6.750  18.605  0.00  0.00    +0.000 N 
ATOM     15  H   UNL     1       4.953   6.982  17.404  0.00  0.00    +0.000 HD
ENDROOT
BRANCH  14  16
ATOM     16  C   UNL     1       2.247   7.193  19.990  0.00  0.00    +0.000 C 
BRANCH  16  17
ATOM     17  C   UNL     1       1.450   8.344  20.528  0.00  0.00    +0.000 A 
ATOM     18  C   UNL     1       1.407   8.677  21.879  0.00  0.00    +0.000 A 
ATOM     19  C   UNL     1       0.478   9.614  22.335  0.00  0.00    +0.000 A 
ATOM     20  C   UNL     1      -0.407  10.240  21.449  0.00  0.00    +0.000 A 
ATOM     21  C   UNL     1      -0.356   9.942  20.084  0.00  0.00    +0.000 A 
ATOM     22  C   UNL     1       0.553   8.975  19.636  0.00  0.00    +0.000 A 
BRANCH  21  23
ATOM     23  N   UNL     1      -1.188  10.612  19.149  0.00  0.00    +0.000 N 
ATOM     24  C   UNL     1      -1.402  10.320  17.822  0.00  0.00    +0.000 A 
ATOM     25  N   UNL     1      -2.309  11.120  17.312  0.00  0.00    +0.000 NA
ATOM     26  C   UNL     1      -2.635  11.913  18.369  0.00  0.00    +0.000 A 
ATOM     27  N   UNL     1      -1.974  11.664  19.500  0.00  0.00    +0.000 NA
ENDBRANCH  21  23
ENDBRANCH  16  17
ENDBRANCH  14  16
TORSDOF 3
ENDMDL
MODEL 2
REMARK VINA RESULT:      -7.9      1.184      1.230
REMARK  Name = 
REMARK  3 active torsions:
REMARK  status: ('A' for Active; 'I' for Inactive)
REMARK    1  A    between atoms: N_14  and  C_15
REMARK    2  A    between atoms: C_15  and  C_16
REMARK    3  A    between atoms: C_20  and  N_21
REMARK                            x       y       z     vdW  Elec       q    Type
REMARK                         _______ _______ _______ _____ _____    ______ ____
ROOT
ATOM      1  O   UNL     1       3.078   8.405  17.043  0.00  0.00    +0.000 OA
ATOM      2  C   UNL     1       3.185   7.420  17.751  0.00  0.00    +0.000 C 
ATOM      3  N   UNL     1       4.366   6.692  17.923  0.00  0.00    +0.000 N 
ATOM      4  C   UNL     1       3.957   5.323  18.037  0.00  0.00    +0.000 C 
ATOM      5  C   UNL     1       4.372   4.038  18.721  0.00  0.00    +0.000 C 
ATOM      6  C   UNL     1       5.053   4.408  17.461  0.00  0.00    +0.000 C 
ATOM      7  C   UNL     1       6.544   4.617  17.746  0.00  0.00    +0.000 C 
ATOM      8  C   UNL     1       7.234   5.510  16.731  0.00  0.00    +0.000 C 
ATOM      9  C   UNL     1       6.956   5.046  15.309  0.00  0.00    +0.000 C 
ATOM     10  C   UNL     1       5.459   4.831  15.049  0.00  0.00    +0.000 C 
ATOM     11  C   UNL     1       4.804   3.879  16.072  0.00  0.00    +0.000 C 
ATOM     12  C   UNL     1       2.447   5.438  18.145  0.00  0.00    +0.000 C 
ATOM     13  O   UNL     1       1.653   4.543  17.882  0.00  0.00    +0.000 OA
ATOM     14  N   UNL     1       2.175   6.765  18.437  0.00  0.00    +0.000 N 
ATOM     15  H   UNL     1       5.042   6.961  17.221  0.00  0.00    +0.000 HD
ENDROOT
BRANCH  14  16
ATOM     16  C   UNL     1       2.355   7.191  19.825  0.00  0.00    +0.000 C 
BRANCH  16  17
ATOM     17  C   UNL     1       1.459   8.230  20.432  0.00  0.00    +0.000 A 
ATOM     18  C   UNL     1       0.707   8.010  21.583  0.00  0.00    +0.000 A 
ATOM     19  C   UNL     1      -0.267   8.934  21.965  0.00  0.00    +0.000 A 
ATOM     20  C   UNL     1      -0.492  10.093  21.212  0.00  0.00    +0.000 A 
ATOM     21  C   UNL     1       0.275  10.346  20.071  0.00  0.00    +0.000 A 
ATOM     22  C   UNL     1       1.226   9.399  19.672  0.00  0.00    +0.000 A 
BRANCH  21  23
ATOM     23  N   UNL     1       0.124  11.546  19.328  0.00  0.00    +0.000 N 
ATOM     24  C   UNL     1      -0.919  11.933  18.520  0.00  0.00    +0.000 A 
ATOM     25  N   UNL     1      -0.732  13.153  18.073  0.00  0.00    +0.000 NA
ATOM     26  C   UNL     1       0.463  13.493  18.629  0.00  0.00    +0.000 A 
ATOM     27  N   UNL     1       1.036  12.553  19.382  0.00  0.00    +0.000 NA
ENDBRANCH  21  23
ENDBRANCH  16  17
ENDBRANCH  14  16
TORSDOF 3
ENDMDL
MODEL 3
REMARK VINA RESULT:      -7.7      4.380      8.216
REMARK  Name = 
REMARK  3 active torsions:
REMARK  status: ('A' for Active; 'I' for Inactive)
REMARK    1  A    between atoms: N_14  and  C_15
REMARK    2  A    between atoms: C_15  and  C_16
REMARK    3  A    between atoms: C_20  and  N_21
REMARK                            x       y       z     vdW  Elec       q    Type
REMARK                         _______ _______ _______ _____ _____    ______ ____
ROOT
ATOM      1  O   UNL     1       3.109   7.195  18.980  0.00  0.00    +0.000 OA
ATOM      2  C   UNL     1       3.543   6.172  18.483  0.00  0.00    +0.000 C 
ATOM      3  N   UNL     1       2.840   4.965  18.412  0.00  0.00    +0.000 N 
ATOM      4  C   UNL     1       3.824   3.940  18.597  0.00  0.00    +0.000 C 
ATOM      5  C   UNL     1       4.115   2.516  18.171  0.00  0.00    +0.000 C 
ATOM      6  C   UNL     1       3.182   2.730  19.298  0.00  0.00    +0.000 C 
ATOM      7  C   UNL     1       1.804   2.181  18.914  0.00  0.00    +0.000 C 
ATOM      8  C   UNL     1       0.663   2.807  19.695  0.00  0.00    +0.000 C 
ATOM      9  C   UNL     1       0.930   2.759  21.193  0.00  0.00    +0.000 C 
ATOM     10  C   UNL     1       2.319   3.302  21.555  0.00  0.00    +0.000 C 
ATOM     11  C   UNL     1       3.455   2.606  20.776  0.00  0.00    +0.000 C 
ATOM     12  C   UNL     1       5.127   4.716  18.532  0.00  0.00    +0.000 C 
ATOM     13  O   UNL     1       6.193   4.342  19.006  0.00  0.00    +0.000 OA
ATOM     14  N   UNL     1       4.819   5.953  17.988  0.00  0.00    +0.000 N 
ATOM     15  H   UNL     1       2.029   5.002  19.016  0.00  0.00    +0.000 HD
ENDROOT
BRANCH  14  16
ATOM     16  C   UNL     1       4.652   6.018  16.537  0.00  0.00    +0.000 C 
BRANCH  16  17
ATOM     17  C   UNL     1       5.684   5.434  15.618  0.00  0.00    +0.000 A 
ATOM     18  C   UNL     1       7.034   5.771  15.675  0.00  0.00    +0.000 A 
ATOM     19  C   UNL     1       7.897   5.363  14.656  0.00  0.00    +0.000 A 
ATOM     20  C   UNL     1       7.427   4.604  13.577  0.00  0.00    +0.000 A 
ATOM     21  C   UNL     1       6.081   4.229  13.520  0.00  0.00    +0.000 A 
ATOM     22  C   UNL     1       5.212   4.671  14.526  0.00  0.00    +0.000 A 
BRANCH  21  23
ATOM     23  N   UNL     1       5.587   3.398  12.480  0.00  0.00    +0.000 N 
ATOM     24  C   UNL     1       6.153   2.268  11.938  0.00  0.00    +0.000 A 
ATOM     25  N   UNL     1       5.350   1.727  11.052  0.00  0.00    +0.000 NA
ATOM     26  C   UNL     1       4.280   2.567  11.067  0.00  0.00    +0.000 A 
ATOM     27  N   UNL     1       4.376   3.606  11.898  0.00  0.00    +0.000 NA
ENDBRANCH  21  23
ENDBRANCH  16  17
ENDBRANCH  14  16
TORSDOF 3
ENDMDL
MODEL 4
REMARK VINA RESULT:      -7.6      2.416      3.782
REMARK  Name = 
REMARK  3 active torsions:
REMARK  status: ('A' for Active; 'I' for Inactive)
REMARK    1  A    between atoms: N_14  and  C_15
REMARK    2  A    between atoms: C_15  and  C_16
REMARK    3  A    between atoms: C_20  and  N_21
REMARK                            x       y       z     vdW  Elec       q    Type
REMARK                         _______ _______ _______ _____ _____    ______ ____
ROOT
ATOM      1  O   UNL     1       2.041   7.834  20.798  0.00  0.00    +0.000 OA
ATOM      2  C   UNL     1       2.165   7.265  19.729  0.00  0.00    +0.000 C 
ATOM      3  N   UNL     1       1.591   6.027  19.419  0.00  0.00    +0.000 N 
ATOM      4  C   UNL     1       2.551   5.360  18.590  0.00  0.00    +0.000 C 
ATOM      5  C   UNL     1       2.611   4.370  17.446  0.00  0.00    +0.000 C 
ATOM      6  C   UNL     1       2.461   3.840  18.818  0.00  0.00    +0.000 C 
ATOM      7  C   UNL     1       1.127   3.093  18.918  0.00  0.00    +0.000 C 
ATOM      8  C   UNL     1       0.594   2.993  20.336  0.00  0.00    +0.000 C 
ATOM      9  C   UNL     1       1.654   2.455  21.286  0.00  0.00    +0.000 C 
ATOM     10  C   UNL     1       2.985   3.209  21.162  0.00  0.00    +0.000 C 
ATOM     11  C   UNL     1       3.518   3.246  19.714  0.00  0.00    +0.000 C 
ATOM     12  C   UNL     1       3.563   6.456  18.307  0.00  0.00    +0.000 C 
ATOM     13  O   UNL     1       4.726   6.270  17.969  0.00  0.00    +0.000 OA
ATOM     14  N   UNL     1       2.954   7.651  18.657  0.00  0.00    +0.000 N 
ATOM     15  H   UNL     1       1.256   5.582  20.264  0.00  0.00    +0.000 HD
ENDROOT
BRANCH  14  16
ATOM     16  C   UNL     1       2.000   8.216  17.702  0.00  0.00    +0.000 C 
BRANCH  16  17
ATOM     17  C   UNL     1       1.404   9.574  17.925  0.00  0.00    +0.000 A 
ATOM     18  C   UNL     1       2.159  10.691  18.276  0.00  0.00    +0.000 A 
ATOM     19  C   UNL     1       1.519  11.863  18.682  0.00  0.00    +0.000 A 
ATOM     20  C   UNL     1       0.122  11.940  18.729  0.00  0.00    +0.000 A 
ATOM     21  C   UNL     1      -0.652  10.840  18.349  0.00  0.00    +0.000 A 
ATOM     22  C   UNL     1      -0.006   9.655  17.977  0.00  0.00    +0.000 A 
BRANCH  21  23
ATOM     23  N   UNL     1      -2.070  10.909  18.314  0.00  0.00    +0.000 N 
ATOM     24  C   UNL     1      -2.901  11.844  18.883  0.00  0.00    +0.000 A 
ATOM     25  N   UNL     1      -4.151  11.615  18.555  0.00  0.00    +0.000 NA
ATOM     26  C   UNL     1      -4.055  10.505  17.772  0.00  0.00    +0.000 A 
ATOM     27  N   UNL     1      -2.822  10.023  17.608  0.00  0.00    +0.000 NA
ENDBRANCH  21  23
ENDBRANCH  16  17
ENDBRANCH  14  16
TORSDOF 3
ENDMDL
MODEL 5
REMARK VINA RESULT:      -7.6      4.068      7.911
REMARK  Name = 
REMARK  3 active torsions:
REMARK  status: ('A' for Active; 'I' for Inactive)
REMARK    1  A    between atoms: N_14  and  C_15
REMARK    2  A    between atoms: C_15  and  C_16
REMARK    3  A    between atoms: C_20  and  N_21
REMARK                            x       y       z     vdW  Elec       q    Type
REMARK                         _______ _______ _______ _____ _____    ______ ____
ROOT
ATOM      1  O   UNL     1       2.065   7.438  18.458  0.00  0.00    +0.000 OA
ATOM      2  C   UNL     1       2.865   6.566  18.172  0.00  0.00    +0.000 C 
ATOM      3  N   UNL     1       2.536   5.218  17.991  0.00  0.00    +0.000 N 
ATOM      4  C   UNL     1       3.650   4.481  18.511  0.00  0.00    +0.000 C 
ATOM      5  C   UNL     1       4.395   3.184  18.281  0.00  0.00    +0.000 C 
ATOM      6  C   UNL     1       3.156   3.142  19.088  0.00  0.00    +0.000 C 
ATOM      7  C   UNL     1       2.129   2.257  18.373  0.00  0.00    +0.000 C 
ATOM      8  C   UNL     1       0.694   2.563  18.763  0.00  0.00    +0.000 C 
ATOM      9  C   UNL     1       0.524   2.576  20.275  0.00  0.00    +0.000 C 
ATOM     10  C   UNL     1       1.569   3.457  20.971  0.00  0.00    +0.000 C 
ATOM     11  C   UNL     1       3.017   3.083  20.588  0.00  0.00    +0.000 C 
ATOM     12  C   UNL     1       4.679   5.569  18.759  0.00  0.00    +0.000 C 
ATOM     13  O   UNL     1       5.624   5.480  19.535  0.00  0.00    +0.000 OA
ATOM     14  N   UNL     1       4.241   6.687  18.068  0.00  0.00    +0.000 N 
ATOM     15  H   UNL     1       1.604   5.041  18.341  0.00  0.00    +0.000 HD
ENDROOT
BRANCH  14  16
ATOM     16  C   UNL     1       4.486   6.716  16.626  0.00  0.00    +0.000 C 
BRANCH  16  17
ATOM     17  C   UNL     1       5.505   5.809  16.002  0.00  0.00    +0.000 A 
ATOM     18  C   UNL     1       6.843   5.786  16.387  0.00  0.00    +0.000 A 
ATOM     19  C   UNL     1       7.775   5.084  15.620  0.00  0.00    +0.000 A 
ATOM     20  C   UNL     1       7.383   4.388  14.471  0.00  0.00    +0.000 A 
ATOM     21  C   UNL     1       6.038   4.373  14.087  0.00  0.00    +0.000 A 
ATOM     22  C   UNL     1       5.113   5.108  14.839  0.00  0.00    +0.000 A 
BRANCH  21  23
ATOM     23  N   UNL     1       5.595   3.617  12.971  0.00  0.00    +0.000 N 
ATOM     24  C   UNL     1       4.363   3.621  12.361  0.00  0.00    +0.000 A 
ATOM     25  N   UNL     1       4.367   2.847  11.301  0.00  0.00    +0.000 NA
ATOM     26  C   UNL     1       5.639   2.364  11.290  0.00  0.00    +0.000 A 
ATOM     27  N   UNL     1       6.422   2.781  12.286  0.00  0.00    +0.000 NA
ENDBRANCH  21  23
ENDBRANCH  16  17
ENDBRANCH  14  16
TORSDOF 3
ENDMDL
MODEL 6
REMARK VINA RESULT:      -7.6      2.097      7.992
REMARK  Name = 
REMARK  3 active torsions:
REMARK  status: ('A' for Active; 'I' for Inactive)
REMARK    1  A    between atoms: N_14  and  C_15
REMARK    2  A    between atoms: C_15  and  C_16
REMARK    3  A    between atoms: C_20  and  N_21
REMARK                            x       y       z     vdW  Elec       q    Type
REMARK                         _______ _______ _______ _____ _____    ______ ____
ROOT
ATOM      1  O   UNL     1       3.060   9.045  17.392  0.00  0.00    +0.000 OA
ATOM      2  C   UNL     1       2.191   8.713  18.177  0.00  0.00    +0.000 C 
ATOM      3  N   UNL     1       0.962   9.364  18.321  0.00  0.00    +0.000 N 
ATOM      4  C   UNL     1       0.657   9.298  19.720  0.00  0.00    +0.000 C 
ATOM      5  C   UNL     1      -0.536   9.212  20.648  0.00  0.00    +0.000 C 
ATOM      6  C   UNL     1      -0.150  10.543  20.131  0.00  0.00    +0.000 C 
ATOM      7  C   UNL     1      -1.302  11.102  19.289  0.00  0.00    +0.000 C 
ATOM      8  C   UNL     1      -0.861  12.142  18.276  0.00  0.00    +0.000 C 
ATOM      9  C   UNL     1      -0.017  13.227  18.930  0.00  0.00    +0.000 C 
ATOM     10  C   UNL     1       1.122  12.646  19.778  0.00  0.00    +0.000 C 
ATOM     11  C   UNL     1       0.628  11.629  20.829  0.00  0.00    +0.000 C 
ATOM     12  C   UNL     1       1.721   8.351  20.246  0.00  0.00    +0.000 C 
ATOM     13  O   UNL     1       2.094   8.289  21.411  0.00  0.00    +0.000 OA
ATOM     14  N   UNL     1       2.262   7.717  19.138  0.00  0.00    +0.000 N 
ATOM     15  H   UNL     1       0.989  10.260  17.851  0.00  0.00    +0.000 HD
ENDROOT
BRANCH  14  16
ATOM     16  C   UNL     1       1.494   6.614  18.562  0.00  0.00    +0.000 C 
BRANCH  16  17
ATOM     17  C   UNL     1       2.183   5.380  18.058  0.00  0.00    +0.000 A 
ATOM     18  C   UNL     1       1.531   4.162  17.878  0.00  0.00    +0.000 A 
ATOM     19  C   UNL     1       2.273   3.008  17.621  0.00  0.00    +0.000 A 
ATOM     20  C   UNL     1       3.669   3.057  17.526  0.00  0.00    +0.000 A 
ATOM     21  C   UNL     1       4.338   4.276  17.671  0.00  0.00    +0.000 A 
ATOM     22  C   UNL     1       3.592   5.425  17.965  0.00  0.00    +0.000 A 
BRANCH  21  23
ATOM     23  N   UNL     1       5.744   4.373  17.507  0.00  0.00    +0.000 N 
ATOM     24  C   UNL     1       6.480   4.350  16.346  0.00  0.00    +0.000 A 
ATOM     25  N   UNL     1       7.752   4.554  16.599  0.00  0.00    +0.000 NA
ATOM     26  C   UNL     1       7.768   4.696  17.953  0.00  0.00    +0.000 A 
ATOM     27  N   UNL     1       6.585   4.576  18.557  0.00  0.00    +0.000 NA
ENDBRANCH  21  23
ENDBRANCH  16  17
ENDBRANCH  14  16
TORSDOF 3
ENDMDL
MODEL 7
REMARK VINA RESULT:      -7.4      2.858      7.757
REMARK  Name = 
REMARK  3 active torsions:
REMARK  status: ('A' for Active; 'I' for Inactive)
REMARK    1  A    between atoms: N_14  and  C_15
REMARK    2  A    between atoms: C_15  and  C_16
REMARK    3  A    between atoms: C_20  and  N_21
REMARK                            x       y       z     vdW  Elec       q    Type
REMARK                         _______ _______ _______ _____ _____    ______ ____
ROOT
ATOM      1  O   UNL     1      -0.553  10.125  22.093  0.00  0.00    +0.000 OA
ATOM      2  C   UNL     1       0.233  10.158  21.165  0.00  0.00    +0.000 C 
ATOM      3  N   UNL     1       1.059  11.247  20.864  0.00  0.00    +0.000 N 
ATOM      4  C   UNL     1       1.129  11.288  19.433  0.00  0.00    +0.000 C 
ATOM      5  C   UNL     1       2.086  11.675  18.326  0.00  0.00    +0.000 C 
ATOM      6  C   UNL     1       1.293  12.746  18.967  0.00  0.00    +0.000 C 
ATOM      7  C   UNL     1       2.248  13.733  19.646  0.00  0.00    +0.000 C 
ATOM      8  C   UNL     1       1.603  14.523  20.770  0.00  0.00    +0.000 C 
ATOM      9  C   UNL     1       0.302  15.168  20.314  0.00  0.00    +0.000 C 
ATOM     10  C   UNL     1      -0.635  14.165  19.627  0.00  0.00    +0.000 C 
ATOM     11  C   UNL     1       0.043  13.418  18.459  0.00  0.00    +0.000 C 
ATOM     12  C   UNL     1       0.460   9.985  19.032  0.00  0.00    +0.000 C 
ATOM     13  O   UNL     1      -0.045   9.761  17.938  0.00  0.00    +0.000 OA
ATOM     14  N   UNL     1       0.407   9.204  20.175  0.00  0.00    +0.000 N 
ATOM     15  H   UNL     1       0.755  12.063  21.379  0.00  0.00    +0.000 HD
ENDROOT
BRANCH  14  16
ATOM     16  C   UNL     1       1.635   8.511  20.564  0.00  0.00    +0.000 C 
BRANCH  16  17
ATOM     17  C   UNL     1       1.944   7.141  20.036  0.00  0.00    +0.000 A 
ATOM     18  C   UNL     1       1.570   5.969  20.689  0.00  0.00    +0.000 A 
ATOM     19  C   UNL     1       2.078   4.741  20.261  0.00  0.00    +0.000 A 
ATOM     20  C   UNL     1       2.952   4.666  19.170  0.00  0.00    +0.000 A 
ATOM     21  C   UNL     1       3.313   5.828  18.481  0.00  0.00    +0.000 A 
ATOM     22  C   UNL     1       2.829   7.061  18.937  0.00  0.00    +0.000 A 
BRANCH  21  23
ATOM     23  N   UNL     1       4.137   5.779  17.327  0.00  0.00    +0.000 N 
ATOM     24  C   UNL     1       4.765   6.812  16.672  0.00  0.00    +0.000 A 
ATOM     25  N   UNL     1       5.511   6.355  15.693  0.00  0.00    +0.000 NA
ATOM     26  C   UNL     1       5.310   5.011  15.768  0.00  0.00    +0.000 A 
ATOM     27  N   UNL     1       4.473   4.607  16.725  0.00  0.00    +0.000 NA
ENDBRANCH  21  23
ENDBRANCH  16  17
ENDBRANCH  14  16
TORSDOF 3
ENDMDL
MODEL 8
REMARK VINA RESULT:      -7.3      2.208      7.856
REMARK  Name = 
REMARK  3 active torsions:
REMARK  status: ('A' for Active; 'I' for Inactive)
REMARK    1  A    between atoms: N_14  and  C_15
REMARK    2  A    between atoms: C_15  and  C_16
REMARK    3  A    between atoms: C_20  and  N_21
REMARK                            x       y       z     vdW  Elec       q    Type
REMARK                         _______ _______ _______ _____ _____    ______ ____
ROOT
ATOM      1  O   UNL     1       2.654   8.622  18.382  0.00  0.00    +0.000 OA
ATOM      2  C   UNL     1       1.838   8.615  19.285  0.00  0.00    +0.000 C 
ATOM      3  N   UNL     1       0.606   9.276  19.245  0.00  0.00    +0.000 N 
ATOM      4  C   UNL     1       0.382   9.746  20.581  0.00  0.00    +0.000 C 
ATOM      5  C   UNL     1      -0.754  10.021  21.542  0.00  0.00    +0.000 C 
ATOM      6  C   UNL     1      -0.424  11.056  20.538  0.00  0.00    +0.000 C 
ATOM      7  C   UNL     1      -1.632  11.259  19.618  0.00  0.00    +0.000 C 
ATOM      8  C   UNL     1      -1.270  11.837  18.262  0.00  0.00    +0.000 C 
ATOM      9  C   UNL     1      -0.412  13.086  18.408  0.00  0.00    +0.000 C 
ATOM     10  C   UNL     1       0.785  12.865  19.342  0.00  0.00    +0.000 C 
ATOM     11  C   UNL     1       0.371  12.323  20.727  0.00  0.00    +0.000 C 
ATOM     12  C   UNL     1       1.492   9.063  21.361  0.00  0.00    +0.000 C 
ATOM     13  O   UNL     1       1.932   9.445  22.439  0.00  0.00    +0.000 OA
ATOM     14  N   UNL     1       1.982   8.056  20.545  0.00  0.00    +0.000 N 
ATOM     15  H   UNL     1       0.589   9.928  18.471  0.00  0.00    +0.000 HD
ENDROOT
BRANCH  14  16
ATOM     16  C   UNL     1       1.204   6.819  20.475  0.00  0.00    +0.000 C 
BRANCH  16  17
ATOM     17  C   UNL     1       1.877   5.501  20.230  0.00  0.00    +0.000 A 
ATOM     18  C   UNL     1       1.468   4.312  20.828  0.00  0.00    +0.000 A 
ATOM     19  C   UNL     1       2.269   3.173  20.731  0.00  0.00    +0.000 A 
ATOM     20  C   UNL     1       3.478   3.202  20.025  0.00  0.00    +0.000 A 
ATOM     21  C   UNL     1       3.889   4.378  19.391  0.00  0.00    +0.000 A 
ATOM     22  C   UNL     1       3.100   5.528  19.521  0.00  0.00    +0.000 A 
BRANCH  21  23
ATOM     23  N   UNL     1       5.071   4.422  18.606  0.00  0.00    +0.000 N 
ATOM     24  C   UNL     1       5.207   4.289  17.244  0.00  0.00    +0.000 A 
ATOM     25  N   UNL     1       6.454   4.475  16.882  0.00  0.00    +0.000 NA
ATOM     26  C   UNL     1       7.076   4.718  18.068  0.00  0.00    +0.000 A 
ATOM     27  N   UNL     1       6.292   4.679  19.147  0.00  0.00    +0.000 NA
ENDBRANCH  21  23
ENDBRANCH  16  17
ENDBRANCH  14  16
TORSDOF 3
ENDMDL
MODEL 9
REMARK VINA RESULT:      -7.2      2.754      8.118
REMARK  Name = 
REMARK  3 active torsions:
REMARK  status: ('A' for Active; 'I' for Inactive)
REMARK    1  A    between atoms: N_14  and  C_15
REMARK    2  A    between atoms: C_15  and  C_16
REMARK    3  A    between atoms: C_20  and  N_21
REMARK                            x       y       z     vdW  Elec       q    Type
REMARK                         _______ _______ _______ _____ _____    ______ ____
ROOT
ATOM      1  O   UNL     1       0.895   8.931  21.171  0.00  0.00    +0.000 OA
ATOM      2  C   UNL     1       0.829   9.656  20.195  0.00  0.00    +0.000 C 
ATOM      3  N   UNL     1       0.973  11.047  20.230  0.00  0.00    +0.000 N 
ATOM      4  C   UNL     1       0.060  11.549  19.245  0.00  0.00    +0.000 C 
ATOM      5  C   UNL     1      -0.083  12.698  18.270  0.00  0.00    +0.000 C 
ATOM      6  C   UNL     1      -0.459  12.930  19.681  0.00  0.00    +0.000 C 
ATOM      7  C   UNL     1       0.452  14.014  20.266  0.00  0.00    +0.000 C 
ATOM      8  C   UNL     1       0.565  13.958  21.779  0.00  0.00    +0.000 C 
ATOM      9  C   UNL     1      -0.809  13.914  22.433  0.00  0.00    +0.000 C 
ATOM     10  C   UNL     1      -1.709  12.831  21.824  0.00  0.00    +0.000 C 
ATOM     11  C   UNL     1      -1.838  12.951  20.291  0.00  0.00    +0.000 C 
ATOM     12  C   UNL     1      -0.391  10.283  18.538  0.00  0.00    +0.000 C 
ATOM     13  O   UNL     1      -1.429  10.168  17.896  0.00  0.00    +0.000 OA
ATOM     14  N   UNL     1       0.507   9.292  18.897  0.00  0.00    +0.000 N 
ATOM     15  H   UNL     1       0.917  11.375  21.185  0.00  0.00    +0.000 HD
ENDROOT
BRANCH  14  16
ATOM     16  C   UNL     1       1.795   9.278  18.204  0.00  0.00    +0.000 C 
BRANCH  16  17
ATOM     17  C   UNL     1       2.579   8.006  18.065  0.00  0.00    +0.000 A 
ATOM     18  C   UNL     1       3.800   7.932  17.399  0.00  0.00    +0.000 A 
ATOM     19  C   UNL     1       4.363   6.686  17.117  0.00  0.00    +0.000 A 
ATOM     20  C   UNL     1       3.723   5.503  17.505  0.00  0.00    +0.000 A 
ATOM     21  C   UNL     1       2.512   5.559  18.203  0.00  0.00    +0.000 A 
ATOM     22  C   UNL     1       1.934   6.810  18.452  0.00  0.00    +0.000 A 
BRANCH  21  23
ATOM     23  N   UNL     1       1.875   4.383  18.676  0.00  0.00    +0.000 N 
ATOM     24  C   UNL     1       1.355   4.126  19.923  0.00  0.00    +0.000 A 
ATOM     25  N   UNL     1       0.768   2.952  19.948  0.00  0.00    +0.000 NA
ATOM     26  C   UNL     1       0.954   2.499  18.678  0.00  0.00    +0.000 A 
ATOM     27  N   UNL     1       1.634   3.314  17.870  0.00  0.00    +0.000 NA
ENDBRANCH  21  23
ENDBRANCH  16  17
ENDBRANCH  14  16
TORSDOF 3
ENDMDL
