MODEL 1
REMARK VINA RESULT:      -9.5      0.000      0.000
REMARK  Name = 
REMARK  4 active torsions:
REMARK  status: ('A' for Active; 'I' for Inactive)
REMARK    1  A    between atoms: C_2  and  C_16
REMARK    2  A    between atoms: N_3  and  C_4
REMARK    3  A    between atoms: C_8  and  C_9
REMARK    4  A    between atoms: C_20  and  N_21
REMARK                            x       y       z     vdW  Elec       q    Type
REMARK                         _______ _______ _______ _____ _____    ______ ____
ROOT
ATOM      1  O   UNL     1       2.149   9.122  17.284  0.00  0.00    +0.000 OA
ATOM      2  C   UNL     1       2.065   8.533  18.357  0.00  0.00    +0.000 C 
ATOM      3  N   UNL     1       1.288   8.913  19.443  0.00  0.00    +0.000 N 
ATOM      4  H   UNL     1       1.483   8.477  20.338  0.00  0.00    +0.000 HD
ENDROOT
BRANCH   3   5
ATOM      5  C   UNL     1       0.366   9.991  19.445  0.00  0.00    +0.000 A 
ATOM      6  C   UNL     1       0.448  11.031  20.379  0.00  0.00    +0.000 A 
ATOM      7  C   UNL     1      -0.498  12.053  20.411  0.00  0.00    +0.000 A 
ATOM      8  C   UNL     1      -1.516  12.076  19.475  0.00  0.00    +0.000 A 
ATOM      9  C   UNL     1      -1.569  11.092  18.483  0.00  0.00    +0.000 A 
ATOM     10  C   UNL     1      -0.645  10.033  18.476  0.00  0.00    +0.000 A 
BRANCH   9  11
ATOM     11  C   UNL     1      -2.598  11.194  17.438  0.00  0.00    +0.000 A 
ATOM     12  N   UNL     1      -3.806  11.621  17.591  0.00  0.00    +0.000 NA
ATOM     13  O   UNL     1      -4.401  11.515  16.288  0.00  0.00    +0.000 OA
ATOM     14  C   UNL     1      -3.439  10.975  15.468  0.00  0.00    +0.000 A 
ATOM     15  O   UNL     1      -3.582  10.685  14.293  0.00  0.00    +0.000 OA
ATOM     16  N   UNL     1      -2.321  10.801  16.188  0.00  0.00    +0.000 N 
ATOM     17  H   UNL     1      -1.495  10.363  15.823  0.00  0.00    +0.000 HD
ENDBRANCH   9  11
ENDBRANCH   3   5
BRANCH   2  18
ATOM     18  C   UNL     1       2.909   7.324  18.522  0.00  0.00    +0.000 A 
ATOM     19  C   UNL     1       2.796   6.476  19.627  0.00  0.00    +0.000 A 
ATOM     20  C   UNL     1       3.591   5.330  19.699  0.00  0.00    +0.000 A 
ATOM     21  C   UNL     1       4.490   5.028  18.672  0.00  0.00    +0.000 A 
ATOM     22  C   UNL     1       4.577   5.847  17.542  0.00  0.00    +0.000 A 
ATOM     23  C   UNL     1       3.785   6.994  17.473  0.00  0.00    +0.000 A 
BRANCH  22  24
ATOM     24  N   UNL     1       5.428   5.512  16.451  0.00  0.00    +0.000 N 
ATOM     25  C   UNL     1       5.072   4.305  15.699  0.00  0.00    +0.000 C 
ATOM     26  C   UNL     1       5.716   4.275  14.327  0.00  0.00    +0.000 C 
ATOM     27  C   UNL     1       7.203   4.475  14.505  0.00  0.00    +0.000 C 
ATOM     28  N   UNL     1       7.475   5.628  15.321  0.00  0.00    +0.000 N 
ATOM     29  C   UNL     1       6.690   6.081  16.343  0.00  0.00    +0.000 C 
ATOM     30  O   UNL     1       7.124   6.990  17.048  0.00  0.00    +0.000 OA
ATOM     31  H   UNL     1       8.390   6.060  15.295  0.00  0.00    +0.000 HD
ENDBRANCH  22  24
ENDBRANCH   2  18
TORSDOF 4
ENDMDL
MODEL 2
REMARK VINA RESULT:      -9.3      0.811      1.210
REMARK  Name = 
REMARK  4 active torsions:
REMARK  status: ('A' for Active; 'I' for Inactive)
REMARK    1  A    between atoms: C_2  and  C_16
REMARK    2  A    between atoms: N_3  and  C_4
REMARK    3  A    between atoms: C_8  and  C_9
REMARK    4  A    between atoms: C_20  and  N_21
REMARK                            x       y       z     vdW  Elec       q    Type
REMARK                         _______ _______ _______ _____ _____    ______ ____
ROOT
ATOM      1  O   UNL     1       1.837   9.316  17.311  0.00  0.00    +0.000 OA
ATOM      2  C   UNL     1       1.774   8.816  18.429  0.00  0.00    +0.000 C 
ATOM      3  N   UNL     1       1.061   9.314  19.511  0.00  0.00    +0.000 N 
ATOM      4  H   UNL     1       1.275   8.940  20.429  0.00  0.00    +0.000 HD
ENDROOT
BRANCH   3   5
ATOM      5  C   UNL     1       0.187  10.430  19.464  0.00  0.00    +0.000 A 
ATOM      6  C   UNL     1       0.455  11.609  20.171  0.00  0.00    +0.000 A 
ATOM      7  C   UNL     1      -0.440  12.676  20.166  0.00  0.00    +0.000 A 
ATOM      8  C   UNL     1      -1.598  12.599  19.414  0.00  0.00    +0.000 A 
ATOM      9  C   UNL     1      -1.845  11.463  18.636  0.00  0.00    +0.000 A 
ATOM     10  C   UNL     1      -0.970  10.365  18.676  0.00  0.00    +0.000 A 
BRANCH   9  11
ATOM     11  C   UNL     1      -3.031  11.446  17.766  0.00  0.00    +0.000 A 
ATOM     12  N   UNL     1      -3.109  10.930  16.587  0.00  0.00    +0.000 NA
ATOM     13  O   UNL     1      -4.458  11.181  16.164  0.00  0.00    +0.000 OA
ATOM     14  C   UNL     1      -5.055  11.887  17.182  0.00  0.00    +0.000 A 
ATOM     15  O   UNL     1      -6.192  12.329  17.174  0.00  0.00    +0.000 OA
ATOM     16  N   UNL     1      -4.166  12.026  18.176  0.00  0.00    +0.000 N 
ATOM     17  H   UNL     1      -4.350  12.559  19.007  0.00  0.00    +0.000 HD
ENDBRANCH   9  11
ENDBRANCH   3   5
BRANCH   2  18
ATOM     18  C   UNL     1       2.572   7.585  18.656  0.00  0.00    +0.000 A 
ATOM     19  C   UNL     1       2.355   6.742  19.749  0.00  0.00    +0.000 A 
ATOM     20  C   UNL     1       3.112   5.577  19.879  0.00  0.00    +0.000 A 
ATOM     21  C   UNL     1       4.077   5.250  18.922  0.00  0.00    +0.000 A 
ATOM     22  C   UNL     1       4.271   6.066  17.803  0.00  0.00    +0.000 A 
ATOM     23  C   UNL     1       3.515   7.233  17.676  0.00  0.00    +0.000 A 
BRANCH  22  24
ATOM     24  N   UNL     1       5.192   5.707  16.779  0.00  0.00    +0.000 N 
ATOM     25  C   UNL     1       4.868   4.505  16.007  0.00  0.00    +0.000 C 
ATOM     26  C   UNL     1       5.610   4.455  14.686  0.00  0.00    +0.000 C 
ATOM     27  C   UNL     1       7.084   4.625  14.973  0.00  0.00    +0.000 C 
ATOM     28  N   UNL     1       7.318   5.777  15.803  0.00  0.00    +0.000 N 
ATOM     29  C   UNL     1       6.470   6.250  16.763  0.00  0.00    +0.000 C 
ATOM     30  O   UNL     1       6.870   7.154  17.494  0.00  0.00    +0.000 OA
ATOM     31  H   UNL     1       8.242   6.189  15.842  0.00  0.00    +0.000 HD
ENDBRANCH  22  24
ENDBRANCH   2  18
TORSDOF 4
ENDMDL
MODEL 3
REMARK VINA RESULT:      -9.1      3.399      9.323
REMARK  Name = 
REMARK  4 active torsions:
REMARK  status: ('A' for Active; 'I' for Inactive)
REMARK    1  A    between atoms: C_2  and  C_16
REMARK    2  A    between atoms: N_3  and  C_4
REMARK    3  A    between atoms: C_8  and  C_9
REMARK    4  A    between atoms: C_20  and  N_21
REMARK                            x       y       z     vdW  Elec       q    Type
REMARK                         _______ _______ _______ _____ _____    ______ ____
ROOT
ATOM      1  O   UNL     1       1.873   8.293  19.008  0.00  0.00    +0.000 OA
ATOM      2  C   UNL     1       1.484   8.022  20.139  0.00  0.00    +0.000 C 
ATOM      3  N   UNL     1       1.572   6.785  20.763  0.00  0.00    +0.000 N 
ATOM      4  H   UNL     1       1.013   6.636  21.596  0.00  0.00    +0.000 HD
ENDROOT
BRANCH   3   5
ATOM      5  C   UNL     1       2.239   5.652  20.230  0.00  0.00    +0.000 A 
ATOM      6  C   UNL     1       1.576   4.438  20.012  0.00  0.00    +0.000 A 
ATOM      7  C   UNL     1       2.254   3.315  19.546  0.00  0.00    +0.000 A 
ATOM      8  C   UNL     1       3.601   3.401  19.243  0.00  0.00    +0.000 A 
ATOM      9  C   UNL     1       4.264   4.625  19.376  0.00  0.00    +0.000 A 
ATOM     10  C   UNL     1       3.596   5.748  19.892  0.00  0.00    +0.000 A 
BRANCH   9  11
ATOM     11  C   UNL     1       5.669   4.718  18.952  0.00  0.00    +0.000 A 
ATOM     12  N   UNL     1       6.654   5.170  19.653  0.00  0.00    +0.000 NA
ATOM     13  O   UNL     1       7.799   5.057  18.794  0.00  0.00    +0.000 OA
ATOM     14  C   UNL     1       7.337   4.555  17.600  0.00  0.00    +0.000 A 
ATOM     15  O   UNL     1       8.005   4.365  16.599  0.00  0.00    +0.000 OA
ATOM     16  N   UNL     1       6.020   4.330  17.719  0.00  0.00    +0.000 N 
ATOM     17  H   UNL     1       5.445   4.018  16.958  0.00  0.00    +0.000 HD
ENDBRANCH   9  11
ENDBRANCH   3   5
BRANCH   2  18
ATOM     18  C   UNL     1       0.817   9.111  20.894  0.00  0.00    +0.000 A 
ATOM     19  C   UNL     1       0.193   8.896  22.125  0.00  0.00    +0.000 A 
ATOM     20  C   UNL     1      -0.379   9.974  22.804  0.00  0.00    +0.000 A 
ATOM     21  C   UNL     1      -0.323  11.262  22.261  0.00  0.00    +0.000 A 
ATOM     22  C   UNL     1       0.338  11.492  21.050  0.00  0.00    +0.000 A 
ATOM     23  C   UNL     1       0.905  10.413  20.371  0.00  0.00    +0.000 A 
BRANCH  22  24
ATOM     24  N   UNL     1       0.473  12.808  20.522  0.00  0.00    +0.000 N 
ATOM     25  C   UNL     1      -0.483  13.188  19.479  0.00  0.00    +0.000 C 
ATOM     26  C   UNL     1      -0.576  14.692  19.309  0.00  0.00    +0.000 C 
ATOM     27  C   UNL     1       0.822  15.223  19.089  0.00  0.00    +0.000 C 
ATOM     28  N   UNL     1       1.722  14.742  20.103  0.00  0.00    +0.000 N 
ATOM     29  C   UNL     1       1.641  13.529  20.727  0.00  0.00    +0.000 C 
ATOM     30  O   UNL     1       2.566  13.195  21.464  0.00  0.00    +0.000 OA
ATOM     31  H   UNL     1       2.598  15.222  20.268  0.00  0.00    +0.000 HD
ENDBRANCH  22  24
ENDBRANCH   2  18
TORSDOF 4
ENDMDL
MODEL 4
REMARK VINA RESULT:      -9.1      2.440      9.287
REMARK  Name = 
REMARK  4 active torsions:
REMARK  status: ('A' for Active; 'I' for Inactive)
REMARK    1  A    between atoms: C_2  and  C_16
REMARK    2  A    between atoms: N_3  and  C_4
REMARK    3  A    between atoms: C_8  and  C_9
REMARK    4  A    between atoms: C_20  and  N_21
REMARK                            x       y       z     vdW  Elec       q    Type
REMARK                         _______ _______ _______ _____ _____    ______ ____
ROOT
ATOM      1  O   UNL     1       2.223   7.700  18.763  0.00  0.00    +0.000 OA
ATOM      2  C   UNL     1       1.894   7.521  19.930  0.00  0.00    +0.000 C 
ATOM      3  N   UNL     1       2.079   6.359  20.666  0.00  0.00    +0.000 N 
ATOM      4  H   UNL     1       1.561   6.262  21.533  0.00  0.00    +0.000 HD
ENDROOT
BRANCH   3   5
ATOM      5  C   UNL     1       2.791   5.217  20.216  0.00  0.00    +0.000 A 
ATOM      6  C   UNL     1       2.322   3.917  20.441  0.00  0.00    +0.000 A 
ATOM      7  C   UNL     1       3.059   2.802  20.049  0.00  0.00    +0.000 A 
ATOM      8  C   UNL     1       4.258   2.972  19.380  0.00  0.00    +0.000 A 
ATOM      9  C   UNL     1       4.705   4.261  19.073  0.00  0.00    +0.000 A 
ATOM     10  C   UNL     1       3.989   5.388  19.509  0.00  0.00    +0.000 A 
BRANCH   9  11
ATOM     11  C   UNL     1       5.929   4.414  18.273  0.00  0.00    +0.000 A 
ATOM     12  N   UNL     1       7.129   4.554  18.726  0.00  0.00    +0.000 NA
ATOM     13  O   UNL     1       7.953   4.671  17.555  0.00  0.00    +0.000 OA
ATOM     14  C   UNL     1       7.100   4.618  16.478  0.00  0.00    +0.000 A 
ATOM     15  O   UNL     1       7.420   4.735  15.308  0.00  0.00    +0.000 OA
ATOM     16  N   UNL     1       5.853   4.438  16.936  0.00  0.00    +0.000 N 
ATOM     17  H   UNL     1       5.045   4.427  16.341  0.00  0.00    +0.000 HD
ENDBRANCH   9  11
ENDBRANCH   3   5
BRANCH   2  18
ATOM     18  C   UNL     1       1.193   8.642  20.605  0.00  0.00    +0.000 A 
ATOM     19  C   UNL     1       0.791   8.578  21.942  0.00  0.00    +0.000 A 
ATOM     20  C   UNL     1       0.175   9.684  22.529  0.00  0.00    +0.000 A 
ATOM     21  C   UNL     1      -0.036  10.851  21.788  0.00  0.00    +0.000 A 
ATOM     22  C   UNL     1       0.402  10.939  20.463  0.00  0.00    +0.000 A 
ATOM     23  C   UNL     1       1.015   9.830  19.877  0.00  0.00    +0.000 A 
BRANCH  22  24
ATOM     24  N   UNL     1       0.268  12.145  19.719  0.00  0.00    +0.000 N 
ATOM     25  C   UNL     1       1.137  13.254  20.122  0.00  0.00    +0.000 C 
ATOM     26  C   UNL     1       1.270  14.301  19.033  0.00  0.00    +0.000 C 
ATOM     27  C   UNL     1      -0.121  14.725  18.623  0.00  0.00    +0.000 C 
ATOM     28  N   UNL     1      -0.942  13.582  18.323  0.00  0.00    +0.000 N 
ATOM     29  C   UNL     1      -0.849  12.359  18.922  0.00  0.00    +0.000 C 
ATOM     30  O   UNL     1      -1.714  11.523  18.669  0.00  0.00    +0.000 OA
ATOM     31  H   UNL     1      -1.780  13.696  17.767  0.00  0.00    +0.000 HD
ENDBRANCH  22  24
ENDBRANCH   2  18
TORSDOF 4
ENDMDL
MODEL 5
REMARK VINA RESULT:      -9.0      1.547      2.021
REMARK  Name = 
REMARK  4 active torsions:
REMARK  status: ('A' for Active; 'I' for Inactive)
REMARK    1  A    between atoms: C_2  and  C_16
REMARK    2  A    between atoms: N_3  and  C_4
REMARK    3  A    between atoms: C_8  and  C_9
REMARK    4  A    between atoms: C_20  and  N_21
REMARK                            x       y       z     vdW  Elec       q    Type
REMARK                         _______ _______ _______ _____ _____    ______ ____
ROOT
ATOM      1  O   UNL     1       2.217   8.884  17.365  0.00  0.00    +0.000 OA
ATOM      2  C   UNL     1       1.899   8.541  18.498  0.00  0.00    +0.000 C 
ATOM      3  N   UNL     1       1.086   9.250  19.373  0.00  0.00    +0.000 N 
ATOM      4  H   UNL     1       1.089   8.974  20.349  0.00  0.00    +0.000 HD
ENDROOT
BRANCH   3   5
ATOM      5  C   UNL     1       0.391  10.444  19.049  0.00  0.00    +0.000 A 
ATOM      6  C   UNL     1       0.926  11.708  19.323  0.00  0.00    +0.000 A 
ATOM      7  C   UNL     1       0.210  12.872  19.057  0.00  0.00    +0.000 A 
ATOM      8  C   UNL     1      -1.038  12.791  18.465  0.00  0.00    +0.000 A 
ATOM      9  C   UNL     1      -1.556  11.542  18.108  0.00  0.00    +0.000 A 
ATOM     10  C   UNL     1      -0.858  10.363  18.419  0.00  0.00    +0.000 A 
BRANCH   9  11
ATOM     11  C   UNL     1      -2.838  11.487  17.389  0.00  0.00    +0.000 A 
ATOM     12  N   UNL     1      -3.038  10.990  16.216  0.00  0.00    +0.000 NA
ATOM     13  O   UNL     1      -4.439  11.187  15.967  0.00  0.00    +0.000 OA
ATOM     14  C   UNL     1      -4.936  11.847  17.067  0.00  0.00    +0.000 A 
ATOM     15  O   UNL     1      -6.082  12.236  17.208  0.00  0.00    +0.000 OA
ATOM     16  N   UNL     1      -3.938  12.007  17.948  0.00  0.00    +0.000 N 
ATOM     17  H   UNL     1      -4.041  12.515  18.808  0.00  0.00    +0.000 HD
ENDBRANCH   9  11
ENDBRANCH   3   5
BRANCH   2  18
ATOM     18  C   UNL     1       2.473   7.266  18.996  0.00  0.00    +0.000 A 
ATOM     19  C   UNL     1       1.939   6.580  20.090  0.00  0.00    +0.000 A 
ATOM     20  C   UNL     1       2.501   5.363  20.479  0.00  0.00    +0.000 A 
ATOM     21  C   UNL     1       3.587   4.830  19.779  0.00  0.00    +0.000 A 
ATOM     22  C   UNL     1       4.101   5.489  18.657  0.00  0.00    +0.000 A 
ATOM     23  C   UNL     1       3.539   6.707  18.271  0.00  0.00    +0.000 A 
BRANCH  22  24
ATOM     24  N   UNL     1       5.153   4.921  17.885  0.00  0.00    +0.000 N 
ATOM     25  C   UNL     1       6.458   5.581  17.986  0.00  0.00    +0.000 C 
ATOM     26  C   UNL     1       7.590   4.681  17.530  0.00  0.00    +0.000 C 
ATOM     27  C   UNL     1       7.257   4.181  16.143  0.00  0.00    +0.000 C 
ATOM     28  N   UNL     1       5.932   3.623  16.101  0.00  0.00    +0.000 N 
ATOM     29  C   UNL     1       4.869   4.042  16.850  0.00  0.00    +0.000 C 
ATOM     30  O   UNL     1       3.763   3.570  16.599  0.00  0.00    +0.000 OA
ATOM     31  H   UNL     1       5.673   2.997  15.348  0.00  0.00    +0.000 HD
ENDBRANCH  22  24
ENDBRANCH   2  18
TORSDOF 4
ENDMDL
MODEL 6
REMARK VINA RESULT:      -9.0      1.439      1.749
REMARK  Name = 
REMARK  4 active torsions:
REMARK  status: ('A' for Active; 'I' for Inactive)
REMARK    1  A    between atoms: C_2  and  C_16
REMARK    2  A    between atoms: N_3  and  C_4
REMARK    3  A    between atoms: C_8  and  C_9
REMARK    4  A    between atoms: C_20  and  N_21
REMARK                            x       y       z     vdW  Elec       q    Type
REMARK                         _______ _______ _______ _____ _____    ______ ____
ROOT
ATOM      1  O   UNL     1       2.117   8.730  18.014  0.00  0.00    +0.000 OA
ATOM      2  C   UNL     1       1.787   8.253  19.095  0.00  0.00    +0.000 C 
ATOM      3  N   UNL     1       0.933   8.834  20.022  0.00  0.00    +0.000 N 
ATOM      4  H   UNL     1       0.925   8.452  20.962  0.00  0.00    +0.000 HD
ENDROOT
BRANCH   3   5
ATOM      5  C   UNL     1       0.204  10.034  19.815  0.00  0.00    +0.000 A 
ATOM      6  C   UNL     1       0.479  11.201  20.538  0.00  0.00    +0.000 A 
ATOM      7  C   UNL     1      -0.282  12.354  20.371  0.00  0.00    +0.000 A 
ATOM      8  C   UNL     1      -1.304  12.374  19.438  0.00  0.00    +0.000 A 
ATOM      9  C   UNL     1      -1.543  11.246  18.647  0.00  0.00    +0.000 A 
ATOM     10  C   UNL     1      -0.809  10.064  18.847  0.00  0.00    +0.000 A 
BRANCH   9  11
ATOM     11  C   UNL     1      -2.566  11.324  17.594  0.00  0.00    +0.000 A 
ATOM     12  N   UNL     1      -3.786  11.718  17.737  0.00  0.00    +0.000 NA
ATOM     13  O   UNL     1      -4.366  11.599  16.428  0.00  0.00    +0.000 OA
ATOM     14  C   UNL     1      -3.382  11.088  15.616  0.00  0.00    +0.000 A 
ATOM     15  O   UNL     1      -3.508  10.798  14.438  0.00  0.00    +0.000 OA
ATOM     16  N   UNL     1      -2.267  10.942  16.346  0.00  0.00    +0.000 N 
ATOM     17  H   UNL     1      -1.426  10.528  15.986  0.00  0.00    +0.000 HD
ENDBRANCH   9  11
ENDBRANCH   3   5
BRANCH   2  18
ATOM     18  C   UNL     1       2.395   6.950  19.463  0.00  0.00    +0.000 A 
ATOM     19  C   UNL     1       1.871   6.137  20.471  0.00  0.00    +0.000 A 
ATOM     20  C   UNL     1       2.466   4.902  20.738  0.00  0.00    +0.000 A 
ATOM     21  C   UNL     1       3.576   4.478  20.000  0.00  0.00    +0.000 A 
ATOM     22  C   UNL     1       4.080   5.267  18.960  0.00  0.00    +0.000 A 
ATOM     23  C   UNL     1       3.486   6.503  18.698  0.00  0.00    +0.000 A 
BRANCH  22  24
ATOM     24  N   UNL     1       5.157   4.816  18.147  0.00  0.00    +0.000 N 
ATOM     25  C   UNL     1       6.442   5.495  18.338  0.00  0.00    +0.000 C 
ATOM     26  C   UNL     1       7.604   4.682  17.803  0.00  0.00    +0.000 C 
ATOM     27  C   UNL     1       7.301   4.326  16.366  0.00  0.00    +0.000 C 
ATOM     28  N   UNL     1       5.993   3.740  16.244  0.00  0.00    +0.000 N 
ATOM     29  C   UNL     1       4.911   4.046  17.018  0.00  0.00    +0.000 C 
ATOM     30  O   UNL     1       3.821   3.574  16.702  0.00  0.00    +0.000 OA
ATOM     31  H   UNL     1       5.760   3.193  15.424  0.00  0.00    +0.000 HD
ENDBRANCH  22  24
ENDBRANCH   2  18
TORSDOF 4
ENDMDL
MODEL 7
REMARK VINA RESULT:      -8.9      2.707      9.257
REMARK  Name = 
REMARK  4 active torsions:
REMARK  status: ('A' for Active; 'I' for Inactive)
REMARK    1  A    between atoms: C_2  and  C_16
REMARK    2  A    between atoms: N_3  and  C_4
REMARK    3  A    between atoms: C_8  and  C_9
REMARK    4  A    between atoms: C_20  and  N_21
REMARK                            x       y       z     vdW  Elec       q    Type
REMARK                         _______ _______ _______ _____ _____    ______ ____
ROOT
ATOM      1  O   UNL     1       2.195   7.801  19.230  0.00  0.00    +0.000 OA
ATOM      2  C   UNL     1       1.667   7.610  20.320  0.00  0.00    +0.000 C 
ATOM      3  N   UNL     1       1.632   6.409  21.016  0.00  0.00    +0.000 N 
ATOM      4  H   UNL     1       0.974   6.327  21.784  0.00  0.00    +0.000 HD
ENDROOT
BRANCH   3   5
ATOM      5  C   UNL     1       2.310   5.225  20.627  0.00  0.00    +0.000 A 
ATOM      6  C   UNL     1       2.009   3.980  21.193  0.00  0.00    +0.000 A 
ATOM      7  C   UNL     1       2.722   2.835  20.849  0.00  0.00    +0.000 A 
ATOM      8  C   UNL     1       3.719   2.908  19.892  0.00  0.00    +0.000 A 
ATOM      9  C   UNL     1       3.981   4.125  19.255  0.00  0.00    +0.000 A 
ATOM     10  C   UNL     1       3.297   5.292  19.634  0.00  0.00    +0.000 A 
BRANCH   9  11
ATOM     11  C   UNL     1       4.974   4.157  18.171  0.00  0.00    +0.000 A 
ATOM     12  N   UNL     1       4.735   4.053  16.908  0.00  0.00    +0.000 NA
ATOM     13  O   UNL     1       6.024   4.135  16.281  0.00  0.00    +0.000 OA
ATOM     14  C   UNL     1       6.941   4.250  17.300  0.00  0.00    +0.000 A 
ATOM     15  O   UNL     1       8.152   4.295  17.169  0.00  0.00    +0.000 OA
ATOM     16  N   UNL     1       6.275   4.284  18.463  0.00  0.00    +0.000 N 
ATOM     17  H   UNL     1       6.732   4.305  19.357  0.00  0.00    +0.000 HD
ENDBRANCH   9  11
ENDBRANCH   3   5
BRANCH   2  18
ATOM     18  C   UNL     1       0.961   8.763  20.932  0.00  0.00    +0.000 A 
ATOM     19  C   UNL     1       0.451   8.726  22.232  0.00  0.00    +0.000 A 
ATOM     20  C   UNL     1      -0.164   9.862  22.762  0.00  0.00    +0.000 A 
ATOM     21  C   UNL     1      -0.266  11.031  22.002  0.00  0.00    +0.000 A 
ATOM     22  C   UNL     1       0.280  11.090  20.715  0.00  0.00    +0.000 A 
ATOM     23  C   UNL     1       0.892   9.952  20.186  0.00  0.00    +0.000 A 
BRANCH  22  24
ATOM     24  N   UNL     1       0.256  12.295  19.958  0.00  0.00    +0.000 N 
ATOM     25  C   UNL     1       1.225  13.324  20.347  0.00  0.00    +0.000 C 
ATOM     26  C   UNL     1       1.452  14.341  19.246  0.00  0.00    +0.000 C 
ATOM     27  C   UNL     1       0.104  14.887  18.832  0.00  0.00    +0.000 C 
ATOM     28  N   UNL     1      -0.818  13.821  18.546  0.00  0.00    +0.000 N 
ATOM     29  C   UNL     1      -0.837  12.601  19.160  0.00  0.00    +0.000 C 
ATOM     30  O   UNL     1      -1.776  11.846  18.917  0.00  0.00    +0.000 OA
ATOM     31  H   UNL     1      -1.644  14.005  17.990  0.00  0.00    +0.000 HD
ENDBRANCH  22  24
ENDBRANCH   2  18
TORSDOF 4
ENDMDL
MODEL 8
REMARK VINA RESULT:      -8.9      2.181      2.683
REMARK  Name = 
REMARK  4 active torsions:
REMARK  status: ('A' for Active; 'I' for Inactive)
REMARK    1  A    between atoms: C_2  and  C_16
REMARK    2  A    between atoms: N_3  and  C_4
REMARK    3  A    between atoms: C_8  and  C_9
REMARK    4  A    between atoms: C_20  and  N_21
REMARK                            x       y       z     vdW  Elec       q    Type
REMARK                         _______ _______ _______ _____ _____    ______ ____
ROOT
ATOM      1  O   UNL     1       0.669   5.494  20.638  0.00  0.00    +0.000 OA
ATOM      2  C   UNL     1       1.809   5.889  20.416  0.00  0.00    +0.000 C 
ATOM      3  N   UNL     1       2.238   7.210  20.430  0.00  0.00    +0.000 N 
ATOM      4  H   UNL     1       3.136   7.418  20.009  0.00  0.00    +0.000 HD
ENDROOT
BRANCH   3   5
ATOM      5  C   UNL     1       1.442   8.318  20.821  0.00  0.00    +0.000 A 
ATOM      6  C   UNL     1       1.292   8.682  22.165  0.00  0.00    +0.000 A 
ATOM      7  C   UNL     1       0.460   9.733  22.542  0.00  0.00    +0.000 A 
ATOM      8  C   UNL     1      -0.199  10.470  21.574  0.00  0.00    +0.000 A 
ATOM      9  C   UNL     1       0.002  10.175  20.222  0.00  0.00    +0.000 A 
ATOM     10  C   UNL     1       0.802   9.085  19.839  0.00  0.00    +0.000 A 
BRANCH   9  11
ATOM     11  C   UNL     1      -0.628  11.035  19.209  0.00  0.00    +0.000 A 
ATOM     12  N   UNL     1      -0.333  12.265  18.956  0.00  0.00    +0.000 NA
ATOM     13  O   UNL     1      -1.229  12.649  17.901  0.00  0.00    +0.000 OA
ATOM     14  C   UNL     1      -2.024  11.554  17.654  0.00  0.00    +0.000 A 
ATOM     15  O   UNL     1      -2.945  11.506  16.857  0.00  0.00    +0.000 OA
ATOM     16  N   UNL     1      -1.627  10.556  18.456  0.00  0.00    +0.000 N 
ATOM     17  H   UNL     1      -2.095   9.669  18.502  0.00  0.00    +0.000 HD
ENDBRANCH   9  11
ENDBRANCH   3   5
BRANCH   2  18
ATOM     18  C   UNL     1       2.814   4.858  20.057  0.00  0.00    +0.000 A 
ATOM     19  C   UNL     1       2.864   3.610  20.683  0.00  0.00    +0.000 A 
ATOM     20  C   UNL     1       3.808   2.669  20.267  0.00  0.00    +0.000 A 
ATOM     21  C   UNL     1       4.695   2.969  19.228  0.00  0.00    +0.000 A 
ATOM     22  C   UNL     1       4.623   4.200  18.567  0.00  0.00    +0.000 A 
ATOM     23  C   UNL     1       3.681   5.140  18.988  0.00  0.00    +0.000 A 
BRANCH  22  24
ATOM     24  N   UNL     1       5.463   4.491  17.456  0.00  0.00    +0.000 N 
ATOM     25  C   UNL     1       4.890   4.249  16.130  0.00  0.00    +0.000 C 
ATOM     26  C   UNL     1       5.636   4.994  15.040  0.00  0.00    +0.000 C 
ATOM     27  C   UNL     1       7.101   4.642  15.153  0.00  0.00    +0.000 C 
ATOM     28  N   UNL     1       7.573   4.825  16.500  0.00  0.00    +0.000 N 
ATOM     29  C   UNL     1       6.832   4.645  17.632  0.00  0.00    +0.000 C 
ATOM     30  O   UNL     1       7.410   4.693  18.716  0.00  0.00    +0.000 OA
ATOM     31  H   UNL     1       8.566   4.915  16.678  0.00  0.00    +0.000 HD
ENDBRANCH  22  24
ENDBRANCH   2  18
TORSDOF 4
ENDMDL
MODEL 9
REMARK VINA RESULT:      -8.8      1.672      2.059
REMARK  Name = 
REMARK  4 active torsions:
REMARK  status: ('A' for Active; 'I' for Inactive)
REMARK    1  A    between atoms: C_2  and  C_16
REMARK    2  A    between atoms: N_3  and  C_4
REMARK    3  A    between atoms: C_8  and  C_9
REMARK    4  A    between atoms: C_20  and  N_21
REMARK                            x       y       z     vdW  Elec       q    Type
REMARK                         _______ _______ _______ _____ _____    ______ ____
ROOT
ATOM      1  O   UNL     1       1.074   8.407  21.127  0.00  0.00    +0.000 OA
ATOM      2  C   UNL     1       1.473   8.026  20.031  0.00  0.00    +0.000 C 
ATOM      3  N   UNL     1       1.284   8.674  18.818  0.00  0.00    +0.000 N 
ATOM      4  H   UNL     1       1.458   8.146  17.970  0.00  0.00    +0.000 HD
ENDROOT
BRANCH   3   5
ATOM      5  C   UNL     1       0.691   9.954  18.664  0.00  0.00    +0.000 A 
ATOM      6  C   UNL     1       1.401  11.133  18.922  0.00  0.00    +0.000 A 
ATOM      7  C   UNL     1       0.792  12.381  18.827  0.00  0.00    +0.000 A 
ATOM      8  C   UNL     1      -0.529  12.473  18.425  0.00  0.00    +0.000 A 
ATOM      9  C   UNL     1      -1.232  11.314  18.085  0.00  0.00    +0.000 A 
ATOM     10  C   UNL     1      -0.636  10.049  18.225  0.00  0.00    +0.000 A 
BRANCH   9  11
ATOM     11  C   UNL     1      -2.601  11.444  17.563  0.00  0.00    +0.000 A 
ATOM     12  N   UNL     1      -3.001  11.142  16.375  0.00  0.00    +0.000 NA
ATOM     13  O   UNL     1      -4.402  11.457  16.367  0.00  0.00    +0.000 OA
ATOM     14  C   UNL     1      -4.688  11.971  17.610  0.00  0.00    +0.000 A 
ATOM     15  O   UNL     1      -5.768  12.403  17.973  0.00  0.00    +0.000 OA
ATOM     16  N   UNL     1      -3.568  11.938  18.347  0.00  0.00    +0.000 N 
ATOM     17  H   UNL     1      -3.510  12.316  19.275  0.00  0.00    +0.000 HD
ENDBRANCH   9  11
ENDBRANCH   3   5
BRANCH   2  18
ATOM     18  C   UNL     1       2.189   6.727  19.997  0.00  0.00    +0.000 A 
ATOM     19  C   UNL     1       1.760   5.615  20.726  0.00  0.00    +0.000 A 
ATOM     20  C   UNL     1       2.455   4.409  20.614  0.00  0.00    +0.000 A 
ATOM     21  C   UNL     1       3.570   4.311  19.776  0.00  0.00    +0.000 A 
ATOM     22  C   UNL     1       3.980   5.407  19.010  0.00  0.00    +0.000 A 
ATOM     23  C   UNL     1       3.286   6.612  19.126  0.00  0.00    +0.000 A 
BRANCH  22  24
ATOM     24  N   UNL     1       5.063   5.302  18.092  0.00  0.00    +0.000 N 
ATOM     25  C   UNL     1       4.713   4.934  16.717  0.00  0.00    +0.000 C 
ATOM     26  C   UNL     1       5.811   5.288  15.733  0.00  0.00    +0.000 C 
ATOM     27  C   UNL     1       7.098   4.671  16.229  0.00  0.00    +0.000 C 
ATOM     28  N   UNL     1       7.334   5.006  17.608  0.00  0.00    +0.000 N 
ATOM     29  C   UNL     1       6.368   5.202  18.554  0.00  0.00    +0.000 C 
ATOM     30  O   UNL     1       6.722   5.336  19.723  0.00  0.00    +0.000 OA
ATOM     31  H   UNL     1       8.266   4.923  17.995  0.00  0.00    +0.000 HD
ENDBRANCH  22  24
ENDBRANCH   2  18
TORSDOF 4
ENDMDL
