MODEL 1
REMARK VINA RESULT:      -9.1      0.000      0.000
REMARK  Name = 
REMARK  1 active torsions:
REMARK  status: ('A' for Active; 'I' for Inactive)
REMARK    1  A    between atoms: C_2  and  C_3
REMARK                            x       y       z     vdW  Elec       q    Type
REMARK                         _______ _______ _______ _____ _____    ______ ____
ROOT
ATOM      1  O   UNL     1       1.735   5.806  20.240  0.00  0.00    +0.000 OA
ATOM      2  C   UNL     1       2.596   6.323  19.520  0.00  0.00    +0.000 C 
ATOM      3  N   UNL     1       3.829   5.789  19.281  0.00  0.00    +0.000 N 
ATOM      4  C   UNL     1       4.306   4.618  19.980  0.00  0.00    +0.000 C 
ATOM      5  C   UNL     1       4.390   3.426  18.889  0.00  0.00    +0.000 C 
ATOM      6  C   UNL     1       3.681   3.132  17.450  0.00  0.00    +0.000 C 
ATOM      7  C   UNL     1       2.415   2.275  17.526  0.00  0.00    +0.000 C 
ATOM      8  C   UNL     1       2.404   1.745  18.918  0.00  0.00    +0.000 C 
ATOM      9  C   UNL     1       3.081   2.869  19.645  0.00  0.00    +0.000 C 
ATOM     10  C   UNL     1       5.273   4.566  18.177  0.00  0.00    +0.000 A 
ATOM     11  C   UNL     1       6.622   4.491  17.837  0.00  0.00    +0.000 A 
ATOM     12  C   UNL     1       7.290   5.675  17.459  0.00  0.00    +0.000 A 
ATOM     13  C   UNL     1       6.594   6.885  17.284  0.00  0.00    +0.000 A 
ATOM     14  C   UNL     1       5.246   6.956  17.592  0.00  0.00    +0.000 A 
ATOM     15  F   UNL     1       4.608   8.121  17.452  0.00  0.00    +0.000 F 
ATOM     16  C   UNL     1       4.665   5.843  18.173  0.00  0.00    +0.000 A 
ENDROOT
BRANCH   2  17
ATOM     17  C   UNL     1       2.284   7.664  19.114  0.00  0.00    +0.000 A 
ATOM     18  C   UNL     1       1.968   7.926  17.784  0.00  0.00    +0.000 A 
ATOM     19  N   UNL     1       1.221   8.987  17.407  0.00  0.00    +0.000 NA
ATOM     20  C   UNL     1       0.771   9.770  18.419  0.00  0.00    +0.000 A 
ATOM     21  N   UNL     1      -0.204  10.695  18.096  0.00  0.00    +0.000 N 
ATOM     22  C   UNL     1      -0.860  11.441  19.022  0.00  0.00    +0.000 A 
ATOM     23  O   UNL     1      -1.801  12.166  18.722  0.00  0.00    +0.000 OA
ATOM     24  N   UNL     1      -0.429  11.344  20.314  0.00  0.00    +0.000 N 
ATOM     25  C   UNL     1       0.501  10.459  20.773  0.00  0.00    +0.000 A 
ATOM     26  O   UNL     1       0.785  10.349  21.959  0.00  0.00    +0.000 OA
ATOM     27  C   UNL     1       1.104   9.600  19.755  0.00  0.00    +0.000 A 
ATOM     28  C   UNL     1       1.871   8.525  20.120  0.00  0.00    +0.000 A 
ATOM     29  H   UNL     1      -0.524  10.713  17.141  0.00  0.00    +0.000 HD
ATOM     30  H   UNL     1      -0.932  11.881  21.006  0.00  0.00    +0.000 HD
ENDBRANCH   2  17
TORSDOF 1
ENDMDL
MODEL 2
REMARK VINA RESULT:      -8.9      1.953      3.824
REMARK  Name = 
REMARK  1 active torsions:
REMARK  status: ('A' for Active; 'I' for Inactive)
REMARK    1  A    between atoms: C_2  and  C_3
REMARK                            x       y       z     vdW  Elec       q    Type
REMARK                         _______ _______ _______ _____ _____    ______ ____
ROOT
ATOM      1  O   UNL     1       3.270   8.134  17.999  0.00  0.00    +0.000 OA
ATOM      2  C   UNL     1       2.644   7.309  18.672  0.00  0.00    +0.000 C 
ATOM      3  N   UNL     1       2.684   5.959  18.477  0.00  0.00    +0.000 N 
ATOM      4  C   UNL     1       3.363   5.367  17.347  0.00  0.00    +0.000 C 
ATOM      5  C   UNL     1       4.647   4.580  17.935  0.00  0.00    +0.000 C 
ATOM      6  C   UNL     1       5.535   4.685  19.299  0.00  0.00    +0.000 C 
ATOM      7  C   UNL     1       6.780   5.569  19.183  0.00  0.00    +0.000 C 
ATOM      8  C   UNL     1       6.919   5.832  17.723  0.00  0.00    +0.000 C 
ATOM      9  C   UNL     1       5.479   5.805  17.302  0.00  0.00    +0.000 C 
ATOM     10  C   UNL     1       3.458   3.936  18.806  0.00  0.00    +0.000 A 
ATOM     11  C   UNL     1       3.070   2.598  18.836  0.00  0.00    +0.000 A 
ATOM     12  C   UNL     1       1.847   2.264  19.454  0.00  0.00    +0.000 A 
ATOM     13  C   UNL     1       1.094   3.223  20.156  0.00  0.00    +0.000 A 
ATOM     14  C   UNL     1       1.494   4.549  20.155  0.00  0.00    +0.000 A 
ATOM     15  F   UNL     1       0.749   5.452  20.799  0.00  0.00    +0.000 F 
ATOM     16  C   UNL     1       2.570   4.890  19.356  0.00  0.00    +0.000 A 
ENDROOT
BRANCH   2  17
ATOM     17  C   UNL     1       1.677   7.895  19.558  0.00  0.00    +0.000 A 
ATOM     18  C   UNL     1       1.912   7.897  20.930  0.00  0.00    +0.000 A 
ATOM     19  N   UNL     1       1.352   8.800  21.764  0.00  0.00    +0.000 NA
ATOM     20  C   UNL     1       0.565   9.732  21.170  0.00  0.00    +0.000 A 
ATOM     21  N   UNL     1       0.199  10.815  21.945  0.00  0.00    +0.000 N 
ATOM     22  C   UNL     1      -0.454  11.899  21.451  0.00  0.00    +0.000 A 
ATOM     23  O   UNL     1      -0.661  12.897  22.132  0.00  0.00    +0.000 OA
ATOM     24  N   UNL     1      -0.869  11.833  20.152  0.00  0.00    +0.000 N 
ATOM     25  C   UNL     1      -0.556  10.840  19.272  0.00  0.00    +0.000 A 
ATOM     26  O   UNL     1      -0.876  10.875  18.090  0.00  0.00    +0.000 OA
ATOM     27  C   UNL     1       0.242   9.744  19.820  0.00  0.00    +0.000 A 
ATOM     28  C   UNL     1       0.808   8.815  18.989  0.00  0.00    +0.000 A 
ATOM     29  H   UNL     1       0.554  10.849  22.888  0.00  0.00    +0.000 HD
ATOM     30  H   UNL     1      -1.334  12.648  19.778  0.00  0.00    +0.000 HD
ENDBRANCH   2  17
TORSDOF 1
ENDMDL
MODEL 3
REMARK VINA RESULT:      -8.5      2.462      8.435
REMARK  Name = 
REMARK  1 active torsions:
REMARK  status: ('A' for Active; 'I' for Inactive)
REMARK    1  A    between atoms: C_2  and  C_3
REMARK                            x       y       z     vdW  Elec       q    Type
REMARK                         _______ _______ _______ _____ _____    ______ ____
ROOT
ATOM      1  O   UNL     1       1.422  10.684  21.257  0.00  0.00    +0.000 OA
ATOM      2  C   UNL     1       0.617  10.480  20.343  0.00  0.00    +0.000 C 
ATOM      3  N   UNL     1      -0.664  10.950  20.319  0.00  0.00    +0.000 N 
ATOM      4  C   UNL     1      -1.256  11.620  21.454  0.00  0.00    +0.000 C 
ATOM      5  C   UNL     1      -1.461  13.166  21.026  0.00  0.00    +0.000 C 
ATOM      6  C   UNL     1      -0.789  14.151  19.913  0.00  0.00    +0.000 C 
ATOM      7  C   UNL     1       0.384  14.989  20.429  0.00  0.00    +0.000 C 
ATOM      8  C   UNL     1       0.345  14.819  21.908  0.00  0.00    +0.000 C 
ATOM      9  C   UNL     1      -0.214  13.430  22.010  0.00  0.00    +0.000 C 
ATOM     10  C   UNL     1      -2.227  12.406  19.833  0.00  0.00    +0.000 A 
ATOM     11  C   UNL     1      -3.577  12.506  19.505  0.00  0.00    +0.000 A 
ATOM     12  C   UNL     1      -4.123  11.573  18.599  0.00  0.00    +0.000 A 
ATOM     13  C   UNL     1      -3.308  10.647  17.922  0.00  0.00    +0.000 A 
ATOM     14  C   UNL     1      -1.960  10.565  18.223  0.00  0.00    +0.000 A 
ATOM     15  F   UNL     1      -1.208   9.658  17.594  0.00  0.00    +0.000 F 
ATOM     16  C   UNL     1      -1.493  11.335  19.273  0.00  0.00    +0.000 A 
ENDROOT
BRANCH   2  17
ATOM     17  C   UNL     1       1.062   9.509  19.383  0.00  0.00    +0.000 A 
ATOM     18  C   UNL     1       1.641   9.934  18.190  0.00  0.00    +0.000 A 
ATOM     19  N   UNL     1       2.494   9.165  17.479  0.00  0.00    +0.000 NA
ATOM     20  C   UNL     1       2.775   7.953  18.021  0.00  0.00    +0.000 A 
ATOM     21  N   UNL     1       3.834   7.260  17.467  0.00  0.00    +0.000 N 
ATOM     22  C   UNL     1       4.332   6.112  17.995  0.00  0.00    +0.000 A 
ATOM     23  O   UNL     1       5.345   5.582  17.554  0.00  0.00    +0.000 OA
ATOM     24  N   UNL     1       3.655   5.571  19.050  0.00  0.00    +0.000 N 
ATOM     25  C   UNL     1       2.615   6.159  19.707  0.00  0.00    +0.000 A 
ATOM     26  O   UNL     1       2.102   5.673  20.707  0.00  0.00    +0.000 OA
ATOM     27  C   UNL     1       2.181   7.448  19.169  0.00  0.00    +0.000 A 
ATOM     28  C   UNL     1       1.311   8.236  19.873  0.00  0.00    +0.000 A 
ATOM     29  H   UNL     1       4.334   7.707  16.714  0.00  0.00    +0.000 HD
ATOM     30  H   UNL     1       4.039   4.730  19.457  0.00  0.00    +0.000 HD
ENDBRANCH   2  17
TORSDOF 1
ENDMDL
MODEL 4
REMARK VINA RESULT:      -8.3      2.701      7.524
REMARK  Name = 
REMARK  1 active torsions:
REMARK  status: ('A' for Active; 'I' for Inactive)
REMARK    1  A    between atoms: C_2  and  C_3
REMARK                            x       y       z     vdW  Elec       q    Type
REMARK                         _______ _______ _______ _____ _____    ______ ____
ROOT
ATOM      1  O   UNL     1       1.817   9.445  16.984  0.00  0.00    +0.000 OA
ATOM      2  C   UNL     1       1.774   8.970  18.124  0.00  0.00    +0.000 C 
ATOM      3  N   UNL     1       1.276   9.619  19.216  0.00  0.00    +0.000 N 
ATOM      4  C   UNL     1       0.878  11.007  19.168  0.00  0.00    +0.000 C 
ATOM      5  C   UNL     1      -0.731  11.036  19.331  0.00  0.00    +0.000 C 
ATOM      6  C   UNL     1      -1.933   9.962  19.080  0.00  0.00    +0.000 C 
ATOM      7  C   UNL     1      -2.589  10.052  17.699  0.00  0.00    +0.000 C 
ATOM      8  C   UNL     1      -2.074  11.324  17.121  0.00  0.00    +0.000 C 
ATOM      9  C   UNL     1      -0.717  11.386  17.759  0.00  0.00    +0.000 C 
ATOM     10  C   UNL     1      -0.299  10.189  20.628  0.00  0.00    +0.000 A 
ATOM     11  C   UNL     1      -0.513  10.530  21.962  0.00  0.00    +0.000 A 
ATOM     12  C   UNL     1       0.161   9.799  22.962  0.00  0.00    +0.000 A 
ATOM     13  C   UNL     1       0.922   8.658  22.649  0.00  0.00    +0.000 A 
ATOM     14  C   UNL     1       1.112   8.298  21.325  0.00  0.00    +0.000 A 
ATOM     15  F   UNL     1       1.866   7.231  21.045  0.00  0.00    +0.000 F 
ATOM     16  C   UNL     1       0.629   9.158  20.355  0.00  0.00    +0.000 A 
ENDROOT
BRANCH   2  17
ATOM     17  C   UNL     1       2.501   7.740  18.268  0.00  0.00    +0.000 A 
ATOM     18  C   UNL     1       1.814   6.529  18.271  0.00  0.00    +0.000 A 
ATOM     19  N   UNL     1       2.394   5.361  17.921  0.00  0.00    +0.000 NA
ATOM     20  C   UNL     1       3.691   5.447  17.535  0.00  0.00    +0.000 A 
ATOM     21  N   UNL     1       4.230   4.332  16.923  0.00  0.00    +0.000 N 
ATOM     22  C   UNL     1       5.459   4.317  16.347  0.00  0.00    +0.000 A 
ATOM     23  O   UNL     1       5.864   3.353  15.708  0.00  0.00    +0.000 OA
ATOM     24  N   UNL     1       6.231   5.432  16.505  0.00  0.00    +0.000 N 
ATOM     25  C   UNL     1       5.818   6.607  17.062  0.00  0.00    +0.000 A 
ATOM     26  O   UNL     1       6.521   7.609  17.095  0.00  0.00    +0.000 OA
ATOM     27  C   UNL     1       4.448   6.611  17.573  0.00  0.00    +0.000 A 
ATOM     28  C   UNL     1       3.848   7.786  17.940  0.00  0.00    +0.000 A 
ATOM     29  H   UNL     1       3.620   3.540  16.791  0.00  0.00    +0.000 HD
ATOM     30  H   UNL     1       7.135   5.430  16.057  0.00  0.00    +0.000 HD
ENDBRANCH   2  17
TORSDOF 1
ENDMDL
MODEL 5
REMARK VINA RESULT:      -7.8      5.964      9.185
REMARK  Name = 
REMARK  1 active torsions:
REMARK  status: ('A' for Active; 'I' for Inactive)
REMARK    1  A    between atoms: C_2  and  C_3
REMARK                            x       y       z     vdW  Elec       q    Type
REMARK                         _______ _______ _______ _____ _____    ______ ____
ROOT
ATOM      1  O   UNL     1      -1.853  15.266  20.526  0.00  0.00    +0.000 OA
ATOM      2  C   UNL     1      -1.578  14.062  20.556  0.00  0.00    +0.000 C 
ATOM      3  N   UNL     1      -0.694  13.449  19.717  0.00  0.00    +0.000 N 
ATOM      4  C   UNL     1      -0.096  14.136  18.596  0.00  0.00    +0.000 C 
ATOM      5  C   UNL     1       1.476  14.305  18.937  0.00  0.00    +0.000 C 
ATOM      6  C   UNL     1       2.362  14.314  20.307  0.00  0.00    +0.000 C 
ATOM      7  C   UNL     1       2.615  15.706  20.892  0.00  0.00    +0.000 C 
ATOM      8  C   UNL     1       2.182  16.648  19.822  0.00  0.00    +0.000 C 
ATOM      9  C   UNL     1       1.086  15.848  19.181  0.00  0.00    +0.000 C 
ATOM     10  C   UNL     1       1.283  12.718  19.119  0.00  0.00    +0.000 A 
ATOM     11  C   UNL     1       1.913  11.708  18.395  0.00  0.00    +0.000 A 
ATOM     12  C   UNL     1       1.428  10.389  18.514  0.00  0.00    +0.000 A 
ATOM     13  C   UNL     1       0.429  10.057  19.447  0.00  0.00    +0.000 A 
ATOM     14  C   UNL     1      -0.178  11.055  20.192  0.00  0.00    +0.000 A 
ATOM     15  F   UNL     1      -1.149  10.725  21.049  0.00  0.00    +0.000 F 
ATOM     16  C   UNL     1       0.156  12.364  19.896  0.00  0.00    +0.000 A 
ENDROOT
BRANCH   2  17
ATOM     17  C   UNL     1      -2.433  13.293  21.415  0.00  0.00    +0.000 A 
ATOM     18  C   UNL     1      -2.289  13.388  22.797  0.00  0.00    +0.000 A 
ATOM     19  N   UNL     1      -3.296  13.114  23.655  0.00  0.00    +0.000 NA
ATOM     20  C   UNL     1      -4.473  12.766  23.079  0.00  0.00    +0.000 A 
ATOM     21  N   UNL     1      -5.581  12.741  23.905  0.00  0.00    +0.000 N 
ATOM     22  C   UNL     1      -6.848  12.563  23.449  0.00  0.00    +0.000 A 
ATOM     23  O   UNL     1      -7.822  12.664  24.185  0.00  0.00    +0.000 OA
ATOM     24  N   UNL     1      -6.994  12.271  22.123  0.00  0.00    +0.000 N 
ATOM     25  C   UNL     1      -5.994  12.287  21.195  0.00  0.00    +0.000 A 
ATOM     26  O   UNL     1      -6.194  12.109  20.001  0.00  0.00    +0.000 OA
ATOM     27  C   UNL     1      -4.661  12.591  21.715  0.00  0.00    +0.000 A 
ATOM     28  C   UNL     1      -3.628  12.862  20.858  0.00  0.00    +0.000 A 
ATOM     29  H   UNL     1      -5.442  12.998  24.870  0.00  0.00    +0.000 HD
ATOM     30  H   UNL     1      -7.937  12.161  21.780  0.00  0.00    +0.000 HD
ENDBRANCH   2  17
TORSDOF 1
ENDMDL
MODEL 6
REMARK VINA RESULT:      -7.7      8.673     10.731
REMARK  Name = 
REMARK  1 active torsions:
REMARK  status: ('A' for Active; 'I' for Inactive)
REMARK    1  A    between atoms: C_2  and  C_3
REMARK                            x       y       z     vdW  Elec       q    Type
REMARK                         _______ _______ _______ _____ _____    ______ ____
ROOT
ATOM      1  O   UNL     1       7.152  15.562  21.423  0.00  0.00    +0.000 OA
ATOM      2  C   UNL     1       7.906  14.587  21.327  0.00  0.00    +0.000 C 
ATOM      3  N   UNL     1       8.313  14.037  20.147  0.00  0.00    +0.000 N 
ATOM      4  C   UNL     1       7.773  14.460  18.876  0.00  0.00    +0.000 C 
ATOM      5  C   UNL     1       8.968  15.214  18.089  0.00  0.00    +0.000 C 
ATOM      6  C   UNL     1      10.350  15.957  18.536  0.00  0.00    +0.000 C 
ATOM      7  C   UNL     1      10.224  17.470  18.737  0.00  0.00    +0.000 C 
ATOM      8  C   UNL     1       8.891  17.814  18.169  0.00  0.00    +0.000 C 
ATOM      9  C   UNL     1       8.138  16.547  18.449  0.00  0.00    +0.000 C 
ATOM     10  C   UNL     1       9.660  13.804  18.435  0.00  0.00    +0.000 A 
ATOM     11  C   UNL     1      10.139  12.860  17.528  0.00  0.00    +0.000 A 
ATOM     12  C   UNL     1      10.474  11.576  18.005  0.00  0.00    +0.000 A 
ATOM     13  C   UNL     1      10.471  11.281  19.381  0.00  0.00    +0.000 A 
ATOM     14  C   UNL     1      10.025  12.227  20.288  0.00  0.00    +0.000 A 
ATOM     15  F   UNL     1       9.996  11.918  21.587  0.00  0.00    +0.000 F 
ATOM     16  C   UNL     1       9.490  13.397  19.778  0.00  0.00    +0.000 A 
ENDROOT
BRANCH   2  17
ATOM     17  C   UNL     1       8.157  13.923  22.574  0.00  0.00    +0.000 A 
ATOM     18  C   UNL     1       8.968  14.532  23.529  0.00  0.00    +0.000 A 
ATOM     19  N   UNL     1       8.878  14.251  24.848  0.00  0.00    +0.000 NA
ATOM     20  C   UNL     1       7.921  13.353  25.188  0.00  0.00    +0.000 A 
ATOM     21  N   UNL     1       7.625  13.245  26.533  0.00  0.00    +0.000 N 
ATOM     22  C   UNL     1       6.591  12.506  27.013  0.00  0.00    +0.000 A 
ATOM     23  O   UNL     1       6.278  12.523  28.198  0.00  0.00    +0.000 OA
ATOM     24  N   UNL     1       5.905  11.743  26.113  0.00  0.00    +0.000 N 
ATOM     25  C   UNL     1       6.074  11.772  24.760  0.00  0.00    +0.000 A 
ATOM     26  O   UNL     1       5.369  11.135  23.989  0.00  0.00    +0.000 OA
ATOM     27  C   UNL     1       7.128  12.664  24.279  0.00  0.00    +0.000 A 
ATOM     28  C   UNL     1       7.238  12.952  22.945  0.00  0.00    +0.000 A 
ATOM     29  H   UNL     1       8.125  13.850  27.165  0.00  0.00    +0.000 HD
ATOM     30  H   UNL     1       5.122  11.212  26.466  0.00  0.00    +0.000 HD
ENDBRANCH   2  17
TORSDOF 1
ENDMDL
MODEL 7
REMARK VINA RESULT:      -7.6      9.081     11.276
REMARK  Name = 
REMARK  1 active torsions:
REMARK  status: ('A' for Active; 'I' for Inactive)
REMARK    1  A    between atoms: C_2  and  C_3
REMARK                            x       y       z     vdW  Elec       q    Type
REMARK                         _______ _______ _______ _____ _____    ______ ____
ROOT
ATOM      1  O   UNL     1       8.261  16.481  20.504  0.00  0.00    +0.000 OA
ATOM      2  C   UNL     1       8.824  15.386  20.608  0.00  0.00    +0.000 C 
ATOM      3  N   UNL     1       9.285  14.648  19.557  0.00  0.00    +0.000 N 
ATOM      4  C   UNL     1       9.019  15.017  18.186  0.00  0.00    +0.000 C 
ATOM      5  C   UNL     1      10.434  15.463  17.541  0.00  0.00    +0.000 C 
ATOM      6  C   UNL     1      11.853  16.000  18.140  0.00  0.00    +0.000 C 
ATOM      7  C   UNL     1      11.986  17.524  18.195  0.00  0.00    +0.000 C 
ATOM      8  C   UNL     1      10.836  18.030  17.396  0.00  0.00    +0.000 C 
ATOM      9  C   UNL     1       9.827  16.950  17.654  0.00  0.00    +0.000 C 
ATOM     10  C   UNL     1      10.794  14.001  18.107  0.00  0.00    +0.000 A 
ATOM     11  C   UNL     1      11.210  12.895  17.368  0.00  0.00    +0.000 A 
ATOM     12  C   UNL     1      11.228  11.632  17.995  0.00  0.00    +0.000 A 
ATOM     13  C   UNL     1      10.973  11.494  19.372  0.00  0.00    +0.000 A 
ATOM     14  C   UNL     1      10.588  12.596  20.116  0.00  0.00    +0.000 A 
ATOM     15  F   UNL     1      10.318  12.440  21.415  0.00  0.00    +0.000 F 
ATOM     16  C   UNL     1      10.361  13.778  19.434  0.00  0.00    +0.000 A 
ENDROOT
BRANCH   2  17
ATOM     17  C   UNL     1       8.767  14.828  21.930  0.00  0.00    +0.000 A 
ATOM     18  C   UNL     1       9.551  15.373  22.943  0.00  0.00    +0.000 A 
ATOM     19  N   UNL     1       9.233  15.263  24.251  0.00  0.00    +0.000 NA
ATOM     20  C   UNL     1       8.075  14.607  24.515  0.00  0.00    +0.000 A 
ATOM     21  N   UNL     1       7.588  14.707  25.804  0.00  0.00    +0.000 N 
ATOM     22  C   UNL     1       6.370  14.238  26.180  0.00  0.00    +0.000 A 
ATOM     23  O   UNL     1       5.913  14.446  27.299  0.00  0.00    +0.000 OA
ATOM     24  N   UNL     1       5.667  13.525  25.253  0.00  0.00    +0.000 N 
ATOM     25  C   UNL     1       6.016  13.371  23.943  0.00  0.00    +0.000 A 
ATOM     26  O   UNL     1       5.303  12.800  23.129  0.00  0.00    +0.000 OA
ATOM     27  C   UNL     1       7.285  13.986  23.556  0.00  0.00    +0.000 A 
ATOM     28  C   UNL     1       7.627  14.099  22.235  0.00  0.00    +0.000 A 
ATOM     29  H   UNL     1       8.114  15.272  26.453  0.00  0.00    +0.000 HD
ATOM     30  H   UNL     1       4.752  13.197  25.525  0.00  0.00    +0.000 HD
ENDBRANCH   2  17
TORSDOF 1
ENDMDL
MODEL 8
REMARK VINA RESULT:      -7.6      5.425     11.125
REMARK  Name = 
REMARK  1 active torsions:
REMARK  status: ('A' for Active; 'I' for Inactive)
REMARK    1  A    between atoms: C_2  and  C_3
REMARK                            x       y       z     vdW  Elec       q    Type
REMARK                         _______ _______ _______ _____ _____    ______ ____
ROOT
ATOM      1  O   UNL     1      -0.970  13.722  23.135  0.00  0.00    +0.000 OA
ATOM      2  C   UNL     1      -1.993  13.372  22.537  0.00  0.00    +0.000 C 
ATOM      3  N   UNL     1      -3.251  13.413  23.064  0.00  0.00    +0.000 N 
ATOM      4  C   UNL     1      -3.491  13.737  24.451  0.00  0.00    +0.000 C 
ATOM      5  C   UNL     1      -4.230  15.175  24.473  0.00  0.00    +0.000 C 
ATOM      6  C   UNL     1      -4.326  16.435  23.441  0.00  0.00    +0.000 C 
ATOM      7  C   UNL     1      -3.296  17.540  23.687  0.00  0.00    +0.000 C 
ATOM      8  C   UNL     1      -2.701  17.210  25.012  0.00  0.00    +0.000 C 
ATOM      9  C   UNL     1      -2.805  15.714  24.994  0.00  0.00    +0.000 C 
ATOM     10  C   UNL     1      -5.189  14.344  23.484  0.00  0.00    +0.000 A 
ATOM     11  C   UNL     1      -6.537  14.046  23.676  0.00  0.00    +0.000 A 
ATOM     12  C   UNL     1      -7.144  13.091  22.835  0.00  0.00    +0.000 A 
ATOM     13  C   UNL     1      -6.461  12.547  21.731  0.00  0.00    +0.000 A 
ATOM     14  C   UNL     1      -5.130  12.865  21.519  0.00  0.00    +0.000 A 
ATOM     15  F   UNL     1      -4.489  12.313  20.485  0.00  0.00    +0.000 F 
ATOM     16  C   UNL     1      -4.494  13.626  22.483  0.00  0.00    +0.000 A 
ENDROOT
BRANCH   2  17
ATOM     17  C   UNL     1      -1.737  12.700  21.294  0.00  0.00    +0.000 A 
ATOM     18  C   UNL     1      -1.530  13.446  20.137  0.00  0.00    +0.000 A 
ATOM     19  N   UNL     1      -0.834  12.973  19.080  0.00  0.00    +0.000 NA
ATOM     20  C   UNL     1      -0.320  11.727  19.231  0.00  0.00    +0.000 A 
ATOM     21  N   UNL     1       0.609  11.324  18.292  0.00  0.00    +0.000 N 
ATOM     22  C   UNL     1       1.322  10.172  18.395  0.00  0.00    +0.000 A 
ATOM     23  O   UNL     1       2.224   9.897  17.612  0.00  0.00    +0.000 OA
ATOM     24  N   UNL     1       0.995   9.330  19.417  0.00  0.00    +0.000 N 
ATOM     25  C   UNL     1       0.119   9.612  20.424  0.00  0.00    +0.000 A 
ATOM     26  O   UNL     1      -0.070   8.858  21.370  0.00  0.00    +0.000 OA
ATOM     27  C   UNL     1      -0.546  10.910  20.331  0.00  0.00    +0.000 A 
ATOM     28  C   UNL     1      -1.263  11.400  21.390  0.00  0.00    +0.000 A 
ATOM     29  H   UNL     1       0.854  11.986  17.573  0.00  0.00    +0.000 HD
ATOM     30  H   UNL     1       1.540   8.485  19.507  0.00  0.00    +0.000 HD
ENDBRANCH   2  17
TORSDOF 1
ENDMDL
MODEL 9
REMARK VINA RESULT:      -7.5      5.816     11.663
REMARK  Name = 
REMARK  1 active torsions:
REMARK  status: ('A' for Active; 'I' for Inactive)
REMARK    1  A    between atoms: C_2  and  C_3
REMARK                            x       y       z     vdW  Elec       q    Type
REMARK                         _______ _______ _______ _____ _____    ______ ____
ROOT
ATOM      1  O   UNL     1      -0.749  14.400  23.542  0.00  0.00    +0.000 OA
ATOM      2  C   UNL     1      -1.846  13.935  23.215  0.00  0.00    +0.000 C 
ATOM      3  N   UNL     1      -3.045  14.365  23.702  0.00  0.00    +0.000 N 
ATOM      4  C   UNL     1      -3.138  15.325  24.777  0.00  0.00    +0.000 C 
ATOM      5  C   UNL     1      -3.743  16.683  24.140  0.00  0.00    +0.000 C 
ATOM      6  C   UNL     1      -3.815  17.316  22.638  0.00  0.00    +0.000 C 
ATOM      7  C   UNL     1      -2.673  18.279  22.298  0.00  0.00    +0.000 C 
ATOM      8  C   UNL     1      -2.000  18.538  23.600  0.00  0.00    +0.000 C 
ATOM      9  C   UNL     1      -2.236  17.230  24.296  0.00  0.00    +0.000 C 
ATOM     10  C   UNL     1      -4.852  15.606  23.695  0.00  0.00    +0.000 A 
ATOM     11  C   UNL     1      -6.199  15.593  24.050  0.00  0.00    +0.000 A 
ATOM     12  C   UNL     1      -6.957  14.435  23.783  0.00  0.00    +0.000 A 
ATOM     13  C   UNL     1      -6.422  13.363  23.045  0.00  0.00    +0.000 A 
ATOM     14  C   UNL     1      -5.091  13.385  22.664  0.00  0.00    +0.000 A 
ATOM     15  F   UNL     1      -4.591  12.343  21.993  0.00  0.00    +0.000 F 
ATOM     16  C   UNL     1      -4.311  14.427  23.131  0.00  0.00    +0.000 A 
ENDROOT
BRANCH   2  17
ATOM     17  C   UNL     1      -1.757  12.736  22.431  0.00  0.00    +0.000 A 
ATOM     18  C   UNL     1      -1.856  12.810  21.044  0.00  0.00    +0.000 A 
ATOM     19  N   UNL     1      -1.325  11.877  20.224  0.00  0.00    +0.000 NA
ATOM     20  C   UNL     1      -0.657  10.871  20.843  0.00  0.00    +0.000 A 
ATOM     21  N   UNL     1       0.117  10.057  20.038  0.00  0.00    +0.000 N 
ATOM     22  C   UNL     1       0.959   9.110  20.525  0.00  0.00    +0.000 A 
ATOM     23  O   UNL     1       1.722   8.484  19.798  0.00  0.00    +0.000 OA
ATOM     24  N   UNL     1       0.926   8.884  21.871  0.00  0.00    +0.000 N 
ATOM     25  C   UNL     1       0.231   9.627  22.780  0.00  0.00    +0.000 A 
ATOM     26  O   UNL     1       0.308   9.441  23.988  0.00  0.00    +0.000 OA
ATOM     27  C   UNL     1      -0.579  10.707  22.219  0.00  0.00    +0.000 A 
ATOM     28  C   UNL     1      -1.132  11.656  23.037  0.00  0.00    +0.000 A 
ATOM     29  H   UNL     1       0.147  10.276  19.054  0.00  0.00    +0.000 HD
ATOM     30  H   UNL     1       1.568   8.196  22.236  0.00  0.00    +0.000 HD
ENDBRANCH   2  17
TORSDOF 1
ENDMDL
