MODEL 1
REMARK VINA RESULT:      -7.9      0.000      0.000
REMARK  Name = 
REMARK  8 active torsions:
REMARK  status: ('A' for Active; 'I' for Inactive)
REMARK    1  A    between atoms: C_1  and  C_2
REMARK    2  A    between atoms: C_2  and  C_3
REMARK    3  A    between atoms: C_2  and  C_10
REMARK    4  A    between atoms: C_3  and  C_4
REMARK    5  A    between atoms: N_8  and  C_9
REMARK    6  A    between atoms: C_14  and  N_15
REMARK    7  A    between atoms: C_21  and  C_22
REMARK    8  A    between atoms: C_22  and  C_23
REMARK                            x       y       z     vdW  Elec       q    Type
REMARK                         _______ _______ _______ _____ _____    ______ ____
ROOT
ATOM      1  C   UNL     1       1.573   7.092  20.455  0.00  0.00    +0.000 A 
ATOM      2  C   UNL     1       2.223   7.753  19.405  0.00  0.00    +0.000 A 
ATOM      3  C   UNL     1       2.419   7.113  18.191  0.00  0.00    +0.000 A 
ATOM      4  C   UNL     1       2.073   5.776  18.056  0.00  0.00    +0.000 A 
ATOM      5  C   UNL     1       1.800   5.031  19.209  0.00  0.00    +0.000 A 
ATOM      6  C   UNL     1       1.384   5.706  20.351  0.00  0.00    +0.000 A 
ENDROOT
BRANCH   5   7
ATOM      7  N   UNL     1       2.437   3.726  19.388  0.00  0.00    +0.000 N 
ATOM      8  C   UNL     1       3.665   3.874  20.224  0.00  0.00    +0.000 C 
ATOM      9  C   UNL     1       4.703   4.144  19.172  0.00  0.00    +0.000 A 
ATOM     10  C   UNL     1       5.665   5.140  19.145  0.00  0.00    +0.000 A 
ATOM     11  C   UNL     1       6.144   5.542  17.880  0.00  0.00    +0.000 A 
ATOM     12  F   UNL     1       6.933   6.631  17.837  0.00  0.00    +0.000 F 
ATOM     13  C   UNL     1       5.730   4.941  16.676  0.00  0.00    +0.000 A 
ATOM     14  C   UNL     1       4.808   3.878  16.744  0.00  0.00    +0.000 A 
ATOM     15  C   UNL     1       4.290   3.551  17.990  0.00  0.00    +0.000 A 
ATOM     16  C   UNL     1       2.887   3.116  18.197  0.00  0.00    +0.000 C 
ATOM     17  O   UNL     1       2.221   2.555  17.332  0.00  0.00    +0.000 OA
BRANCH  13  18
ATOM     18  C   UNL     1       6.100   5.518  15.312  0.00  0.00    +0.000 C 
BRANCH  18  19
ATOM     19  C   UNL     1       6.116   4.447  14.235  0.00  0.00    +0.000 C 
ATOM     20  N   UNL     1       6.129   3.557  13.341  0.00  0.00    +0.000 NA
ENDBRANCH  18  19
ENDBRANCH  13  18
ENDBRANCH   5   7
BRANCH   1  22
ATOM     21  C   UNL     1       2.101   9.016  22.029  0.00  0.00    +0.000 C 
ATOM     22  C   UNL     1       1.125   7.887  21.667  0.00  0.00    +0.000 C 
BRANCH  22  23
ATOM     23  C   UNL     1      -0.332   8.392  21.583  0.00  0.00    +0.000 C 
BRANCH  23  24
ATOM     24  C   UNL     1      -0.479   9.814  21.998  0.00  0.00    +0.000 A 
ATOM     25  N   UNL     1      -0.618  10.274  23.226  0.00  0.00    +0.000 NA
ATOM     26  N   UNL     1      -0.743  11.640  23.166  0.00  0.00    +0.000 NA
ATOM     27  C   UNL     1      -0.650  11.986  21.904  0.00  0.00    +0.000 A 
ATOM     28  N   UNL     1      -0.498  10.877  21.135  0.00  0.00    +0.000 N 
ATOM     29  C   UNL     1      -0.393  10.831  19.702  0.00  0.00    +0.000 C 
ENDBRANCH  23  24
ENDBRANCH  22  23
ENDBRANCH   1  22
TORSDOF 6
ENDMDL
MODEL 2
REMARK VINA RESULT:      -7.8      4.894      7.238
REMARK  Name = 
REMARK  8 active torsions:
REMARK  status: ('A' for Active; 'I' for Inactive)
REMARK    1  A    between atoms: C_1  and  C_2
REMARK    2  A    between atoms: C_2  and  C_3
REMARK    3  A    between atoms: C_2  and  C_10
REMARK    4  A    between atoms: C_3  and  C_4
REMARK    5  A    between atoms: N_8  and  C_9
REMARK    6  A    between atoms: C_14  and  N_15
REMARK    7  A    between atoms: C_21  and  C_22
REMARK    8  A    between atoms: C_22  and  C_23
REMARK                            x       y       z     vdW  Elec       q    Type
REMARK                         _______ _______ _______ _____ _____    ______ ____
ROOT
ATOM      1  C   UNL     1       8.009   7.738  17.924  0.00  0.00    +0.000 A 
ATOM      2  C   UNL     1       7.911   6.908  19.049  0.00  0.00    +0.000 A 
ATOM      3  C   UNL     1       7.686   5.549  18.895  0.00  0.00    +0.000 A 
ATOM      4  C   UNL     1       7.444   5.031  17.631  0.00  0.00    +0.000 A 
ATOM      5  C   UNL     1       7.154   5.914  16.585  0.00  0.00    +0.000 A 
ATOM      6  C   UNL     1       7.601   7.227  16.683  0.00  0.00    +0.000 A 
ENDROOT
BRANCH   5   7
ATOM      7  N   UNL     1       5.997   5.656  15.727  0.00  0.00    +0.000 N 
ATOM      8  C   UNL     1       4.868   6.552  16.117  0.00  0.00    +0.000 C 
ATOM      9  C   UNL     1       4.178   5.715  17.157  0.00  0.00    +0.000 A 
ATOM     10  C   UNL     1       3.754   6.087  18.422  0.00  0.00    +0.000 A 
ATOM     11  C   UNL     1       3.646   5.070  19.393  0.00  0.00    +0.000 A 
ATOM     12  F   UNL     1       3.419   5.451  20.664  0.00  0.00    +0.000 F 
ATOM     13  C   UNL     1       3.894   3.711  19.114  0.00  0.00    +0.000 A 
ATOM     14  C   UNL     1       4.249   3.356  17.798  0.00  0.00    +0.000 A 
ATOM     15  C   UNL     1       4.426   4.380  16.877  0.00  0.00    +0.000 A 
ATOM     16  C   UNL     1       5.467   4.350  15.821  0.00  0.00    +0.000 C 
ATOM     17  O   UNL     1       5.918   3.311  15.348  0.00  0.00    +0.000 OA
BRANCH  13  18
ATOM     18  C   UNL     1       3.971   2.658  20.215  0.00  0.00    +0.000 C 
BRANCH  18  19
ATOM     19  C   UNL     1       2.748   2.698  21.116  0.00  0.00    +0.000 C 
ATOM     20  N   UNL     1       1.732   2.731  21.864  0.00  0.00    +0.000 NA
ENDBRANCH  18  19
ENDBRANCH  13  18
ENDBRANCH   5   7
BRANCH   1  22
ATOM     21  C   UNL     1       7.548  10.209  17.549  0.00  0.00    +0.000 C 
ATOM     22  C   UNL     1       8.524   9.156  18.093  0.00  0.00    +0.000 C 
BRANCH  22  23
ATOM     23  C   UNL     1       8.988   9.489  19.527  0.00  0.00    +0.000 C 
BRANCH  23  24
ATOM     24  C   UNL     1       9.770  10.753  19.606  0.00  0.00    +0.000 A 
ATOM     25  N   UNL     1      10.693  11.171  18.762  0.00  0.00    +0.000 NA
ATOM     26  N   UNL     1      11.181  12.373  19.213  0.00  0.00    +0.000 NA
ATOM     27  C   UNL     1      10.525  12.674  20.309  0.00  0.00    +0.000 A 
ATOM     28  N   UNL     1       9.643  11.685  20.602  0.00  0.00    +0.000 N 
ATOM     29  C   UNL     1       8.763  11.624  21.736  0.00  0.00    +0.000 C 
ENDBRANCH  23  24
ENDBRANCH  22  23
ENDBRANCH   1  22
TORSDOF 6
ENDMDL
MODEL 3
REMARK VINA RESULT:      -7.8      0.620      1.178
REMARK  Name = 
REMARK  8 active torsions:
REMARK  status: ('A' for Active; 'I' for Inactive)
REMARK    1  A    between atoms: C_1  and  C_2
REMARK    2  A    between atoms: C_2  and  C_3
REMARK    3  A    between atoms: C_2  and  C_10
REMARK    4  A    between atoms: C_3  and  C_4
REMARK    5  A    between atoms: N_8  and  C_9
REMARK    6  A    between atoms: C_14  and  N_15
REMARK    7  A    between atoms: C_21  and  C_22
REMARK    8  A    between atoms: C_22  and  C_23
REMARK                            x       y       z     vdW  Elec       q    Type
REMARK                         _______ _______ _______ _____ _____    ______ ____
ROOT
ATOM      1  C   UNL     1       1.559   7.074  20.392  0.00  0.00    +0.000 A 
ATOM      2  C   UNL     1       2.267   7.738  19.382  0.00  0.00    +0.000 A 
ATOM      3  C   UNL     1       2.519   7.105  18.174  0.00  0.00    +0.000 A 
ATOM      4  C   UNL     1       2.168   5.773  18.011  0.00  0.00    +0.000 A 
ATOM      5  C   UNL     1       1.831   5.022  19.142  0.00  0.00    +0.000 A 
ATOM      6  C   UNL     1       1.364   5.691  20.267  0.00  0.00    +0.000 A 
ENDROOT
BRANCH   5   7
ATOM      7  N   UNL     1       2.448   3.710  19.343  0.00  0.00    +0.000 N 
ATOM      8  C   UNL     1       3.647   3.845  20.222  0.00  0.00    +0.000 C 
ATOM      9  C   UNL     1       4.725   4.103  19.207  0.00  0.00    +0.000 A 
ATOM     10  C   UNL     1       5.698   5.089  19.213  0.00  0.00    +0.000 A 
ATOM     11  C   UNL     1       6.224   5.485  17.966  0.00  0.00    +0.000 A 
ATOM     12  F   UNL     1       7.026   6.567  17.951  0.00  0.00    +0.000 F 
ATOM     13  C   UNL     1       5.846   4.890  16.748  0.00  0.00    +0.000 A 
ATOM     14  C   UNL     1       4.910   3.837  16.783  0.00  0.00    +0.000 A 
ATOM     15  C   UNL     1       4.347   3.515  18.010  0.00  0.00    +0.000 A 
ATOM     16  C   UNL     1       2.933   3.095  18.168  0.00  0.00    +0.000 C 
ATOM     17  O   UNL     1       2.291   2.541  17.280  0.00  0.00    +0.000 OA
BRANCH  13  18
ATOM     18  C   UNL     1       6.269   5.463  15.398  0.00  0.00    +0.000 C 
BRANCH  18  19
ATOM     19  C   UNL     1       6.176   4.425  14.293  0.00  0.00    +0.000 C 
ATOM     20  N   UNL     1       6.101   3.562  13.375  0.00  0.00    +0.000 NA
ENDBRANCH  18  19
ENDBRANCH  13  18
ENDBRANCH   5   7
BRANCH   1  22
ATOM     21  C   UNL     1       2.008   9.000  21.990  0.00  0.00    +0.000 C 
ATOM     22  C   UNL     1       1.056   7.864  21.587  0.00  0.00    +0.000 C 
BRANCH  22  23
ATOM     23  C   UNL     1      -0.399   8.359  21.445  0.00  0.00    +0.000 C 
BRANCH  23  24
ATOM     24  C   UNL     1      -0.492   9.749  20.918  0.00  0.00    +0.000 A 
ATOM     25  N   UNL     1      -0.298  10.143  19.675  0.00  0.00    +0.000 NA
ATOM     26  N   UNL     1      -0.459  11.506  19.622  0.00  0.00    +0.000 NA
ATOM     27  C   UNL     1      -0.775  11.909  20.830  0.00  0.00    +0.000 A 
ATOM     28  N   UNL     1      -0.794  10.848  21.677  0.00  0.00    +0.000 N 
ATOM     29  C   UNL     1      -1.063  10.878  23.089  0.00  0.00    +0.000 C 
ENDBRANCH  23  24
ENDBRANCH  22  23
ENDBRANCH   1  22
TORSDOF 6
ENDMDL
MODEL 4
REMARK VINA RESULT:      -7.6      2.027      8.104
REMARK  Name = 
REMARK  8 active torsions:
REMARK  status: ('A' for Active; 'I' for Inactive)
REMARK    1  A    between atoms: C_1  and  C_2
REMARK    2  A    between atoms: C_2  and  C_3
REMARK    3  A    between atoms: C_2  and  C_10
REMARK    4  A    between atoms: C_3  and  C_4
REMARK    5  A    between atoms: N_8  and  C_9
REMARK    6  A    between atoms: C_14  and  N_15
REMARK    7  A    between atoms: C_21  and  C_22
REMARK    8  A    between atoms: C_22  and  C_23
REMARK                            x       y       z     vdW  Elec       q    Type
REMARK                         _______ _______ _______ _____ _____    ______ ____
ROOT
ATOM      1  C   UNL     1       4.971   3.909  17.307  0.00  0.00    +0.000 A 
ATOM      2  C   UNL     1       5.597   4.583  18.363  0.00  0.00    +0.000 A 
ATOM      3  C   UNL     1       5.577   4.048  19.642  0.00  0.00    +0.000 A 
ATOM      4  C   UNL     1       4.837   2.902  19.896  0.00  0.00    +0.000 A 
ATOM      5  C   UNL     1       3.911   2.473  18.939  0.00  0.00    +0.000 A 
ATOM      6  C   UNL     1       4.101   2.853  17.615  0.00  0.00    +0.000 A 
ENDROOT
BRANCH   5   7
ATOM      7  N   UNL     1       2.550   2.136  19.357  0.00  0.00    +0.000 N 
ATOM      8  C   UNL     1       1.581   2.531  18.292  0.00  0.00    +0.000 C 
ATOM      9  C   UNL     1       1.266   3.944  18.694  0.00  0.00    +0.000 A 
ATOM     10  C   UNL     1       1.250   5.082  17.905  0.00  0.00    +0.000 A 
ATOM     11  C   UNL     1       1.469   6.318  18.549  0.00  0.00    +0.000 A 
ATOM     12  F   UNL     1       1.642   7.399  17.766  0.00  0.00    +0.000 F 
ATOM     13  C   UNL     1       1.645   6.439  19.941  0.00  0.00    +0.000 A 
ATOM     14  C   UNL     1       1.579   5.270  20.725  0.00  0.00    +0.000 A 
ATOM     15  C   UNL     1       1.440   4.057  20.064  0.00  0.00    +0.000 A 
ATOM     16  C   UNL     1       2.101   2.808  20.515  0.00  0.00    +0.000 C 
ATOM     17  O   UNL     1       2.403   2.589  21.685  0.00  0.00    +0.000 OA
BRANCH  13  18
ATOM     18  C   UNL     1       2.081   7.748  20.593  0.00  0.00    +0.000 C 
BRANCH  18  19
ATOM     19  C   UNL     1       0.889   8.577  21.040  0.00  0.00    +0.000 C 
ATOM     20  N   UNL     1      -0.101   9.265  21.412  0.00  0.00    +0.000 NA
ENDBRANCH  18  19
ENDBRANCH  13  18
ENDBRANCH   5   7
BRANCH   1  22
ATOM     21  C   UNL     1       5.373   5.884  15.757  0.00  0.00    +0.000 C 
ATOM     22  C   UNL     1       5.235   4.359  15.881  0.00  0.00    +0.000 C 
BRANCH  22  23
ATOM     23  C   UNL     1       6.402   3.619  15.195  0.00  0.00    +0.000 C 
BRANCH  23  24
ATOM     24  C   UNL     1       7.012   4.399  14.083  0.00  0.00    +0.000 A 
ATOM     25  N   UNL     1       7.866   5.398  14.187  0.00  0.00    +0.000 NA
ATOM     26  N   UNL     1       8.160   5.851  12.925  0.00  0.00    +0.000 NA
ATOM     27  C   UNL     1       7.499   5.100  12.076  0.00  0.00    +0.000 A 
ATOM     28  N   UNL     1       6.756   4.188  12.754  0.00  0.00    +0.000 N 
ATOM     29  C   UNL     1       5.871   3.207  12.189  0.00  0.00    +0.000 C 
ENDBRANCH  23  24
ENDBRANCH  22  23
ENDBRANCH   1  22
TORSDOF 6
ENDMDL
MODEL 5
REMARK VINA RESULT:      -7.6      3.592      8.703
REMARK  Name = 
REMARK  8 active torsions:
REMARK  status: ('A' for Active; 'I' for Inactive)
REMARK    1  A    between atoms: C_1  and  C_2
REMARK    2  A    between atoms: C_2  and  C_3
REMARK    3  A    between atoms: C_2  and  C_10
REMARK    4  A    between atoms: C_3  and  C_4
REMARK    5  A    between atoms: N_8  and  C_9
REMARK    6  A    between atoms: C_14  and  N_15
REMARK    7  A    between atoms: C_21  and  C_22
REMARK    8  A    between atoms: C_22  and  C_23
REMARK                            x       y       z     vdW  Elec       q    Type
REMARK                         _______ _______ _______ _____ _____    ______ ____
ROOT
ATOM      1  C   UNL     1       2.210   7.449  19.393  0.00  0.00    +0.000 A 
ATOM      2  C   UNL     1       2.246   7.894  18.064  0.00  0.00    +0.000 A 
ATOM      3  C   UNL     1       1.906   9.202  17.758  0.00  0.00    +0.000 A 
ATOM      4  C   UNL     1       1.419  10.037  18.753  0.00  0.00    +0.000 A 
ATOM      5  C   UNL     1       1.018   9.473  19.969  0.00  0.00    +0.000 A 
ATOM      6  C   UNL     1       1.565   8.251  20.345  0.00  0.00    +0.000 A 
ENDROOT
BRANCH   5   7
ATOM      7  N   UNL     1      -0.281   9.836  20.536  0.00  0.00    +0.000 N 
ATOM      8  C   UNL     1      -1.099  10.548  19.509  0.00  0.00    +0.000 C 
ATOM      9  C   UNL     1      -0.689  11.973  19.749  0.00  0.00    +0.000 A 
ATOM     10  C   UNL     1      -0.296  12.925  18.823  0.00  0.00    +0.000 A 
ATOM     11  C   UNL     1       0.538  13.967  19.281  0.00  0.00    +0.000 A 
ATOM     12  F   UNL     1       1.074  14.781  18.354  0.00  0.00    +0.000 F 
ATOM     13  C   UNL     1       0.929  14.102  20.628  0.00  0.00    +0.000 A 
ATOM     14  C   UNL     1       0.448  13.161  21.559  0.00  0.00    +0.000 A 
ATOM     15  C   UNL     1      -0.306  12.101  21.075  0.00  0.00    +0.000 A 
ATOM     16  C   UNL     1      -0.224  10.727  21.629  0.00  0.00    +0.000 C 
ATOM     17  O   UNL     1       0.097  10.487  22.790  0.00  0.00    +0.000 OA
BRANCH  13  18
ATOM     18  C   UNL     1       1.988  15.109  21.067  0.00  0.00    +0.000 C 
BRANCH  18  19
ATOM     19  C   UNL     1       3.231  14.418  21.604  0.00  0.00    +0.000 C 
ATOM     20  N   UNL     1       4.262  13.845  22.051  0.00  0.00    +0.000 NA
ENDBRANCH  18  19
ENDBRANCH  13  18
ENDBRANCH   5   7
BRANCH   1  22
ATOM     21  C   UNL     1       1.943   5.250  20.639  0.00  0.00    +0.000 C 
ATOM     22  C   UNL     1       2.842   6.114  19.744  0.00  0.00    +0.000 C 
BRANCH  22  23
ATOM     23  C   UNL     1       3.365   5.327  18.523  0.00  0.00    +0.000 C 
BRANCH  23  24
ATOM     24  C   UNL     1       4.842   5.137  18.543  0.00  0.00    +0.000 A 
ATOM     25  N   UNL     1       5.659   5.366  19.552  0.00  0.00    +0.000 NA
ATOM     26  N   UNL     1       6.940   5.083  19.145  0.00  0.00    +0.000 NA
ATOM     27  C   UNL     1       6.872   4.662  17.905  0.00  0.00    +0.000 A 
ATOM     28  N   UNL     1       5.582   4.692  17.481  0.00  0.00    +0.000 N 
ATOM     29  C   UNL     1       5.097   4.339  16.175  0.00  0.00    +0.000 C 
ENDBRANCH  23  24
ENDBRANCH  22  23
ENDBRANCH   1  22
TORSDOF 6
ENDMDL
MODEL 6
REMARK VINA RESULT:      -7.5      3.500      8.493
REMARK  Name = 
REMARK  8 active torsions:
REMARK  status: ('A' for Active; 'I' for Inactive)
REMARK    1  A    between atoms: C_1  and  C_2
REMARK    2  A    between atoms: C_2  and  C_3
REMARK    3  A    between atoms: C_2  and  C_10
REMARK    4  A    between atoms: C_3  and  C_4
REMARK    5  A    between atoms: N_8  and  C_9
REMARK    6  A    between atoms: C_14  and  N_15
REMARK    7  A    between atoms: C_21  and  C_22
REMARK    8  A    between atoms: C_22  and  C_23
REMARK                            x       y       z     vdW  Elec       q    Type
REMARK                         _______ _______ _______ _____ _____    ______ ____
ROOT
ATOM      1  C   UNL     1       2.533   6.672  19.449  0.00  0.00    +0.000 A 
ATOM      2  C   UNL     1       2.449   6.833  18.060  0.00  0.00    +0.000 A 
ATOM      3  C   UNL     1       2.139   8.071  17.518  0.00  0.00    +0.000 A 
ATOM      4  C   UNL     1       1.799   9.123  18.357  0.00  0.00    +0.000 A 
ATOM      5  C   UNL     1       1.502   8.847  19.696  0.00  0.00    +0.000 A 
ATOM      6  C   UNL     1       2.028   7.694  20.268  0.00  0.00    +0.000 A 
ENDROOT
BRANCH   5   7
ATOM      7  N   UNL     1       0.287   9.404  20.292  0.00  0.00    +0.000 N 
ATOM      8  C   UNL     1      -0.472  10.176  19.264  0.00  0.00    +0.000 C 
ATOM      9  C   UNL     1       0.132  11.542  19.421  0.00  0.00    +0.000 A 
ATOM     10  C   UNL     1       0.608  12.393  18.437  0.00  0.00    +0.000 A 
ATOM     11  C   UNL     1       1.591  13.332  18.815  0.00  0.00    +0.000 A 
ATOM     12  F   UNL     1       2.190  14.028  17.831  0.00  0.00    +0.000 F 
ATOM     13  C   UNL     1       2.054  13.470  20.139  0.00  0.00    +0.000 A 
ATOM     14  C   UNL     1       1.492  12.641  21.130  0.00  0.00    +0.000 A 
ATOM     15  C   UNL     1       0.584  11.672  20.724  0.00  0.00    +0.000 A 
ATOM     16  C   UNL     1       0.508  10.325  21.340  0.00  0.00    +0.000 C 
ATOM     17  O   UNL     1       0.843  10.092  22.498  0.00  0.00    +0.000 OA
BRANCH  13  18
ATOM     18  C   UNL     1       3.254  14.343  20.492  0.00  0.00    +0.000 C 
BRANCH  18  19
ATOM     19  C   UNL     1       3.076  15.024  21.838  0.00  0.00    +0.000 C 
ATOM     20  N   UNL     1       2.929  15.590  22.956  0.00  0.00    +0.000 NA
ENDBRANCH  18  19
ENDBRANCH  13  18
ENDBRANCH   5   7
BRANCH   1  22
ATOM     21  C   UNL     1       2.164   4.636  20.925  0.00  0.00    +0.000 C 
ATOM     22  C   UNL     1       3.136   5.399  20.013  0.00  0.00    +0.000 C 
BRANCH  22  23
ATOM     23  C   UNL     1       3.766   4.478  18.947  0.00  0.00    +0.000 C 
BRANCH  23  24
ATOM     24  C   UNL     1       5.231   4.691  18.787  0.00  0.00    +0.000 A 
ATOM     25  N   UNL     1       6.089   5.053  19.721  0.00  0.00    +0.000 NA
ATOM     26  N   UNL     1       7.333   5.158  19.150  0.00  0.00    +0.000 NA
ATOM     27  C   UNL     1       7.211   4.831  17.885  0.00  0.00    +0.000 A 
ATOM     28  N   UNL     1       5.913   4.546  17.608  0.00  0.00    +0.000 N 
ATOM     29  C   UNL     1       5.366   4.177  16.331  0.00  0.00    +0.000 C 
ENDBRANCH  23  24
ENDBRANCH  22  23
ENDBRANCH   1  22
TORSDOF 6
ENDMDL
MODEL 7
REMARK VINA RESULT:      -7.4      3.500      8.695
REMARK  Name = 
REMARK  8 active torsions:
REMARK  status: ('A' for Active; 'I' for Inactive)
REMARK    1  A    between atoms: C_1  and  C_2
REMARK    2  A    between atoms: C_2  and  C_3
REMARK    3  A    between atoms: C_2  and  C_10
REMARK    4  A    between atoms: C_3  and  C_4
REMARK    5  A    between atoms: N_8  and  C_9
REMARK    6  A    between atoms: C_14  and  N_15
REMARK    7  A    between atoms: C_21  and  C_22
REMARK    8  A    between atoms: C_22  and  C_23
REMARK                            x       y       z     vdW  Elec       q    Type
REMARK                         _______ _______ _______ _____ _____    ______ ____
ROOT
ATOM      1  C   UNL     1       2.158   7.483  19.550  0.00  0.00    +0.000 A 
ATOM      2  C   UNL     1       2.332   7.788  18.193  0.00  0.00    +0.000 A 
ATOM      3  C   UNL     1       2.007   9.047  17.713  0.00  0.00    +0.000 A 
ATOM      4  C   UNL     1       1.404   9.969  18.556  0.00  0.00    +0.000 A 
ATOM      5  C   UNL     1       0.882   9.525  19.776  0.00  0.00    +0.000 A 
ATOM      6  C   UNL     1       1.401   8.364  20.336  0.00  0.00    +0.000 A 
ENDROOT
BRANCH   5   7
ATOM      7  N   UNL     1      -0.477   9.911  20.159  0.00  0.00    +0.000 N 
ATOM      8  C   UNL     1      -1.111  10.692  19.055  0.00  0.00    +0.000 C 
ATOM      9  C   UNL     1      -0.700  12.091  19.415  0.00  0.00    +0.000 A 
ATOM     10  C   UNL     1      -0.145  13.064  18.600  0.00  0.00    +0.000 A 
ATOM     11  C   UNL     1       0.641  14.057  19.222  0.00  0.00    +0.000 A 
ATOM     12  F   UNL     1       1.333  14.887  18.421  0.00  0.00    +0.000 F 
ATOM     13  C   UNL     1       0.830  14.126  20.616  0.00  0.00    +0.000 A 
ATOM     14  C   UNL     1       0.188  13.166  21.424  0.00  0.00    +0.000 A 
ATOM     15  C   UNL     1      -0.516  12.153  20.787  0.00  0.00    +0.000 A 
ATOM     16  C   UNL     1      -0.558  10.757  21.287  0.00  0.00    +0.000 C 
ATOM     17  O   UNL     1      -0.422  10.460  22.471  0.00  0.00    +0.000 OA
BRANCH  13  18
ATOM     18  C   UNL     1       1.840  15.076  21.252  0.00  0.00    +0.000 C 
BRANCH  18  19
ATOM     19  C   UNL     1       3.126  14.359  21.628  0.00  0.00    +0.000 C 
ATOM     20  N   UNL     1       4.194  13.765  21.940  0.00  0.00    +0.000 NA
ENDBRANCH  18  19
ENDBRANCH  13  18
ENDBRANCH   5   7
BRANCH   1  22
ATOM     21  C   UNL     1       1.710   5.221  20.618  0.00  0.00    +0.000 C 
ATOM     22  C   UNL     1       2.768   6.210  20.107  0.00  0.00    +0.000 C 
BRANCH  22  23
ATOM     23  C   UNL     1       3.779   5.531  19.158  0.00  0.00    +0.000 C 
BRANCH  23  24
ATOM     24  C   UNL     1       3.223   4.325  18.485  0.00  0.00    +0.000 A 
ATOM     25  N   UNL     1       2.358   4.297  17.490  0.00  0.00    +0.000 NA
ATOM     26  N   UNL     1       2.094   2.986  17.182  0.00  0.00    +0.000 NA
ATOM     27  C   UNL     1       2.824   2.242  17.977  0.00  0.00    +0.000 A 
ATOM     28  N   UNL     1       3.537   3.034  18.819  0.00  0.00    +0.000 N 
ATOM     29  C   UNL     1       4.429   2.603  19.860  0.00  0.00    +0.000 C 
ENDBRANCH  23  24
ENDBRANCH  22  23
ENDBRANCH   1  22
TORSDOF 6
ENDMDL
MODEL 8
REMARK VINA RESULT:      -7.4      4.745      7.110
REMARK  Name = 
REMARK  8 active torsions:
REMARK  status: ('A' for Active; 'I' for Inactive)
REMARK    1  A    between atoms: C_1  and  C_2
REMARK    2  A    between atoms: C_2  and  C_3
REMARK    3  A    between atoms: C_2  and  C_10
REMARK    4  A    between atoms: C_3  and  C_4
REMARK    5  A    between atoms: N_8  and  C_9
REMARK    6  A    between atoms: C_14  and  N_15
REMARK    7  A    between atoms: C_21  and  C_22
REMARK    8  A    between atoms: C_22  and  C_23
REMARK                            x       y       z     vdW  Elec       q    Type
REMARK                         _______ _______ _______ _____ _____    ______ ____
ROOT
ATOM      1  C   UNL     1       8.007   7.780  17.886  0.00  0.00    +0.000 A 
ATOM      2  C   UNL     1       7.905   6.964  19.020  0.00  0.00    +0.000 A 
ATOM      3  C   UNL     1       7.672   5.604  18.882  0.00  0.00    +0.000 A 
ATOM      4  C   UNL     1       7.427   5.073  17.624  0.00  0.00    +0.000 A 
ATOM      5  C   UNL     1       7.142   5.946  16.569  0.00  0.00    +0.000 A 
ATOM      6  C   UNL     1       7.596   7.257  16.652  0.00  0.00    +0.000 A 
ENDROOT
BRANCH   5   7
ATOM      7  N   UNL     1       5.984   5.684  15.713  0.00  0.00    +0.000 N 
ATOM      8  C   UNL     1       4.851   6.571  16.111  0.00  0.00    +0.000 C 
ATOM      9  C   UNL     1       4.170   5.725  17.150  0.00  0.00    +0.000 A 
ATOM     10  C   UNL     1       3.748   6.089  18.418  0.00  0.00    +0.000 A 
ATOM     11  C   UNL     1       3.650   5.067  19.385  0.00  0.00    +0.000 A 
ATOM     12  F   UNL     1       3.425   5.442  20.658  0.00  0.00    +0.000 F 
ATOM     13  C   UNL     1       3.905   3.712  19.100  0.00  0.00    +0.000 A 
ATOM     14  C   UNL     1       4.258   3.364  17.781  0.00  0.00    +0.000 A 
ATOM     15  C   UNL     1       4.425   4.393  16.864  0.00  0.00    +0.000 A 
ATOM     16  C   UNL     1       5.463   4.375  15.804  0.00  0.00    +0.000 C 
ATOM     17  O   UNL     1       5.918   3.340  15.325  0.00  0.00    +0.000 OA
BRANCH  13  18
ATOM     18  C   UNL     1       3.993   2.654  20.196  0.00  0.00    +0.000 C 
BRANCH  18  19
ATOM     19  C   UNL     1       2.778   2.690  21.108  0.00  0.00    +0.000 C 
ATOM     20  N   UNL     1       1.770   2.721  21.866  0.00  0.00    +0.000 NA
ENDBRANCH  18  19
ENDBRANCH  13  18
ENDBRANCH   5   7
BRANCH   1  22
ATOM     21  C   UNL     1       7.453  10.258  17.769  0.00  0.00    +0.000 C 
ATOM     22  C   UNL     1       8.530   9.197  18.038  0.00  0.00    +0.000 C 
BRANCH  22  23
ATOM     23  C   UNL     1       9.269   9.454  19.369  0.00  0.00    +0.000 C 
BRANCH  23  24
ATOM     24  C   UNL     1       9.409  10.902  19.686  0.00  0.00    +0.000 A 
ATOM     25  N   UNL     1       8.814  11.565  20.659  0.00  0.00    +0.000 NA
ATOM     26  N   UNL     1       9.199  12.880  20.585  0.00  0.00    +0.000 NA
ATOM     27  C   UNL     1      10.042  12.986  19.586  0.00  0.00    +0.000 A 
ATOM     28  N   UNL     1      10.194  11.778  18.984  0.00  0.00    +0.000 N 
ATOM     29  C   UNL     1      11.005  11.484  17.835  0.00  0.00    +0.000 C 
ENDBRANCH  23  24
ENDBRANCH  22  23
ENDBRANCH   1  22
TORSDOF 6
ENDMDL
MODEL 9
REMARK VINA RESULT:      -7.2      3.654      8.952
REMARK  Name = 
REMARK  8 active torsions:
REMARK  status: ('A' for Active; 'I' for Inactive)
REMARK    1  A    between atoms: C_1  and  C_2
REMARK    2  A    between atoms: C_2  and  C_3
REMARK    3  A    between atoms: C_2  and  C_10
REMARK    4  A    between atoms: C_3  and  C_4
REMARK    5  A    between atoms: N_8  and  C_9
REMARK    6  A    between atoms: C_14  and  N_15
REMARK    7  A    between atoms: C_21  and  C_22
REMARK    8  A    between atoms: C_22  and  C_23
REMARK                            x       y       z     vdW  Elec       q    Type
REMARK                         _______ _______ _______ _____ _____    ______ ____
ROOT
ATOM      1  C   UNL     1       2.269   7.396  19.367  0.00  0.00    +0.000 A 
ATOM      2  C   UNL     1       2.279   7.841  18.038  0.00  0.00    +0.000 A 
ATOM      3  C   UNL     1       1.924   9.147  17.736  0.00  0.00    +0.000 A 
ATOM      4  C   UNL     1       1.449   9.979  18.739  0.00  0.00    +0.000 A 
ATOM      5  C   UNL     1       1.073   9.413  19.963  0.00  0.00    +0.000 A 
ATOM      6  C   UNL     1       1.634   8.195  20.330  0.00  0.00    +0.000 A 
ENDROOT
BRANCH   5   7
ATOM      7  N   UNL     1      -0.219   9.767  20.551  0.00  0.00    +0.000 N 
ATOM      8  C   UNL     1      -1.058  10.474  19.538  0.00  0.00    +0.000 C 
ATOM      9  C   UNL     1      -0.654  11.902  19.772  0.00  0.00    +0.000 A 
ATOM     10  C   UNL     1      -0.282  12.857  18.840  0.00  0.00    +0.000 A 
ATOM     11  C   UNL     1       0.552  13.904  19.285  0.00  0.00    +0.000 A 
ATOM     12  F   UNL     1       1.068  14.722  18.349  0.00  0.00    +0.000 F 
ATOM     13  C   UNL     1       0.965  14.041  20.625  0.00  0.00    +0.000 A 
ATOM     14  C   UNL     1       0.505  13.096  21.563  0.00  0.00    +0.000 A 
ATOM     15  C   UNL     1      -0.250  12.031  21.091  0.00  0.00    +0.000 A 
ATOM     16  C   UNL     1      -0.150  10.658  21.644  0.00  0.00    +0.000 C 
ATOM     17  O   UNL     1       0.192  10.420  22.799  0.00  0.00    +0.000 OA
BRANCH  13  18
ATOM     18  C   UNL     1       2.025  15.054  21.047  0.00  0.00    +0.000 C 
BRANCH  18  19
ATOM     19  C   UNL     1       1.443  16.452  21.182  0.00  0.00    +0.000 C 
ATOM     20  N   UNL     1       0.961  17.612  21.293  0.00  0.00    +0.000 NA
ENDBRANCH  18  19
ENDBRANCH  13  18
ENDBRANCH   5   7
BRANCH   1  22
ATOM     21  C   UNL     1       2.052   5.210  20.645  0.00  0.00    +0.000 C 
ATOM     22  C   UNL     1       2.916   6.067  19.708  0.00  0.00    +0.000 C 
BRANCH  22  23
ATOM     23  C   UNL     1       3.396   5.268  18.477  0.00  0.00    +0.000 C 
BRANCH  23  24
ATOM     24  C   UNL     1       4.876   5.112  18.426  0.00  0.00    +0.000 A 
ATOM     25  N   UNL     1       5.659   4.639  19.375  0.00  0.00    +0.000 NA
ATOM     26  N   UNL     1       6.957   4.687  18.930  0.00  0.00    +0.000 NA
ATOM     27  C   UNL     1       6.934   5.164  17.708  0.00  0.00    +0.000 A 
ATOM     28  N   UNL     1       5.656   5.457  17.355  0.00  0.00    +0.000 N 
ATOM     29  C   UNL     1       5.216   6.027  16.111  0.00  0.00    +0.000 C 
ENDBRANCH  23  24
ENDBRANCH  22  23
ENDBRANCH   1  22
TORSDOF 6
ENDMDL
