MODEL 1
REMARK VINA RESULT:      -9.0      0.000      0.000
REMARK  Name = 
REMARK  4 active torsions:
REMARK  status: ('A' for Active; 'I' for Inactive)
REMARK    1  A    between atoms: C_2  and  N_3
REMARK    2  A    between atoms: C_2  and  C_17
REMARK    3  A    between atoms: N_8  and  C_9
REMARK    4  A    between atoms: C_9  and  C_10
REMARK                            x       y       z     vdW  Elec       q    Type
REMARK                         _______ _______ _______ _____ _____    ______ ____
ROOT
ATOM      1  N   UNL     1       3.647   3.485  17.926  0.00  0.00    +0.000 NA
ATOM      2  C   UNL     1       2.753   3.842  18.776  0.00  0.00    +0.000 A 
ATOM      3  S   UNL     1       1.246   2.823  18.692  0.00  0.00    +0.000 S 
ATOM      4  C   UNL     1       0.668   3.483  20.194  0.00  0.00    +0.000 A 
ATOM      5  C   UNL     1       1.460   4.475  20.612  0.00  0.00    +0.000 A 
ATOM      6  N   UNL     1       2.590   4.739  19.837  0.00  0.00    +0.000 N 
ENDROOT
BRANCH   1   8
ATOM      7  O   UNL     1       5.589   3.772  19.120  0.00  0.00    +0.000 OA
ATOM      8  C   UNL     1       4.947   3.853  18.079  0.00  0.00    +0.000 C 
BRANCH   8   9
ATOM      9  C   UNL     1       5.675   4.249  16.846  0.00  0.00    +0.000 A 
ATOM     10  C   UNL     1       6.632   5.245  16.939  0.00  0.00    +0.000 A 
ATOM     11  N   UNL     1       7.370   5.686  15.893  0.00  0.00    +0.000 NA
ATOM     12  C   UNL     1       7.175   5.124  14.698  0.00  0.00    +0.000 A 
ATOM     13  N   UNL     1       7.917   5.560  13.677  0.00  0.00    +0.000 NA
ATOM     14  C   UNL     1       7.723   4.981  12.475  0.00  0.00    +0.000 A 
ATOM     15  C   UNL     1       6.798   3.977  12.282  0.00  0.00    +0.000 A 
ATOM     16  N   UNL     1       6.025   3.516  13.288  0.00  0.00    +0.000 NA
ATOM     17  C   UNL     1       6.220   4.090  14.498  0.00  0.00    +0.000 A 
ATOM     18  C   UNL     1       5.474   3.667  15.596  0.00  0.00    +0.000 A 
ENDBRANCH   8   9
ENDBRANCH   1   8
BRANCH   6  19
ATOM     19  C   UNL     1       3.327   5.989  20.016  0.00  0.00    +0.000 C 
BRANCH  19  20
ATOM     20  C   UNL     1       2.570   7.189  19.495  0.00  0.00    +0.000 A 
ATOM     21  C   UNL     1       1.735   7.939  20.337  0.00  0.00    +0.000 A 
ATOM     22  C   UNL     1       1.016   9.029  19.838  0.00  0.00    +0.000 A 
ATOM     23  C   UNL     1       1.126   9.390  18.496  0.00  0.00    +0.000 A 
ATOM     24  C   UNL     1       1.952   8.654  17.649  0.00  0.00    +0.000 A 
ATOM     25  C   UNL     1       2.663   7.565  18.151  0.00  0.00    +0.000 A 
ATOM     26  F   UNL     1       3.430   6.858  17.309  0.00  0.00    +0.000 F 
ENDBRANCH  19  20
ENDBRANCH   6  19
TORSDOF 4
ENDMDL
MODEL 2
REMARK VINA RESULT:      -9.0      0.930      1.324
REMARK  Name = 
REMARK  4 active torsions:
REMARK  status: ('A' for Active; 'I' for Inactive)
REMARK    1  A    between atoms: C_2  and  N_3
REMARK    2  A    between atoms: C_2  and  C_17
REMARK    3  A    between atoms: N_8  and  C_9
REMARK    4  A    between atoms: C_9  and  C_10
REMARK                            x       y       z     vdW  Elec       q    Type
REMARK                         _______ _______ _______ _____ _____    ______ ____
ROOT
ATOM      1  N   UNL     1       3.617   3.540  17.869  0.00  0.00    +0.000 NA
ATOM      2  C   UNL     1       2.722   3.818  18.746  0.00  0.00    +0.000 A 
ATOM      3  S   UNL     1       1.241   2.767  18.608  0.00  0.00    +0.000 S 
ATOM      4  C   UNL     1       0.659   3.316  20.152  0.00  0.00    +0.000 A 
ATOM      5  C   UNL     1       1.427   4.301  20.626  0.00  0.00    +0.000 A 
ATOM      6  N   UNL     1       2.543   4.643  19.861  0.00  0.00    +0.000 N 
ENDROOT
BRANCH   1   8
ATOM      7  O   UNL     1       5.532   3.889  19.090  0.00  0.00    +0.000 OA
ATOM      8  C   UNL     1       4.909   3.932  18.036  0.00  0.00    +0.000 C 
BRANCH   8   9
ATOM      9  C   UNL     1       5.653   4.309  16.807  0.00  0.00    +0.000 A 
ATOM     10  C   UNL     1       6.627   5.287  16.902  0.00  0.00    +0.000 A 
ATOM     11  N   UNL     1       7.381   5.709  15.859  0.00  0.00    +0.000 NA
ATOM     12  C   UNL     1       7.185   5.145  14.666  0.00  0.00    +0.000 A 
ATOM     13  N   UNL     1       7.943   5.562  13.648  0.00  0.00    +0.000 NA
ATOM     14  C   UNL     1       7.747   4.981  12.448  0.00  0.00    +0.000 A 
ATOM     15  C   UNL     1       6.804   3.993  12.252  0.00  0.00    +0.000 A 
ATOM     16  N   UNL     1       6.016   3.552  13.255  0.00  0.00    +0.000 NA
ATOM     17  C   UNL     1       6.212   4.128  14.463  0.00  0.00    +0.000 A 
ATOM     18  C   UNL     1       5.450   3.724  15.558  0.00  0.00    +0.000 A 
ENDBRANCH   8   9
ENDBRANCH   1   8
BRANCH   6  19
ATOM     19  C   UNL     1       3.249   5.899  20.113  0.00  0.00    +0.000 C 
BRANCH  19  20
ATOM     20  C   UNL     1       2.564   7.087  19.477  0.00  0.00    +0.000 A 
ATOM     21  C   UNL     1       2.776   7.408  18.127  0.00  0.00    +0.000 A 
ATOM     22  C   UNL     1       2.161   8.526  17.557  0.00  0.00    +0.000 A 
ATOM     23  C   UNL     1       1.322   9.335  18.322  0.00  0.00    +0.000 A 
ATOM     24  C   UNL     1       1.103   9.028  19.664  0.00  0.00    +0.000 A 
ATOM     25  C   UNL     1       1.723   7.914  20.228  0.00  0.00    +0.000 A 
ATOM     26  F   UNL     1       1.516   7.656  21.528  0.00  0.00    +0.000 F 
ENDBRANCH  19  20
ENDBRANCH   6  19
TORSDOF 4
ENDMDL
MODEL 3
REMARK VINA RESULT:      -8.2      0.971      1.132
REMARK  Name = 
REMARK  4 active torsions:
REMARK  status: ('A' for Active; 'I' for Inactive)
REMARK    1  A    between atoms: C_2  and  N_3
REMARK    2  A    between atoms: C_2  and  C_17
REMARK    3  A    between atoms: N_8  and  C_9
REMARK    4  A    between atoms: C_9  and  C_10
REMARK                            x       y       z     vdW  Elec       q    Type
REMARK                         _______ _______ _______ _____ _____    ______ ____
ROOT
ATOM      1  N   UNL     1       4.555   3.497  18.909  0.00  0.00    +0.000 NA
ATOM      2  C   UNL     1       3.363   3.831  19.250  0.00  0.00    +0.000 A 
ATOM      3  S   UNL     1       2.388   2.433  19.890  0.00  0.00    +0.000 S 
ATOM      4  C   UNL     1       1.159   3.509  20.483  0.00  0.00    +0.000 A 
ATOM      5  C   UNL     1       1.397   4.764  20.091  0.00  0.00    +0.000 A 
ATOM      6  N   UNL     1       2.572   4.978  19.368  0.00  0.00    +0.000 N 
ENDROOT
BRANCH   1   8
ATOM      7  O   UNL     1       6.095   5.009  19.698  0.00  0.00    +0.000 OA
ATOM      8  C   UNL     1       5.535   4.431  18.774  0.00  0.00    +0.000 C 
BRANCH   8   9
ATOM      9  C   UNL     1       6.054   4.654  17.401  0.00  0.00    +0.000 A 
ATOM     10  C   UNL     1       7.031   5.617  17.216  0.00  0.00    +0.000 A 
ATOM     11  N   UNL     1       7.593   5.906  16.019  0.00  0.00    +0.000 NA
ATOM     12  C   UNL     1       7.193   5.217  14.948  0.00  0.00    +0.000 A 
ATOM     13  N   UNL     1       7.763   5.504  13.775  0.00  0.00    +0.000 NA
ATOM     14  C   UNL     1       7.362   4.798  12.699  0.00  0.00    +0.000 A 
ATOM     15  C   UNL     1       6.399   3.814  12.781  0.00  0.00    +0.000 A 
ATOM     16  N   UNL     1       5.796   3.502  13.947  0.00  0.00    +0.000 NA
ATOM     17  C   UNL     1       6.199   4.204  15.031  0.00  0.00    +0.000 A 
ATOM     18  C   UNL     1       5.638   3.939  16.279  0.00  0.00    +0.000 A 
ENDBRANCH   8   9
ENDBRANCH   1   8
BRANCH   6  19
ATOM     19  C   UNL     1       2.759   6.223  18.623  0.00  0.00    +0.000 C 
BRANCH  19  20
ATOM     20  C   UNL     1       2.116   7.409  19.304  0.00  0.00    +0.000 A 
ATOM     21  C   UNL     1       1.780   7.368  20.666  0.00  0.00    +0.000 A 
ATOM     22  C   UNL     1       1.159   8.460  21.278  0.00  0.00    +0.000 A 
ATOM     23  C   UNL     1       0.870   9.609  20.543  0.00  0.00    +0.000 A 
ATOM     24  C   UNL     1       1.199   9.664  19.190  0.00  0.00    +0.000 A 
ATOM     25  C   UNL     1       1.814   8.569  18.584  0.00  0.00    +0.000 A 
ATOM     26  F   UNL     1       2.096   8.637  17.274  0.00  0.00    +0.000 F 
ENDBRANCH  19  20
ENDBRANCH   6  19
TORSDOF 4
ENDMDL
MODEL 4
REMARK VINA RESULT:      -7.7      3.119      7.837
REMARK  Name = 
REMARK  4 active torsions:
REMARK  status: ('A' for Active; 'I' for Inactive)
REMARK    1  A    between atoms: C_2  and  N_3
REMARK    2  A    between atoms: C_2  and  C_17
REMARK    3  A    between atoms: N_8  and  C_9
REMARK    4  A    between atoms: C_9  and  C_10
REMARK                            x       y       z     vdW  Elec       q    Type
REMARK                         _______ _______ _______ _____ _____    ______ ____
ROOT
ATOM      1  N   UNL     1       2.212   5.813  20.321  0.00  0.00    +0.000 NA
ATOM      2  C   UNL     1       3.023   4.837  20.127  0.00  0.00    +0.000 A 
ATOM      3  S   UNL     1       2.464   3.285  20.899  0.00  0.00    +0.000 S 
ATOM      4  C   UNL     1       3.658   2.373  20.023  0.00  0.00    +0.000 A 
ATOM      5  C   UNL     1       4.480   3.187  19.353  0.00  0.00    +0.000 A 
ATOM      6  N   UNL     1       4.198   4.552  19.424  0.00  0.00    +0.000 N 
ENDROOT
BRANCH   1   8
ATOM      7  O   UNL     1       2.711   6.971  18.400  0.00  0.00    +0.000 OA
ATOM      8  C   UNL     1       2.247   6.922  19.534  0.00  0.00    +0.000 C 
BRANCH   8   9
ATOM      9  C   UNL     1       1.539   8.123  20.046  0.00  0.00    +0.000 A 
ATOM     10  C   UNL     1       1.448   9.233  19.224  0.00  0.00    +0.000 A 
ATOM     11  N   UNL     1       0.820  10.381  19.568  0.00  0.00    +0.000 NA
ATOM     12  C   UNL     1       0.241  10.451  20.768  0.00  0.00    +0.000 A 
ATOM     13  N   UNL     1      -0.385  11.586  21.092  0.00  0.00    +0.000 NA
ATOM     14  C   UNL     1      -0.977  11.647  22.302  0.00  0.00    +0.000 A 
ATOM     15  C   UNL     1      -0.948  10.592  23.190  0.00  0.00    +0.000 A 
ATOM     16  N   UNL     1      -0.318   9.434  22.901  0.00  0.00    +0.000 NA
ATOM     17  C   UNL     1       0.273   9.365  21.686  0.00  0.00    +0.000 A 
ATOM     18  C   UNL     1       0.935   8.202  21.299  0.00  0.00    +0.000 A 
ENDBRANCH   8   9
ENDBRANCH   1   8
BRANCH   6  19
ATOM     19  C   UNL     1       5.202   5.531  19.011  0.00  0.00    +0.000 C 
BRANCH  19  20
ATOM     20  C   UNL     1       5.706   5.290  17.606  0.00  0.00    +0.000 A 
ATOM     21  C   UNL     1       4.856   5.430  16.499  0.00  0.00    +0.000 A 
ATOM     22  C   UNL     1       5.325   5.176  15.206  0.00  0.00    +0.000 A 
ATOM     23  C   UNL     1       6.647   4.784  15.002  0.00  0.00    +0.000 A 
ATOM     24  C   UNL     1       7.502   4.641  16.093  0.00  0.00    +0.000 A 
ATOM     25  C   UNL     1       7.027   4.892  17.380  0.00  0.00    +0.000 A 
ATOM     26  F   UNL     1       7.863   4.721  18.415  0.00  0.00    +0.000 F 
ENDBRANCH  19  20
ENDBRANCH   6  19
TORSDOF 4
ENDMDL
MODEL 5
REMARK VINA RESULT:      -7.6      3.184      7.592
REMARK  Name = 
REMARK  4 active torsions:
REMARK  status: ('A' for Active; 'I' for Inactive)
REMARK    1  A    between atoms: C_2  and  N_3
REMARK    2  A    between atoms: C_2  and  C_17
REMARK    3  A    between atoms: N_8  and  C_9
REMARK    4  A    between atoms: C_9  and  C_10
REMARK                            x       y       z     vdW  Elec       q    Type
REMARK                         _______ _______ _______ _____ _____    ______ ____
ROOT
ATOM      1  N   UNL     1       1.899   5.988  20.454  0.00  0.00    +0.000 NA
ATOM      2  C   UNL     1       2.672   4.968  20.351  0.00  0.00    +0.000 A 
ATOM      3  S   UNL     1       2.024   3.496  21.205  0.00  0.00    +0.000 S 
ATOM      4  C   UNL     1       3.202   2.478  20.429  0.00  0.00    +0.000 A 
ATOM      5  C   UNL     1       4.078   3.211  19.735  0.00  0.00    +0.000 A 
ATOM      6  N   UNL     1       3.853   4.588  19.706  0.00  0.00    +0.000 N 
ENDROOT
BRANCH   1   8
ATOM      7  O   UNL     1       2.347   6.963  18.423  0.00  0.00    +0.000 OA
ATOM      8  C   UNL     1       2.006   7.039  19.598  0.00  0.00    +0.000 C 
BRANCH   8   9
ATOM      9  C   UNL     1       1.534   8.355  20.099  0.00  0.00    +0.000 A 
ATOM     10  C   UNL     1       1.429   8.539  21.467  0.00  0.00    +0.000 A 
ATOM     11  N   UNL     1       1.024   9.692  22.048  0.00  0.00    +0.000 NA
ATOM     12  C   UNL     1       0.714  10.723  21.259  0.00  0.00    +0.000 A 
ATOM     13  N   UNL     1       0.326  11.860  21.845  0.00  0.00    +0.000 NA
ATOM     14  C   UNL     1       0.024  12.901  21.044  0.00  0.00    +0.000 A 
ATOM     15  C   UNL     1       0.102  12.820  19.669  0.00  0.00    +0.000 A 
ATOM     16  N   UNL     1       0.482  11.686  19.042  0.00  0.00    +0.000 NA
ATOM     17  C   UNL     1       0.792  10.640  19.842  0.00  0.00    +0.000 A 
ATOM     18  C   UNL     1       1.206   9.434  19.280  0.00  0.00    +0.000 A 
ENDBRANCH   8   9
ENDBRANCH   1   8
BRANCH   6  19
ATOM     19  C   UNL     1       4.911   5.495  19.263  0.00  0.00    +0.000 C 
BRANCH  19  20
ATOM     20  C   UNL     1       5.474   5.114  17.912  0.00  0.00    +0.000 A 
ATOM     21  C   UNL     1       4.635   4.936  16.803  0.00  0.00    +0.000 A 
ATOM     22  C   UNL     1       5.163   4.555  15.565  0.00  0.00    +0.000 A 
ATOM     23  C   UNL     1       6.534   4.352  15.418  0.00  0.00    +0.000 A 
ATOM     24  C   UNL     1       7.380   4.526  16.512  0.00  0.00    +0.000 A 
ATOM     25  C   UNL     1       6.846   4.902  17.744  0.00  0.00    +0.000 A 
ATOM     26  F   UNL     1       7.678   5.036  18.788  0.00  0.00    +0.000 F 
ENDBRANCH  19  20
ENDBRANCH   6  19
TORSDOF 4
ENDMDL
MODEL 6
REMARK VINA RESULT:      -7.3      1.089      1.443
REMARK  Name = 
REMARK  4 active torsions:
REMARK  status: ('A' for Active; 'I' for Inactive)
REMARK    1  A    between atoms: C_2  and  N_3
REMARK    2  A    between atoms: C_2  and  C_17
REMARK    3  A    between atoms: N_8  and  C_9
REMARK    4  A    between atoms: C_9  and  C_10
REMARK                            x       y       z     vdW  Elec       q    Type
REMARK                         _______ _______ _______ _____ _____    ______ ____
ROOT
ATOM      1  N   UNL     1       4.635   3.300  18.826  0.00  0.00    +0.000 NA
ATOM      2  C   UNL     1       3.382   3.565  18.917  0.00  0.00    +0.000 A 
ATOM      3  S   UNL     1       2.410   2.180  19.588  0.00  0.00    +0.000 S 
ATOM      4  C   UNL     1       1.025   3.208  19.810  0.00  0.00    +0.000 A 
ATOM      5  C   UNL     1       1.241   4.416  19.282  0.00  0.00    +0.000 A 
ATOM      6  N   UNL     1       2.505   4.639  18.736  0.00  0.00    +0.000 N 
ENDROOT
BRANCH   1   8
ATOM      7  O   UNL     1       6.063   4.898  19.654  0.00  0.00    +0.000 OA
ATOM      8  C   UNL     1       5.557   4.294  18.715  0.00  0.00    +0.000 C 
BRANCH   8   9
ATOM      9  C   UNL     1       6.087   4.560  17.354  0.00  0.00    +0.000 A 
ATOM     10  C   UNL     1       7.036   5.556  17.201  0.00  0.00    +0.000 A 
ATOM     11  N   UNL     1       7.605   5.885  16.017  0.00  0.00    +0.000 NA
ATOM     12  C   UNL     1       7.239   5.206  14.928  0.00  0.00    +0.000 A 
ATOM     13  N   UNL     1       7.815   5.533  13.768  0.00  0.00    +0.000 NA
ATOM     14  C   UNL     1       7.450   4.836  12.674  0.00  0.00    +0.000 A 
ATOM     15  C   UNL     1       6.517   3.822  12.723  0.00  0.00    +0.000 A 
ATOM     16  N   UNL     1       5.909   3.468  13.876  0.00  0.00    +0.000 NA
ATOM     17  C   UNL     1       6.276   4.161  14.978  0.00  0.00    +0.000 A 
ATOM     18  C   UNL     1       5.708   3.854  16.213  0.00  0.00    +0.000 A 
ENDBRANCH   8   9
ENDBRANCH   1   8
BRANCH   6  19
ATOM     19  C   UNL     1       2.733   5.786  17.857  0.00  0.00    +0.000 C 
BRANCH  19  20
ATOM     20  C   UNL     1       2.192   7.075  18.431  0.00  0.00    +0.000 A 
ATOM     21  C   UNL     1       1.725   8.100  17.595  0.00  0.00    +0.000 A 
ATOM     22  C   UNL     1       1.254   9.300  18.137  0.00  0.00    +0.000 A 
ATOM     23  C   UNL     1       1.237   9.490  19.518  0.00  0.00    +0.000 A 
ATOM     24  C   UNL     1       1.697   8.480  20.360  0.00  0.00    +0.000 A 
ATOM     25  C   UNL     1       2.170   7.287  19.814  0.00  0.00    +0.000 A 
ATOM     26  F   UNL     1       2.632   6.341  20.644  0.00  0.00    +0.000 F 
ENDBRANCH  19  20
ENDBRANCH   6  19
TORSDOF 4
ENDMDL
MODEL 7
REMARK VINA RESULT:      -7.3      3.298      8.096
REMARK  Name = 
REMARK  4 active torsions:
REMARK  status: ('A' for Active; 'I' for Inactive)
REMARK    1  A    between atoms: C_2  and  N_3
REMARK    2  A    between atoms: C_2  and  C_17
REMARK    3  A    between atoms: N_8  and  C_9
REMARK    4  A    between atoms: C_9  and  C_10
REMARK                            x       y       z     vdW  Elec       q    Type
REMARK                         _______ _______ _______ _____ _____    ______ ____
ROOT
ATOM      1  N   UNL     1       1.581   6.186  20.741  0.00  0.00    +0.000 NA
ATOM      2  C   UNL     1       2.268   5.171  20.358  0.00  0.00    +0.000 A 
ATOM      3  S   UNL     1       1.482   3.582  20.778  0.00  0.00    +0.000 S 
ATOM      4  C   UNL     1       2.584   2.719  19.746  0.00  0.00    +0.000 A 
ATOM      5  C   UNL     1       3.531   3.536  19.274  0.00  0.00    +0.000 A 
ATOM      6  N   UNL     1       3.424   4.882  19.626  0.00  0.00    +0.000 N 
ENDROOT
BRANCH   1   8
ATOM      7  O   UNL     1       2.411   7.645  19.172  0.00  0.00    +0.000 OA
ATOM      8  C   UNL     1       1.792   7.418  20.206  0.00  0.00    +0.000 C 
BRANCH   8   9
ATOM      9  C   UNL     1       1.092   8.554  20.858  0.00  0.00    +0.000 A 
ATOM     10  C   UNL     1       1.305   8.769  22.208  0.00  0.00    +0.000 A 
ATOM     11  N   UNL     1       0.737   9.775  22.914  0.00  0.00    +0.000 NA
ATOM     12  C   UNL     1      -0.071  10.622  22.272  0.00  0.00    +0.000 A 
ATOM     13  N   UNL     1      -0.617  11.617  22.977  0.00  0.00    +0.000 NA
ATOM     14  C   UNL     1      -1.423  12.475  22.321  0.00  0.00    +0.000 A 
ATOM     15  C   UNL     1      -1.693  12.349  20.975  0.00  0.00    +0.000 A 
ATOM     16  N   UNL     1      -1.166  11.352  20.232  0.00  0.00    +0.000 NA
ATOM     17  C   UNL     1      -0.351  10.492  20.884  0.00  0.00    +0.000 A 
ATOM     18  C   UNL     1       0.246   9.440  20.192  0.00  0.00    +0.000 A 
ENDBRANCH   8   9
ENDBRANCH   1   8
BRANCH   6  19
ATOM     19  C   UNL     1       4.562   5.781  19.442  0.00  0.00    +0.000 C 
BRANCH  19  20
ATOM     20  C   UNL     1       5.376   5.445  18.214  0.00  0.00    +0.000 A 
ATOM     21  C   UNL     1       6.629   4.823  18.323  0.00  0.00    +0.000 A 
ATOM     22  C   UNL     1       7.385   4.543  17.181  0.00  0.00    +0.000 A 
ATOM     23  C   UNL     1       6.901   4.874  15.917  0.00  0.00    +0.000 A 
ATOM     24  C   UNL     1       5.658   5.492  15.794  0.00  0.00    +0.000 A 
ATOM     25  C   UNL     1       4.910   5.773  16.936  0.00  0.00    +0.000 A 
ATOM     26  F   UNL     1       3.729   6.392  16.792  0.00  0.00    +0.000 F 
ENDBRANCH  19  20
ENDBRANCH   6  19
TORSDOF 4
ENDMDL
MODEL 8
REMARK VINA RESULT:      -7.3      3.094      7.909
REMARK  Name = 
REMARK  4 active torsions:
REMARK  status: ('A' for Active; 'I' for Inactive)
REMARK    1  A    between atoms: C_2  and  N_3
REMARK    2  A    between atoms: C_2  and  C_17
REMARK    3  A    between atoms: N_8  and  C_9
REMARK    4  A    between atoms: C_9  and  C_10
REMARK                            x       y       z     vdW  Elec       q    Type
REMARK                         _______ _______ _______ _____ _____    ______ ____
ROOT
ATOM      1  N   UNL     1       1.954   5.936  20.582  0.00  0.00    +0.000 NA
ATOM      2  C   UNL     1       2.711   4.913  20.420  0.00  0.00    +0.000 A 
ATOM      3  S   UNL     1       2.067   3.416  21.234  0.00  0.00    +0.000 S 
ATOM      4  C   UNL     1       3.212   2.416  20.390  0.00  0.00    +0.000 A 
ATOM      5  C   UNL     1       4.078   3.164  19.700  0.00  0.00    +0.000 A 
ATOM      6  N   UNL     1       3.870   4.544  19.729  0.00  0.00    +0.000 N 
ENDROOT
BRANCH   1   8
ATOM      7  O   UNL     1       2.553   7.017  18.645  0.00  0.00    +0.000 OA
ATOM      8  C   UNL     1       2.051   7.018  19.763  0.00  0.00    +0.000 C 
BRANCH   8   9
ATOM      9  C   UNL     1       1.367   8.257  20.214  0.00  0.00    +0.000 A 
ATOM     10  C   UNL     1       1.337   9.342  19.355  0.00  0.00    +0.000 A 
ATOM     11  N   UNL     1       0.736  10.520  19.643  0.00  0.00    +0.000 NA
ATOM     12  C   UNL     1       0.123  10.647  20.822  0.00  0.00    +0.000 A 
ATOM     13  N   UNL     1      -0.476  11.810  21.089  0.00  0.00    +0.000 NA
ATOM     14  C   UNL     1      -1.101  11.929  22.277  0.00  0.00    +0.000 A 
ATOM     15  C   UNL     1      -1.134  10.904  23.199  0.00  0.00    +0.000 A 
ATOM     16  N   UNL     1      -0.534   9.717  22.966  0.00  0.00    +0.000 NA
ATOM     17  C   UNL     1       0.092   9.591  21.773  0.00  0.00    +0.000 A 
ATOM     18  C   UNL     1       0.727   8.395  21.445  0.00  0.00    +0.000 A 
ENDBRANCH   8   9
ENDBRANCH   1   8
BRANCH   6  19
ATOM     19  C   UNL     1       4.928   5.455  19.293  0.00  0.00    +0.000 C 
BRANCH  19  20
ATOM     20  C   UNL     1       5.557   5.029  17.986  0.00  0.00    +0.000 A 
ATOM     21  C   UNL     1       6.947   4.877  17.868  0.00  0.00    +0.000 A 
ATOM     22  C   UNL     1       7.521   4.511  16.647  0.00  0.00    +0.000 A 
ATOM     23  C   UNL     1       6.717   4.288  15.530  0.00  0.00    +0.000 A 
ATOM     24  C   UNL     1       5.335   4.436  15.633  0.00  0.00    +0.000 A 
ATOM     25  C   UNL     1       4.769   4.804  16.853  0.00  0.00    +0.000 A 
ATOM     26  F   UNL     1       3.439   4.966  16.919  0.00  0.00    +0.000 F 
ENDBRANCH  19  20
ENDBRANCH   6  19
TORSDOF 4
ENDMDL
MODEL 9
REMARK VINA RESULT:      -7.3      3.446      8.170
REMARK  Name = 
REMARK  4 active torsions:
REMARK  status: ('A' for Active; 'I' for Inactive)
REMARK    1  A    between atoms: C_2  and  N_3
REMARK    2  A    between atoms: C_2  and  C_17
REMARK    3  A    between atoms: N_8  and  C_9
REMARK    4  A    between atoms: C_9  and  C_10
REMARK                            x       y       z     vdW  Elec       q    Type
REMARK                         _______ _______ _______ _____ _____    ______ ____
ROOT
ATOM      1  N   UNL     1       1.969   6.462  20.732  0.00  0.00    +0.000 NA
ATOM      2  C   UNL     1       2.155   5.370  20.082  0.00  0.00    +0.000 A 
ATOM      3  S   UNL     1       1.764   3.886  21.061  0.00  0.00    +0.000 S 
ATOM      4  C   UNL     1       1.827   2.884  19.642  0.00  0.00    +0.000 A 
ATOM      5  C   UNL     1       2.255   3.583  18.586  0.00  0.00    +0.000 A 
ATOM      6  N   UNL     1       2.495   4.941  18.795  0.00  0.00    +0.000 N 
ENDROOT
BRANCH   1   8
ATOM      7  O   UNL     1       2.187   7.870  18.929  0.00  0.00    +0.000 OA
ATOM      8  C   UNL     1       1.838   7.651  20.084  0.00  0.00    +0.000 C 
BRANCH   8   9
ATOM      9  C   UNL     1       1.084   8.715  20.794  0.00  0.00    +0.000 A 
ATOM     10  C   UNL     1       1.236   8.826  22.165  0.00  0.00    +0.000 A 
ATOM     11  N   UNL     1       0.615   9.759  22.924  0.00  0.00    +0.000 NA
ATOM     12  C   UNL     1      -0.188  10.636  22.318  0.00  0.00    +0.000 A 
ATOM     13  N   UNL     1      -0.787  11.559  23.075  0.00  0.00    +0.000 NA
ATOM     14  C   UNL     1      -1.588  12.448  22.456  0.00  0.00    +0.000 A 
ATOM     15  C   UNL     1      -1.800  12.425  21.094  0.00  0.00    +0.000 A 
ATOM     16  N   UNL     1      -1.219  11.503  20.297  0.00  0.00    +0.000 NA
ATOM     17  C   UNL     1      -0.409  10.611  20.913  0.00  0.00    +0.000 A 
ATOM     18  C   UNL     1       0.243   9.632  20.166  0.00  0.00    +0.000 A 
ENDBRANCH   8   9
ENDBRANCH   1   8
BRANCH   6  19
ATOM     19  C   UNL     1       3.264   5.710  17.817  0.00  0.00    +0.000 C 
BRANCH  19  20
ATOM     20  C   UNL     1       4.735   5.363  17.832  0.00  0.00    +0.000 A 
ATOM     21  C   UNL     1       5.550   5.713  18.919  0.00  0.00    +0.000 A 
ATOM     22  C   UNL     1       6.916   5.413  18.910  0.00  0.00    +0.000 A 
ATOM     23  C   UNL     1       7.484   4.755  17.820  0.00  0.00    +0.000 A 
ATOM     24  C   UNL     1       6.686   4.401  16.734  0.00  0.00    +0.000 A 
ATOM     25  C   UNL     1       5.326   4.707  16.747  0.00  0.00    +0.000 A 
ATOM     26  F   UNL     1       4.585   4.379  15.679  0.00  0.00    +0.000 F 
ENDBRANCH  19  20
ENDBRANCH   6  19
TORSDOF 4
ENDMDL
