MODEL 1
REMARK VINA RESULT:      -8.7      0.000      0.000
REMARK  Name = 
REMARK  6 active torsions:
REMARK  status: ('A' for Active; 'I' for Inactive)
REMARK    1  A    between atoms: C_2  and  C_19
REMARK    2  A    between atoms: N_3  and  C_4
REMARK    3  A    between atoms: C_8  and  S_9
REMARK    4  A    between atoms: S_9  and  N_12
REMARK    5  A    between atoms: C_22  and  O_23
REMARK    6  A    between atoms: O_23  and  C_24
REMARK                            x       y       z     vdW  Elec       q    Type
REMARK                         _______ _______ _______ _____ _____    ______ ____
ROOT
ATOM      1  C   UNL     1       2.409   5.699  20.255  0.00  0.00    +0.000 A 
ATOM      2  C   UNL     1       1.911   4.403  20.414  0.00  0.00    +0.000 A 
ATOM      3  C   UNL     1       2.598   3.299  19.897  0.00  0.00    +0.000 A 
ATOM      4  C   UNL     1       3.801   3.474  19.219  0.00  0.00    +0.000 A 
ATOM      5  C   UNL     1       4.299   4.765  19.046  0.00  0.00    +0.000 A 
ATOM      6  C   UNL     1       3.587   5.876  19.525  0.00  0.00    +0.000 A 
ENDROOT
BRANCH   1   9
ATOM      7  O   UNL     1       1.758   8.253  18.939  0.00  0.00    +0.000 OA
ATOM      8  C   UNL     1       1.527   8.027  20.120  0.00  0.00    +0.000 C 
ATOM      9  N   UNL     1       1.788   6.847  20.801  0.00  0.00    +0.000 N 
ATOM     10  H   UNL     1       1.366   6.733  21.716  0.00  0.00    +0.000 HD
BRANCH   8  11
ATOM     11  C   UNL     1       0.838   9.093  20.895  0.00  0.00    +0.000 A 
ATOM     12  C   UNL     1       0.947  10.416  20.442  0.00  0.00    +0.000 A 
ATOM     13  C   UNL     1       0.375  11.471  21.163  0.00  0.00    +0.000 A 
ATOM     14  C   UNL     1      -0.334  11.209  22.333  0.00  0.00    +0.000 A 
ATOM     15  C   UNL     1      -0.405   9.893  22.806  0.00  0.00    +0.000 A 
ATOM     16  C   UNL     1       0.171   8.834  22.094  0.00  0.00    +0.000 A 
BRANCH  14  17
ATOM     17  O   UNL     1      -0.941  12.131  23.128  0.00  0.00    +0.000 OA
BRANCH  17  18
ATOM     18  C   UNL     1      -2.341  12.354  23.021  0.00  0.00    +0.000 C 
ATOM     19  F   UNL     1      -3.089  11.587  23.840  0.00  0.00    +0.000 F 
ATOM     20  F   UNL     1      -2.588  13.647  23.333  0.00  0.00    +0.000 F 
ATOM     21  F   UNL     1      -2.733  12.148  21.745  0.00  0.00    +0.000 F 
ENDBRANCH  17  18
ENDBRANCH  14  17
ENDBRANCH   8  11
ENDBRANCH   1   9
BRANCH   5  22
ATOM     22  S   UNL     1       5.779   5.028  18.105  0.00  0.00    +0.000 S 
ATOM     23  O   UNL     1       5.757   6.396  17.618  0.00  0.00    +0.000 OA
ATOM     24  O   UNL     1       6.911   4.545  18.862  0.00  0.00    +0.000 OA
BRANCH  22  25
ATOM     25  N   UNL     1       5.619   4.082  16.732  0.00  0.00    +0.000 N 
ATOM     26  C   UNL     1       6.179   4.383  15.494  0.00  0.00    +0.000 C 
ATOM     27  N   UNL     1       7.258   5.073  15.363  0.00  0.00    +0.000 NA
ATOM     28  C   UNL     1       7.496   5.180  13.916  0.00  0.00    +0.000 C 
ATOM     29  C   UNL     1       6.643   4.105  13.266  0.00  0.00    +0.000 C 
ATOM     30  C   UNL     1       5.512   3.904  14.248  0.00  0.00    +0.000 C 
ATOM     31  H   UNL     1       4.836   3.436  16.817  0.00  0.00    +0.000 HD
ENDBRANCH  22  25
ENDBRANCH   5  22
TORSDOF 6
ENDMDL
MODEL 2
REMARK VINA RESULT:      -8.7      0.968      1.345
REMARK  Name = 
REMARK  6 active torsions:
REMARK  status: ('A' for Active; 'I' for Inactive)
REMARK    1  A    between atoms: C_2  and  C_19
REMARK    2  A    between atoms: N_3  and  C_4
REMARK    3  A    between atoms: C_8  and  S_9
REMARK    4  A    between atoms: S_9  and  N_12
REMARK    5  A    between atoms: C_22  and  O_23
REMARK    6  A    between atoms: O_23  and  C_24
REMARK                            x       y       z     vdW  Elec       q    Type
REMARK                         _______ _______ _______ _____ _____    ______ ____
ROOT
ATOM      1  C   UNL     1       2.877   5.867  19.300  0.00  0.00    +0.000 A 
ATOM      2  C   UNL     1       2.385   4.560  19.363  0.00  0.00    +0.000 A 
ATOM      3  C   UNL     1       3.024   3.517  18.682  0.00  0.00    +0.000 A 
ATOM      4  C   UNL     1       4.172   3.765  17.934  0.00  0.00    +0.000 A 
ATOM      5  C   UNL     1       4.662   5.068  17.857  0.00  0.00    +0.000 A 
ATOM      6  C   UNL     1       3.996   6.121  18.502  0.00  0.00    +0.000 A 
ENDROOT
BRANCH   1   9
ATOM      7  O   UNL     1       1.684   8.345  18.243  0.00  0.00    +0.000 OA
ATOM      8  C   UNL     1       1.776   8.099  19.439  0.00  0.00    +0.000 C 
ATOM      9  N   UNL     1       2.308   6.951  20.008  0.00  0.00    +0.000 N 
ATOM     10  H   UNL     1       2.139   6.799  20.996  0.00  0.00    +0.000 HD
BRANCH   8  11
ATOM     11  C   UNL     1       1.205   9.096  20.385  0.00  0.00    +0.000 A 
ATOM     12  C   UNL     1       0.702   8.633  21.609  0.00  0.00    +0.000 A 
ATOM     13  C   UNL     1       0.094   9.513  22.513  0.00  0.00    +0.000 A 
ATOM     14  C   UNL     1       0.006  10.870  22.210  0.00  0.00    +0.000 A 
ATOM     15  C   UNL     1       0.472  11.323  20.969  0.00  0.00    +0.000 A 
ATOM     16  C   UNL     1       1.074  10.447  20.057  0.00  0.00    +0.000 A 
BRANCH  14  17
ATOM     17  O   UNL     1      -0.552  11.834  22.992  0.00  0.00    +0.000 OA
BRANCH  17  18
ATOM     18  C   UNL     1      -1.959  12.036  22.979  0.00  0.00    +0.000 C 
ATOM     19  F   UNL     1      -2.654  11.139  23.708  0.00  0.00    +0.000 F 
ATOM     20  F   UNL     1      -2.215  13.262  23.488  0.00  0.00    +0.000 F 
ATOM     21  F   UNL     1      -2.407  12.008  21.705  0.00  0.00    +0.000 F 
ENDBRANCH  17  18
ENDBRANCH  14  17
ENDBRANCH   8  11
ENDBRANCH   1   9
BRANCH   5  22
ATOM     22  S   UNL     1       6.065   5.430  16.835  0.00  0.00    +0.000 S 
ATOM     23  O   UNL     1       5.814   6.696  16.169  0.00  0.00    +0.000 OA
ATOM     24  O   UNL     1       7.272   5.244  17.608  0.00  0.00    +0.000 OA
BRANCH  22  25
ATOM     25  N   UNL     1       6.042   4.288  15.610  0.00  0.00    +0.000 N 
ATOM     26  C   UNL     1       6.576   4.482  14.339  0.00  0.00    +0.000 C 
ATOM     27  N   UNL     1       7.561   5.277  14.107  0.00  0.00    +0.000 NA
ATOM     28  C   UNL     1       7.802   5.210  12.657  0.00  0.00    +0.000 C 
ATOM     29  C   UNL     1       7.099   3.956  12.169  0.00  0.00    +0.000 C 
ATOM     30  C   UNL     1       5.989   3.753  13.176  0.00  0.00    +0.000 C 
ATOM     31  H   UNL     1       5.346   3.568  15.788  0.00  0.00    +0.000 HD
ENDBRANCH  22  25
ENDBRANCH   5  22
TORSDOF 6
ENDMDL
MODEL 3
REMARK VINA RESULT:      -8.6      1.245      1.508
REMARK  Name = 
REMARK  6 active torsions:
REMARK  status: ('A' for Active; 'I' for Inactive)
REMARK    1  A    between atoms: C_2  and  C_19
REMARK    2  A    between atoms: N_3  and  C_4
REMARK    3  A    between atoms: C_8  and  S_9
REMARK    4  A    between atoms: S_9  and  N_12
REMARK    5  A    between atoms: C_22  and  O_23
REMARK    6  A    between atoms: O_23  and  C_24
REMARK                            x       y       z     vdW  Elec       q    Type
REMARK                         _______ _______ _______ _____ _____    ______ ____
ROOT
ATOM      1  C   UNL     1       2.669   5.929  18.784  0.00  0.00    +0.000 A 
ATOM      2  C   UNL     1       2.017   4.702  18.628  0.00  0.00    +0.000 A 
ATOM      3  C   UNL     1       2.612   3.658  17.910  0.00  0.00    +0.000 A 
ATOM      4  C   UNL     1       3.873   3.823  17.344  0.00  0.00    +0.000 A 
ATOM      5  C   UNL     1       4.524   5.048  17.485  0.00  0.00    +0.000 A 
ATOM      6  C   UNL     1       3.908   6.109  18.166  0.00  0.00    +0.000 A 
ENDROOT
BRANCH   1   9
ATOM      7  O   UNL     1       1.521   8.474  17.843  0.00  0.00    +0.000 OA
ATOM      8  C   UNL     1       1.631   8.183  19.027  0.00  0.00    +0.000 C 
ATOM      9  N   UNL     1       2.143   7.001  19.543  0.00  0.00    +0.000 N 
ATOM     10  H   UNL     1       1.990   6.818  20.528  0.00  0.00    +0.000 HD
BRANCH   8  11
ATOM     11  C   UNL     1       1.107   9.159  20.020  0.00  0.00    +0.000 A 
ATOM     12  C   UNL     1       0.857  10.470  19.589  0.00  0.00    +0.000 A 
ATOM     13  C   UNL     1       0.424  11.451  20.490  0.00  0.00    +0.000 A 
ATOM     14  C   UNL     1       0.213  11.122  21.826  0.00  0.00    +0.000 A 
ATOM     15  C   UNL     1       0.504   9.823  22.263  0.00  0.00    +0.000 A 
ATOM     16  C   UNL     1       0.945   8.839  21.369  0.00  0.00    +0.000 A 
BRANCH  14  17
ATOM     17  O   UNL     1      -0.207  11.967  22.806  0.00  0.00    +0.000 OA
BRANCH  17  18
ATOM     18  C   UNL     1      -1.586  12.292  22.925  0.00  0.00    +0.000 C 
ATOM     19  F   UNL     1      -2.176  12.640  21.763  0.00  0.00    +0.000 F 
ATOM     20  F   UNL     1      -2.236  11.207  23.405  0.00  0.00    +0.000 F 
ATOM     21  F   UNL     1      -1.737  13.298  23.813  0.00  0.00    +0.000 F 
ENDBRANCH  17  18
ENDBRANCH  14  17
ENDBRANCH   8  11
ENDBRANCH   1   9
BRANCH   5  22
ATOM     22  S   UNL     1       6.088   5.319  16.695  0.00  0.00    +0.000 S 
ATOM     23  O   UNL     1       6.039   6.620  16.051  0.00  0.00    +0.000 OA
ATOM     24  O   UNL     1       7.148   5.010  17.628  0.00  0.00    +0.000 OA
BRANCH  22  25
ATOM     25  N   UNL     1       6.157   4.218  15.434  0.00  0.00    +0.000 N 
ATOM     26  C   UNL     1       6.693   4.488  14.178  0.00  0.00    +0.000 C 
ATOM     27  N   UNL     1       7.625   5.354  13.986  0.00  0.00    +0.000 NA
ATOM     28  C   UNL     1       7.889   5.350  12.539  0.00  0.00    +0.000 C 
ATOM     29  C   UNL     1       7.277   4.067  12.001  0.00  0.00    +0.000 C 
ATOM     30  C   UNL     1       6.171   3.760  12.984  0.00  0.00    +0.000 C 
ATOM     31  H   UNL     1       5.508   3.448  15.580  0.00  0.00    +0.000 HD
ENDBRANCH  22  25
ENDBRANCH   5  22
TORSDOF 6
ENDMDL
MODEL 4
REMARK VINA RESULT:      -8.6      1.063      1.288
REMARK  Name = 
REMARK  6 active torsions:
REMARK  status: ('A' for Active; 'I' for Inactive)
REMARK    1  A    between atoms: C_2  and  C_19
REMARK    2  A    between atoms: N_3  and  C_4
REMARK    3  A    between atoms: C_8  and  S_9
REMARK    4  A    between atoms: S_9  and  N_12
REMARK    5  A    between atoms: C_22  and  O_23
REMARK    6  A    between atoms: O_23  and  C_24
REMARK                            x       y       z     vdW  Elec       q    Type
REMARK                         _______ _______ _______ _____ _____    ______ ____
ROOT
ATOM      1  C   UNL     1       2.985   5.354  20.092  0.00  0.00    +0.000 A 
ATOM      2  C   UNL     1       2.666   4.021  20.364  0.00  0.00    +0.000 A 
ATOM      3  C   UNL     1       3.451   2.976  19.863  0.00  0.00    +0.000 A 
ATOM      4  C   UNL     1       4.574   3.251  19.088  0.00  0.00    +0.000 A 
ATOM      5  C   UNL     1       4.893   4.578  18.802  0.00  0.00    +0.000 A 
ATOM      6  C   UNL     1       4.080   5.623  19.267  0.00  0.00    +0.000 A 
ENDROOT
BRANCH   1   9
ATOM      7  O   UNL     1       2.189   7.853  18.749  0.00  0.00    +0.000 OA
ATOM      8  C   UNL     1       1.936   7.610  19.922  0.00  0.00    +0.000 C 
ATOM      9  N   UNL     1       2.262   6.453  20.614  0.00  0.00    +0.000 N 
ATOM     10  H   UNL     1       1.820   6.308  21.514  0.00  0.00    +0.000 HD
BRANCH   8  11
ATOM     11  C   UNL     1       1.144   8.622  20.671  0.00  0.00    +0.000 A 
ATOM     12  C   UNL     1       0.409   9.563  19.935  0.00  0.00    +0.000 A 
ATOM     13  C   UNL     1      -0.305  10.580  20.582  0.00  0.00    +0.000 A 
ATOM     14  C   UNL     1      -0.310  10.649  21.972  0.00  0.00    +0.000 A 
ATOM     15  C   UNL     1       0.459   9.734  22.703  0.00  0.00    +0.000 A 
ATOM     16  C   UNL     1       1.181   8.719  22.063  0.00  0.00    +0.000 A 
BRANCH  14  17
ATOM     17  O   UNL     1      -0.958  11.575  22.729  0.00  0.00    +0.000 OA
BRANCH  17  18
ATOM     18  C   UNL     1      -0.775  12.961  22.472  0.00  0.00    +0.000 C 
ATOM     19  F   UNL     1       0.444  13.279  21.989  0.00  0.00    +0.000 F 
ATOM     20  F   UNL     1      -1.691  13.346  21.553  0.00  0.00    +0.000 F 
ATOM     21  F   UNL     1      -0.996  13.663  23.604  0.00  0.00    +0.000 F 
ENDBRANCH  17  18
ENDBRANCH  14  17
ENDBRANCH   8  11
ENDBRANCH   1   9
BRANCH   5  22
ATOM     22  S   UNL     1       6.262   4.954  17.740  0.00  0.00    +0.000 S 
ATOM     23  O   UNL     1       6.110   6.328  17.292  0.00  0.00    +0.000 OA
ATOM     24  O   UNL     1       7.486   4.529  18.379  0.00  0.00    +0.000 OA
BRANCH  22  25
ATOM     25  N   UNL     1       6.036   4.027  16.363  0.00  0.00    +0.000 N 
ATOM     26  C   UNL     1       6.505   4.365  15.097  0.00  0.00    +0.000 C 
ATOM     27  N   UNL     1       7.553   5.088  14.908  0.00  0.00    +0.000 NA
ATOM     28  C   UNL     1       7.692   5.227  13.450  0.00  0.00    +0.000 C 
ATOM     29  C   UNL     1       6.827   4.139  12.838  0.00  0.00    +0.000 C 
ATOM     30  C   UNL     1       5.769   3.890  13.889  0.00  0.00    +0.000 C 
ATOM     31  H   UNL     1       5.279   3.359  16.487  0.00  0.00    +0.000 HD
ENDBRANCH  22  25
ENDBRANCH   5  22
TORSDOF 6
ENDMDL
MODEL 5
REMARK VINA RESULT:      -8.5      5.891      9.836
REMARK  Name = 
REMARK  6 active torsions:
REMARK  status: ('A' for Active; 'I' for Inactive)
REMARK    1  A    between atoms: C_2  and  C_19
REMARK    2  A    between atoms: N_3  and  C_4
REMARK    3  A    between atoms: C_8  and  S_9
REMARK    4  A    between atoms: S_9  and  N_12
REMARK    5  A    between atoms: C_22  and  O_23
REMARK    6  A    between atoms: O_23  and  C_24
REMARK                            x       y       z     vdW  Elec       q    Type
REMARK                         _______ _______ _______ _____ _____    ______ ____
ROOT
ATOM      1  C   UNL     1       1.433   8.579  20.143  0.00  0.00    +0.000 A 
ATOM      2  C   UNL     1       1.249   8.411  21.519  0.00  0.00    +0.000 A 
ATOM      3  C   UNL     1       0.393   9.253  22.239  0.00  0.00    +0.000 A 
ATOM      4  C   UNL     1      -0.300  10.271  21.590  0.00  0.00    +0.000 A 
ATOM      5  C   UNL     1      -0.114  10.452  20.220  0.00  0.00    +0.000 A 
ATOM      6  C   UNL     1       0.779   9.637  19.507  0.00  0.00    +0.000 A 
ENDROOT
BRANCH   1   9
ATOM      7  O   UNL     1       1.765   5.657  20.317  0.00  0.00    +0.000 OA
ATOM      8  C   UNL     1       2.360   6.354  19.505  0.00  0.00    +0.000 C 
ATOM      9  N   UNL     1       2.242   7.728  19.354  0.00  0.00    +0.000 N 
ATOM     10  H   UNL     1       2.641   8.141  18.519  0.00  0.00    +0.000 HD
BRANCH   8  11
ATOM     11  C   UNL     1       3.253   5.662  18.538  0.00  0.00    +0.000 A 
ATOM     12  C   UNL     1       2.753   4.537  17.865  0.00  0.00    +0.000 A 
ATOM     13  C   UNL     1       3.565   3.805  16.991  0.00  0.00    +0.000 A 
ATOM     14  C   UNL     1       4.879   4.206  16.762  0.00  0.00    +0.000 A 
ATOM     15  C   UNL     1       5.389   5.305  17.467  0.00  0.00    +0.000 A 
ATOM     16  C   UNL     1       4.584   6.037  18.348  0.00  0.00    +0.000 A 
BRANCH  14  17
ATOM     17  O   UNL     1       5.775   3.595  15.941  0.00  0.00    +0.000 OA
BRANCH  17  18
ATOM     18  C   UNL     1       6.153   4.209  14.715  0.00  0.00    +0.000 C 
ATOM     19  F   UNL     1       5.362   5.236  14.342  0.00  0.00    +0.000 F 
ATOM     20  F   UNL     1       7.409   4.690  14.851  0.00  0.00    +0.000 F 
ATOM     21  F   UNL     1       6.162   3.283  13.732  0.00  0.00    +0.000 F 
ENDBRANCH  17  18
ENDBRANCH  14  17
ENDBRANCH   8  11
ENDBRANCH   1   9
BRANCH   5  22
ATOM     22  S   UNL     1      -0.909  11.799  19.385  0.00  0.00    +0.000 S 
ATOM     23  O   UNL     1      -2.264  11.899  19.898  0.00  0.00    +0.000 OA
ATOM     24  O   UNL     1      -0.036  12.950  19.410  0.00  0.00    +0.000 OA
BRANCH  22  25
ATOM     25  N   UNL     1      -1.087  11.307  17.794  0.00  0.00    +0.000 N 
ATOM     26  C   UNL     1      -2.310  11.089  17.166  0.00  0.00    +0.000 C 
ATOM     27  N   UNL     1      -3.389  11.704  17.503  0.00  0.00    +0.000 NA
ATOM     28  C   UNL     1      -4.445  11.181  16.622  0.00  0.00    +0.000 C 
ATOM     29  C   UNL     1      -3.732  10.499  15.467  0.00  0.00    +0.000 C 
ATOM     30  C   UNL     1      -2.401  10.094  16.057  0.00  0.00    +0.000 C 
ATOM     31  H   UNL     1      -0.227  10.900  17.434  0.00  0.00    +0.000 HD
ENDBRANCH  22  25
ENDBRANCH   5  22
TORSDOF 6
ENDMDL
MODEL 6
REMARK VINA RESULT:      -8.5      6.188     10.197
REMARK  Name = 
REMARK  6 active torsions:
REMARK  status: ('A' for Active; 'I' for Inactive)
REMARK    1  A    between atoms: C_2  and  C_19
REMARK    2  A    between atoms: N_3  and  C_4
REMARK    3  A    between atoms: C_8  and  S_9
REMARK    4  A    between atoms: S_9  and  N_12
REMARK    5  A    between atoms: C_22  and  O_23
REMARK    6  A    between atoms: O_23  and  C_24
REMARK                            x       y       z     vdW  Elec       q    Type
REMARK                         _______ _______ _______ _____ _____    ______ ____
ROOT
ATOM      1  C   UNL     1       2.246   7.729  19.076  0.00  0.00    +0.000 A 
ATOM      2  C   UNL     1       2.073   7.325  20.403  0.00  0.00    +0.000 A 
ATOM      3  C   UNL     1       1.196   8.008  21.254  0.00  0.00    +0.000 A 
ATOM      4  C   UNL     1       0.470   9.100  20.786  0.00  0.00    +0.000 A 
ATOM      5  C   UNL     1       0.645   9.515  19.466  0.00  0.00    +0.000 A 
ATOM      6  C   UNL     1       1.558   8.859  18.627  0.00  0.00    +0.000 A 
ENDROOT
BRANCH   1   9
ATOM      7  O   UNL     1       3.508   5.079  19.329  0.00  0.00    +0.000 OA
ATOM      8  C   UNL     1       3.651   5.801  18.351  0.00  0.00    +0.000 C 
ATOM      9  N   UNL     1       3.076   7.048  18.154  0.00  0.00    +0.000 N 
ATOM     10  H   UNL     1       3.121   7.440  17.221  0.00  0.00    +0.000 HD
BRANCH   8  11
ATOM     11  C   UNL     1       4.467   5.270  17.226  0.00  0.00    +0.000 A 
ATOM     12  C   UNL     1       4.971   6.181  16.287  0.00  0.00    +0.000 A 
ATOM     13  C   UNL     1       5.693   5.737  15.172  0.00  0.00    +0.000 A 
ATOM     14  C   UNL     1       5.937   4.377  15.000  0.00  0.00    +0.000 A 
ATOM     15  C   UNL     1       5.396   3.465  15.916  0.00  0.00    +0.000 A 
ATOM     16  C   UNL     1       4.668   3.902  17.029  0.00  0.00    +0.000 A 
BRANCH  14  17
ATOM     17  O   UNL     1       6.622   3.807  13.971  0.00  0.00    +0.000 OA
BRANCH  17  18
ATOM     18  C   UNL     1       5.990   3.618  12.712  0.00  0.00    +0.000 C 
ATOM     19  F   UNL     1       6.566   4.293  11.696  0.00  0.00    +0.000 F 
ATOM     20  F   UNL     1       6.039   2.301  12.407  0.00  0.00    +0.000 F 
ATOM     21  F   UNL     1       4.692   3.980  12.800  0.00  0.00    +0.000 F 
ENDBRANCH  17  18
ENDBRANCH  14  17
ENDBRANCH   8  11
ENDBRANCH   1   9
BRANCH   5  22
ATOM     22  S   UNL     1      -0.194  10.959  18.871  0.00  0.00    +0.000 S 
ATOM     23  O   UNL     1      -1.351  11.181  19.720  0.00  0.00    +0.000 OA
ATOM     24  O   UNL     1       0.772  12.015  18.669  0.00  0.00    +0.000 OA
BRANCH  22  25
ATOM     25  N   UNL     1      -0.830  10.534  17.381  0.00  0.00    +0.000 N 
ATOM     26  C   UNL     1      -2.158  10.718  17.006  0.00  0.00    +0.000 C 
ATOM     27  N   UNL     1      -2.898  11.654  17.489  0.00  0.00    +0.000 NA
ATOM     28  C   UNL     1      -4.217  11.492  16.859  0.00  0.00    +0.000 C 
ATOM     29  C   UNL     1      -4.000  10.604  15.646  0.00  0.00    +0.000 C 
ATOM     30  C   UNL     1      -2.776   9.795  16.010  0.00  0.00    +0.000 C 
ATOM     31  H   UNL     1      -0.231   9.866  16.900  0.00  0.00    +0.000 HD
ENDBRANCH  22  25
ENDBRANCH   5  22
TORSDOF 6
ENDMDL
MODEL 7
REMARK VINA RESULT:      -8.5      6.104     10.317
REMARK  Name = 
REMARK  6 active torsions:
REMARK  status: ('A' for Active; 'I' for Inactive)
REMARK    1  A    between atoms: C_2  and  C_19
REMARK    2  A    between atoms: N_3  and  C_4
REMARK    3  A    between atoms: C_8  and  S_9
REMARK    4  A    between atoms: S_9  and  N_12
REMARK    5  A    between atoms: C_22  and  O_23
REMARK    6  A    between atoms: O_23  and  C_24
REMARK                            x       y       z     vdW  Elec       q    Type
REMARK                         _______ _______ _______ _____ _____    ______ ____
ROOT
ATOM      1  C   UNL     1       2.317   7.509  18.910  0.00  0.00    +0.000 A 
ATOM      2  C   UNL     1       2.083   6.990  20.186  0.00  0.00    +0.000 A 
ATOM      3  C   UNL     1       1.292   7.683  21.111  0.00  0.00    +0.000 A 
ATOM      4  C   UNL     1       0.714   8.902  20.768  0.00  0.00    +0.000 A 
ATOM      5  C   UNL     1       0.952   9.431  19.500  0.00  0.00    +0.000 A 
ATOM      6  C   UNL     1       1.783   8.760  18.590  0.00  0.00    +0.000 A 
ENDROOT
BRANCH   1   9
ATOM      7  O   UNL     1       4.636   5.721  19.233  0.00  0.00    +0.000 OA
ATOM      8  C   UNL     1       4.159   6.014  18.144  0.00  0.00    +0.000 C 
ATOM      9  N   UNL     1       3.062   6.832  17.916  0.00  0.00    +0.000 N 
ATOM     10  H   UNL     1       2.662   6.826  16.985  0.00  0.00    +0.000 HD
BRANCH   8  11
ATOM     11  C   UNL     1       4.769   5.384  16.942  0.00  0.00    +0.000 A 
ATOM     12  C   UNL     1       4.912   3.989  16.928  0.00  0.00    +0.000 A 
ATOM     13  C   UNL     1       5.536   3.343  15.853  0.00  0.00    +0.000 A 
ATOM     14  C   UNL     1       6.001   4.086  14.772  0.00  0.00    +0.000 A 
ATOM     15  C   UNL     1       5.896   5.482  14.807  0.00  0.00    +0.000 A 
ATOM     16  C   UNL     1       5.279   6.135  15.882  0.00  0.00    +0.000 A 
BRANCH  14  17
ATOM     17  O   UNL     1       6.621   3.593  13.665  0.00  0.00    +0.000 OA
BRANCH  17  18
ATOM     18  C   UNL     1       5.892   3.421  12.457  0.00  0.00    +0.000 C 
ATOM     19  F   UNL     1       5.881   2.154  11.992  0.00  0.00    +0.000 F 
ATOM     20  F   UNL     1       4.609   3.785  12.680  0.00  0.00    +0.000 F 
ATOM     21  F   UNL     1       6.399   4.233  11.504  0.00  0.00    +0.000 F 
ENDBRANCH  17  18
ENDBRANCH  14  17
ENDBRANCH   8  11
ENDBRANCH   1   9
BRANCH   5  22
ATOM     22  S   UNL     1       0.309  11.026  19.068  0.00  0.00    +0.000 S 
ATOM     23  O   UNL     1      -0.670  11.396  20.075  0.00  0.00    +0.000 OA
ATOM     24  O   UNL     1       1.410  11.912  18.765  0.00  0.00    +0.000 OA
BRANCH  22  25
ATOM     25  N   UNL     1      -0.582  10.794  17.669  0.00  0.00    +0.000 N 
ATOM     26  C   UNL     1      -1.964  10.929  17.580  0.00  0.00    +0.000 C 
ATOM     27  N   UNL     1      -2.641  11.715  18.342  0.00  0.00    +0.000 NA
ATOM     28  C   UNL     1      -4.048  11.551  17.945  0.00  0.00    +0.000 C 
ATOM     29  C   UNL     1      -4.027  10.886  16.579  0.00  0.00    +0.000 C 
ATOM     30  C   UNL     1      -2.719  10.130  16.570  0.00  0.00    +0.000 C 
ATOM     31  H   UNL     1      -0.056  10.261  16.980  0.00  0.00    +0.000 HD
ENDBRANCH  22  25
ENDBRANCH   5  22
TORSDOF 6
ENDMDL
MODEL 8
REMARK VINA RESULT:      -8.4      1.335      1.649
REMARK  Name = 
REMARK  6 active torsions:
REMARK  status: ('A' for Active; 'I' for Inactive)
REMARK    1  A    between atoms: C_2  and  C_19
REMARK    2  A    between atoms: N_3  and  C_4
REMARK    3  A    between atoms: C_8  and  S_9
REMARK    4  A    between atoms: S_9  and  N_12
REMARK    5  A    between atoms: C_22  and  O_23
REMARK    6  A    between atoms: O_23  and  C_24
REMARK                            x       y       z     vdW  Elec       q    Type
REMARK                         _______ _______ _______ _____ _____    ______ ____
ROOT
ATOM      1  C   UNL     1       3.222   5.840  19.510  0.00  0.00    +0.000 A 
ATOM      2  C   UNL     1       3.115   4.497  19.882  0.00  0.00    +0.000 A 
ATOM      3  C   UNL     1       3.947   3.525  19.316  0.00  0.00    +0.000 A 
ATOM      4  C   UNL     1       4.907   3.883  18.373  0.00  0.00    +0.000 A 
ATOM      5  C   UNL     1       5.013   5.220  17.988  0.00  0.00    +0.000 A 
ATOM      6  C   UNL     1       4.148   6.187  18.522  0.00  0.00    +0.000 A 
ENDROOT
BRANCH   1   9
ATOM      7  O   UNL     1       1.981   8.169  18.201  0.00  0.00    +0.000 OA
ATOM      8  C   UNL     1       1.906   7.955  19.404  0.00  0.00    +0.000 C 
ATOM      9  N   UNL     1       2.447   6.875  20.085  0.00  0.00    +0.000 N 
ATOM     10  H   UNL     1       2.139   6.723  21.039  0.00  0.00    +0.000 HD
BRANCH   8  11
ATOM     11  C   UNL     1       1.100   8.906  20.216  0.00  0.00    +0.000 A 
ATOM     12  C   UNL     1       1.225   8.854  21.612  0.00  0.00    +0.000 A 
ATOM     13  C   UNL     1       0.447   9.680  22.433  0.00  0.00    +0.000 A 
ATOM     14  C   UNL     1      -0.447  10.582  21.862  0.00  0.00    +0.000 A 
ATOM     15  C   UNL     1      -0.601  10.602  20.470  0.00  0.00    +0.000 A 
ATOM     16  C   UNL     1       0.169   9.775  19.644  0.00  0.00    +0.000 A 
BRANCH  14  17
ATOM     17  O   UNL     1      -1.260  11.442  22.534  0.00  0.00    +0.000 OA
BRANCH  17  18
ATOM     18  C   UNL     1      -0.986  12.837  22.525  0.00  0.00    +0.000 C 
ATOM     19  F   UNL     1      -1.056  13.423  23.738  0.00  0.00    +0.000 F 
ATOM     20  F   UNL     1       0.270  13.018  22.057  0.00  0.00    +0.000 F 
ATOM     21  F   UNL     1      -1.840  13.460  21.686  0.00  0.00    +0.000 F 
ENDBRANCH  17  18
ENDBRANCH  14  17
ENDBRANCH   8  11
ENDBRANCH   1   9
BRANCH   5  22
ATOM     22  S   UNL     1       6.160   5.691  16.721  0.00  0.00    +0.000 S 
ATOM     23  O   UNL     1       5.614   6.850  16.038  0.00  0.00    +0.000 OA
ATOM     24  O   UNL     1       7.490   5.740  17.285  0.00  0.00    +0.000 OA
BRANCH  22  25
ATOM     25  N   UNL     1       6.113   4.461  15.585  0.00  0.00    +0.000 N 
ATOM     26  C   UNL     1       6.609   4.564  14.288  0.00  0.00    +0.000 C 
ATOM     27  N   UNL     1       7.579   5.347  13.970  0.00  0.00    +0.000 NA
ATOM     28  C   UNL     1       7.779   5.174  12.523  0.00  0.00    +0.000 C 
ATOM     29  C   UNL     1       7.074   3.882  12.149  0.00  0.00    +0.000 C 
ATOM     30  C   UNL     1       5.996   3.747  13.200  0.00  0.00    +0.000 C 
ATOM     31  H   UNL     1       5.429   3.751  15.837  0.00  0.00    +0.000 HD
ENDBRANCH  22  25
ENDBRANCH   5  22
TORSDOF 6
ENDMDL
MODEL 9
REMARK VINA RESULT:      -8.4      1.631      2.037
REMARK  Name = 
REMARK  6 active torsions:
REMARK  status: ('A' for Active; 'I' for Inactive)
REMARK    1  A    between atoms: C_2  and  C_19
REMARK    2  A    between atoms: N_3  and  C_4
REMARK    3  A    between atoms: C_8  and  S_9
REMARK    4  A    between atoms: S_9  and  N_12
REMARK    5  A    between atoms: C_22  and  O_23
REMARK    6  A    between atoms: O_23  and  C_24
REMARK                            x       y       z     vdW  Elec       q    Type
REMARK                         _______ _______ _______ _____ _____    ______ ____
ROOT
ATOM      1  C   UNL     1       3.354   5.986  18.260  0.00  0.00    +0.000 A 
ATOM      2  C   UNL     1       2.686   4.846  17.805  0.00  0.00    +0.000 A 
ATOM      3  C   UNL     1       3.369   3.843  17.107  0.00  0.00    +0.000 A 
ATOM      4  C   UNL     1       4.734   3.962  16.860  0.00  0.00    +0.000 A 
ATOM      5  C   UNL     1       5.405   5.103  17.301  0.00  0.00    +0.000 A 
ATOM      6  C   UNL     1       4.711   6.129  17.961  0.00  0.00    +0.000 A 
ENDROOT
BRANCH   1   9
ATOM      7  O   UNL     1       2.113   8.489  17.324  0.00  0.00    +0.000 OA
ATOM      8  C   UNL     1       2.179   8.172  18.504  0.00  0.00    +0.000 C 
ATOM      9  N   UNL     1       2.730   7.006  19.017  0.00  0.00    +0.000 N 
ATOM     10  H   UNL     1       2.539   6.788  19.988  0.00  0.00    +0.000 HD
BRANCH   8  11
ATOM     11  C   UNL     1       1.551   9.090  19.492  0.00  0.00    +0.000 A 
ATOM     12  C   UNL     1       1.224  10.388  19.074  0.00  0.00    +0.000 A 
ATOM     13  C   UNL     1       0.690  11.318  19.973  0.00  0.00    +0.000 A 
ATOM     14  C   UNL     1       0.454  10.950  21.295  0.00  0.00    +0.000 A 
ATOM     15  C   UNL     1       0.820   9.667  21.721  0.00  0.00    +0.000 A 
ATOM     16  C   UNL     1       1.362   8.734  20.829  0.00  0.00    +0.000 A 
BRANCH  14  17
ATOM     17  O   UNL     1      -0.061  11.745  22.272  0.00  0.00    +0.000 OA
BRANCH  17  18
ATOM     18  C   UNL     1      -1.450  11.700  22.570  0.00  0.00    +0.000 C 
ATOM     19  F   UNL     1      -1.919  12.799  23.196  0.00  0.00    +0.000 F 
ATOM     20  F   UNL     1      -2.128  11.571  21.407  0.00  0.00    +0.000 F 
ATOM     21  F   UNL     1      -1.713  10.616  23.331  0.00  0.00    +0.000 F 
ENDBRANCH  17  18
ENDBRANCH  14  17
ENDBRANCH   8  11
ENDBRANCH   1   9
BRANCH   5  22
ATOM     22  S   UNL     1       7.121   5.327  16.918  0.00  0.00    +0.000 S 
ATOM     23  O   UNL     1       7.595   6.478  17.666  0.00  0.00    +0.000 OA
ATOM     24  O   UNL     1       7.800   4.056  17.035  0.00  0.00    +0.000 OA
BRANCH  22  25
ATOM     25  N   UNL     1       7.171   5.806  15.314  0.00  0.00    +0.000 N 
ATOM     26  C   UNL     1       7.015   4.950  14.228  0.00  0.00    +0.000 C 
ATOM     27  N   UNL     1       6.325   3.865  14.285  0.00  0.00    +0.000 NA
ATOM     28  C   UNL     1       6.427   3.250  12.953  0.00  0.00    +0.000 C 
ATOM     29  C   UNL     1       6.917   4.343  12.019  0.00  0.00    +0.000 C 
ATOM     30  C   UNL     1       7.677   5.278  12.931  0.00  0.00    +0.000 C 
ATOM     31  H   UNL     1       7.619   6.715  15.213  0.00  0.00    +0.000 HD
ENDBRANCH  22  25
ENDBRANCH   5  22
TORSDOF 6
ENDMDL
