MODEL 1
REMARK VINA RESULT:      -9.2      0.000      0.000
REMARK  Name = 
REMARK  7 active torsions:
REMARK  status: ('A' for Active; 'I' for Inactive)
REMARK    1  A    between atoms: C_1  and  O_2
REMARK    2  A    between atoms: O_2  and  C_3
REMARK    3  A    between atoms: C_3  and  C_5
REMARK    4  A    between atoms: C_7  and  N_8
REMARK    5  A    between atoms: C_9  and  C_11
REMARK    6  A    between atoms: C_12  and  C_13
REMARK    7  A    between atoms: C_23  and  C_24
REMARK                            x       y       z     vdW  Elec       q    Type
REMARK                         _______ _______ _______ _____ _____    ______ ____
ROOT
ATOM      1  N   UNL     1       2.863   6.447  19.715  0.00  0.00    +0.000 N 
ATOM      2  C   UNL     1       2.432   5.202  19.269  0.00  0.00    +0.000 C 
ATOM      3  O   UNL     1       1.465   5.006  18.542  0.00  0.00    +0.000 OA
ATOM      4  H   UNL     1       3.834   6.505  20.000  0.00  0.00    +0.000 HD
ENDROOT
BRANCH   1   7
ATOM      5  C   UNL     1       0.833   9.527  20.085  0.00  0.00    +0.000 A 
ATOM      6  C   UNL     1       1.439   8.290  20.359  0.00  0.00    +0.000 A 
ATOM      7  C   UNL     1       2.218   7.657  19.383  0.00  0.00    +0.000 A 
ATOM      8  C   UNL     1       2.336   8.237  18.115  0.00  0.00    +0.000 A 
ATOM      9  C   UNL     1       1.706   9.453  17.834  0.00  0.00    +0.000 A 
ATOM     10  C   UNL     1       0.974  10.102  18.823  0.00  0.00    +0.000 A 
ATOM     11  F   UNL     1       0.446  11.299  18.533  0.00  0.00    +0.000 F 
BRANCH   5  12
ATOM     12  C   UNL     1       0.115  10.217  21.177  0.00  0.00    +0.000 C 
ATOM     13  O   UNL     1      -0.873  10.909  20.989  0.00  0.00    +0.000 OA
BRANCH  12  15
ATOM     14  C   UNL     1      -0.100   9.594  23.421  0.00  0.00    +0.000 C 
ATOM     15  O   UNL     1       0.748  10.025  22.357  0.00  0.00    +0.000 OA
ENDBRANCH  12  15
ENDBRANCH   5  12
ENDBRANCH   1   7
BRANCH   2  16
ATOM     16  C   UNL     1       3.299   4.109  19.665  0.00  0.00    +0.000 A 
ATOM     17  C   UNL     1       4.528   3.660  19.075  0.00  0.00    +0.000 A 
ATOM     18  N   UNL     1       5.001   2.607  19.762  0.00  0.00    +0.000 NA
ATOM     19  O   UNL     1       4.077   2.313  20.733  0.00  0.00    +0.000 OA
ATOM     20  C   UNL     1       3.059   3.206  20.680  0.00  0.00    +0.000 A 
ATOM     21  C   UNL     1       1.960   2.991  21.642  0.00  0.00    +0.000 C 
BRANCH  17  22
ATOM     22  C   UNL     1       5.291   4.226  17.955  0.00  0.00    +0.000 A 
ATOM     23  C   UNL     1       4.861   3.993  16.645  0.00  0.00    +0.000 A 
ATOM     24  F   UNL     1       3.736   3.295  16.410  0.00  0.00    +0.000 F 
ATOM     25  C   UNL     1       5.546   4.495  15.538  0.00  0.00    +0.000 A 
ATOM     26  C   UNL     1       6.676   5.278  15.716  0.00  0.00    +0.000 A 
ATOM     27  C   UNL     1       7.116   5.552  17.010  0.00  0.00    +0.000 A 
ATOM     28  C   UNL     1       6.440   5.025  18.123  0.00  0.00    +0.000 A 
ATOM     29 CL   UNL     1       7.124   5.405  19.670  0.00  0.00    +0.000 Cl
ENDBRANCH  17  22
ENDBRANCH   2  16
TORSDOF 5
ENDMDL
MODEL 2
REMARK VINA RESULT:      -9.0      0.798      1.049
REMARK  Name = 
REMARK  7 active torsions:
REMARK  status: ('A' for Active; 'I' for Inactive)
REMARK    1  A    between atoms: C_1  and  O_2
REMARK    2  A    between atoms: O_2  and  C_3
REMARK    3  A    between atoms: C_3  and  C_5
REMARK    4  A    between atoms: C_7  and  N_8
REMARK    5  A    between atoms: C_9  and  C_11
REMARK    6  A    between atoms: C_12  and  C_13
REMARK    7  A    between atoms: C_23  and  C_24
REMARK                            x       y       z     vdW  Elec       q    Type
REMARK                         _______ _______ _______ _____ _____    ______ ____
ROOT
ATOM      1  N   UNL     1       2.525   6.404  20.284  0.00  0.00    +0.000 N 
ATOM      2  C   UNL     1       2.461   5.393  19.331  0.00  0.00    +0.000 C 
ATOM      3  O   UNL     1       1.858   5.461  18.267  0.00  0.00    +0.000 OA
ATOM      4  H   UNL     1       3.310   6.361  20.925  0.00  0.00    +0.000 HD
ENDROOT
BRANCH   1   7
ATOM      5  C   UNL     1       0.605   9.455  21.151  0.00  0.00    +0.000 A 
ATOM      6  C   UNL     1       1.205   8.188  21.240  0.00  0.00    +0.000 A 
ATOM      7  C   UNL     1       1.882   7.651  20.138  0.00  0.00    +0.000 A 
ATOM      8  C   UNL     1       1.905   8.362  18.934  0.00  0.00    +0.000 A 
ATOM      9  C   UNL     1       1.283   9.609  18.837  0.00  0.00    +0.000 A 
ATOM     10  C   UNL     1       0.652  10.159  19.949  0.00  0.00    +0.000 A 
ATOM     11  F   UNL     1       0.129  11.387  19.833  0.00  0.00    +0.000 F 
BRANCH   5  12
ATOM     12  C   UNL     1      -0.000  10.034  22.368  0.00  0.00    +0.000 C 
ATOM     13  O   UNL     1       0.440   9.835  23.489  0.00  0.00    +0.000 OA
BRANCH  12  15
ATOM     14  C   UNL     1      -1.364  11.860  22.894  0.00  0.00    +0.000 C 
ATOM     15  O   UNL     1      -1.117  10.732  22.056  0.00  0.00    +0.000 OA
ENDBRANCH  12  15
ENDBRANCH   5  12
ENDBRANCH   1   7
BRANCH   2  16
ATOM     16  C   UNL     1       3.269   4.233  19.655  0.00  0.00    +0.000 A 
ATOM     17  C   UNL     1       4.458   3.742  19.017  0.00  0.00    +0.000 A 
ATOM     18  N   UNL     1       4.881   2.632  19.644  0.00  0.00    +0.000 NA
ATOM     19  O   UNL     1       3.960   2.346  20.621  0.00  0.00    +0.000 OA
ATOM     20  C   UNL     1       2.996   3.298  20.633  0.00  0.00    +0.000 A 
ATOM     21  C   UNL     1       1.906   3.101  21.607  0.00  0.00    +0.000 C 
BRANCH  17  22
ATOM     22  C   UNL     1       5.231   4.316  17.909  0.00  0.00    +0.000 A 
ATOM     23  C   UNL     1       4.792   4.123  16.594  0.00  0.00    +0.000 A 
ATOM     24  F   UNL     1       3.651   3.456  16.348  0.00  0.00    +0.000 F 
ATOM     25  C   UNL     1       5.485   4.634  15.498  0.00  0.00    +0.000 A 
ATOM     26  C   UNL     1       6.633   5.387  15.690  0.00  0.00    +0.000 A 
ATOM     27  C   UNL     1       7.083   5.621  16.988  0.00  0.00    +0.000 A 
ATOM     28  C   UNL     1       6.398   5.085  18.091  0.00  0.00    +0.000 A 
ATOM     29 CL   UNL     1       7.094   5.414  19.644  0.00  0.00    +0.000 Cl
ENDBRANCH  17  22
ENDBRANCH   2  16
TORSDOF 5
ENDMDL
MODEL 3
REMARK VINA RESULT:      -8.9      1.419      1.695
REMARK  Name = 
REMARK  7 active torsions:
REMARK  status: ('A' for Active; 'I' for Inactive)
REMARK    1  A    between atoms: C_1  and  O_2
REMARK    2  A    between atoms: O_2  and  C_3
REMARK    3  A    between atoms: C_3  and  C_5
REMARK    4  A    between atoms: C_7  and  N_8
REMARK    5  A    between atoms: C_9  and  C_11
REMARK    6  A    between atoms: C_12  and  C_13
REMARK    7  A    between atoms: C_23  and  C_24
REMARK                            x       y       z     vdW  Elec       q    Type
REMARK                         _______ _______ _______ _____ _____    ______ ____
ROOT
ATOM      1  N   UNL     1       2.910   6.424  19.738  0.00  0.00    +0.000 N 
ATOM      2  C   UNL     1       2.434   5.157  19.417  0.00  0.00    +0.000 C 
ATOM      3  O   UNL     1       1.400   4.924  18.803  0.00  0.00    +0.000 OA
ATOM      4  H   UNL     1       3.905   6.492  19.922  0.00  0.00    +0.000 HD
ENDROOT
BRANCH   1   7
ATOM      5  C   UNL     1       0.835   9.478  20.084  0.00  0.00    +0.000 A 
ATOM      6  C   UNL     1       1.468   8.257  20.371  0.00  0.00    +0.000 A 
ATOM      7  C   UNL     1       2.239   7.617  19.393  0.00  0.00    +0.000 A 
ATOM      8  C   UNL     1       2.324   8.173  18.112  0.00  0.00    +0.000 A 
ATOM      9  C   UNL     1       1.669   9.372  17.818  0.00  0.00    +0.000 A 
ATOM     10  C   UNL     1       0.944  10.028  18.808  0.00  0.00    +0.000 A 
ATOM     11  F   UNL     1       0.390  11.210  18.503  0.00  0.00    +0.000 F 
BRANCH   5  12
ATOM     12  C   UNL     1       0.127  10.178  21.175  0.00  0.00    +0.000 C 
ATOM     13  O   UNL     1      -0.868  10.860  20.989  0.00  0.00    +0.000 OA
BRANCH  12  15
ATOM     14  C   UNL     1      -0.052   9.565  23.425  0.00  0.00    +0.000 C 
ATOM     15  O   UNL     1       0.776  10.007  22.349  0.00  0.00    +0.000 OA
ENDBRANCH  12  15
ENDBRANCH   5  12
ENDBRANCH   1   7
BRANCH   2  16
ATOM     16  C   UNL     1       3.334   4.084  19.796  0.00  0.00    +0.000 A 
ATOM     17  C   UNL     1       4.646   3.777  19.302  0.00  0.00    +0.000 A 
ATOM     18  N   UNL     1       5.122   2.689  19.930  0.00  0.00    +0.000 NA
ATOM     19  O   UNL     1       4.126   2.237  20.760  0.00  0.00    +0.000 OA
ATOM     20  C   UNL     1       3.056   3.065  20.684  0.00  0.00    +0.000 A 
ATOM     21  C   UNL     1       1.884   2.682  21.493  0.00  0.00    +0.000 C 
BRANCH  17  22
ATOM     22  C   UNL     1       5.477   4.505  18.335  0.00  0.00    +0.000 A 
ATOM     23  C   UNL     1       6.551   5.275  18.795  0.00  0.00    +0.000 A 
ATOM     24  F   UNL     1       6.848   5.315  20.106  0.00  0.00    +0.000 F 
ATOM     25  C   UNL     1       7.371   5.997  17.930  0.00  0.00    +0.000 A 
ATOM     26  C   UNL     1       7.157   5.945  16.562  0.00  0.00    +0.000 A 
ATOM     27  C   UNL     1       6.112   5.165  16.067  0.00  0.00    +0.000 A 
ATOM     28  C   UNL     1       5.270   4.458  16.942  0.00  0.00    +0.000 A 
ATOM     29 CL   UNL     1       3.983   3.569  16.195  0.00  0.00    +0.000 Cl
ENDBRANCH  17  22
ENDBRANCH   2  16
TORSDOF 5
ENDMDL
MODEL 4
REMARK VINA RESULT:      -8.6      1.622      1.996
REMARK  Name = 
REMARK  7 active torsions:
REMARK  status: ('A' for Active; 'I' for Inactive)
REMARK    1  A    between atoms: C_1  and  O_2
REMARK    2  A    between atoms: O_2  and  C_3
REMARK    3  A    between atoms: C_3  and  C_5
REMARK    4  A    between atoms: C_7  and  N_8
REMARK    5  A    between atoms: C_9  and  C_11
REMARK    6  A    between atoms: C_12  and  C_13
REMARK    7  A    between atoms: C_23  and  C_24
REMARK                            x       y       z     vdW  Elec       q    Type
REMARK                         _______ _______ _______ _____ _____    ______ ____
ROOT
ATOM      1  N   UNL     1       2.559   6.408  20.353  0.00  0.00    +0.000 N 
ATOM      2  C   UNL     1       2.474   5.363  19.439  0.00  0.00    +0.000 C 
ATOM      3  O   UNL     1       1.828   5.383  18.399  0.00  0.00    +0.000 OA
ATOM      4  H   UNL     1       3.370   6.403  20.962  0.00  0.00    +0.000 HD
ENDROOT
BRANCH   1   7
ATOM      5  C   UNL     1       0.571   9.427  21.180  0.00  0.00    +0.000 A 
ATOM      6  C   UNL     1       1.200   8.175  21.285  0.00  0.00    +0.000 A 
ATOM      7  C   UNL     1       1.888   7.639  20.191  0.00  0.00    +0.000 A 
ATOM      8  C   UNL     1       1.893   8.333  18.976  0.00  0.00    +0.000 A 
ATOM      9  C   UNL     1       1.242   9.564  18.862  0.00  0.00    +0.000 A 
ATOM     10  C   UNL     1       0.601  10.115  19.968  0.00  0.00    +0.000 A 
ATOM     11  F   UNL     1       0.050  11.329  19.835  0.00  0.00    +0.000 F 
BRANCH   5  12
ATOM     12  C   UNL     1      -0.046  10.010  22.389  0.00  0.00    +0.000 C 
ATOM     13  O   UNL     1       0.390   9.822  23.513  0.00  0.00    +0.000 OA
BRANCH  12  15
ATOM     14  C   UNL     1      -1.574  11.656  23.041  0.00  0.00    +0.000 C 
ATOM     15  O   UNL     1      -1.166  10.697  22.066  0.00  0.00    +0.000 OA
ENDBRANCH  12  15
ENDBRANCH   5  12
ENDBRANCH   1   7
BRANCH   2  16
ATOM     16  C   UNL     1       3.317   4.230  19.770  0.00  0.00    +0.000 A 
ATOM     17  C   UNL     1       4.610   3.874  19.258  0.00  0.00    +0.000 A 
ATOM     18  N   UNL     1       5.029   2.738  19.840  0.00  0.00    +0.000 NA
ATOM     19  O   UNL     1       4.013   2.307  20.657  0.00  0.00    +0.000 OA
ATOM     20  C   UNL     1       2.989   3.193  20.620  0.00  0.00    +0.000 A 
ATOM     21  C   UNL     1       1.801   2.841  21.420  0.00  0.00    +0.000 C 
BRANCH  17  22
ATOM     22  C   UNL     1       5.474   4.595  18.315  0.00  0.00    +0.000 A 
ATOM     23  C   UNL     1       6.554   5.336  18.805  0.00  0.00    +0.000 A 
ATOM     24  F   UNL     1       6.827   5.356  20.122  0.00  0.00    +0.000 F 
ATOM     25  C   UNL     1       7.407   6.050  17.963  0.00  0.00    +0.000 A 
ATOM     26  C   UNL     1       7.218   6.017  16.591  0.00  0.00    +0.000 A 
ATOM     27  C   UNL     1       6.167   5.265  16.067  0.00  0.00    +0.000 A 
ATOM     28  C   UNL     1       5.294   4.566  16.918  0.00  0.00    +0.000 A 
ATOM     29 CL   UNL     1       4.003   3.713  16.136  0.00  0.00    +0.000 Cl
ENDBRANCH  17  22
ENDBRANCH   2  16
TORSDOF 5
ENDMDL
MODEL 5
REMARK VINA RESULT:      -8.1      2.007      3.799
REMARK  Name = 
REMARK  7 active torsions:
REMARK  status: ('A' for Active; 'I' for Inactive)
REMARK    1  A    between atoms: C_1  and  O_2
REMARK    2  A    between atoms: O_2  and  C_3
REMARK    3  A    between atoms: C_3  and  C_5
REMARK    4  A    between atoms: C_7  and  N_8
REMARK    5  A    between atoms: C_9  and  C_11
REMARK    6  A    between atoms: C_12  and  C_13
REMARK    7  A    between atoms: C_23  and  C_24
REMARK                            x       y       z     vdW  Elec       q    Type
REMARK                         _______ _______ _______ _____ _____    ______ ____
ROOT
ATOM      1  N   UNL     1       2.505   6.679  18.010  0.00  0.00    +0.000 N 
ATOM      2  C   UNL     1       3.861   6.393  17.886  0.00  0.00    +0.000 C 
ATOM      3  O   UNL     1       4.775   7.133  18.227  0.00  0.00    +0.000 OA
ATOM      4  H   UNL     1       1.881   5.880  18.023  0.00  0.00    +0.000 HD
ENDROOT
BRANCH   1   7
ATOM      5  C   UNL     1       1.275   9.138  20.499  0.00  0.00    +0.000 A 
ATOM      6  C   UNL     1       1.709   7.936  19.915  0.00  0.00    +0.000 A 
ATOM      7  C   UNL     1       2.012   7.887  18.549  0.00  0.00    +0.000 A 
ATOM      8  C   UNL     1       1.822   9.027  17.761  0.00  0.00    +0.000 A 
ATOM      9  C   UNL     1       1.361  10.214  18.337  0.00  0.00    +0.000 A 
ATOM     10  C   UNL     1       1.107  10.271  19.704  0.00  0.00    +0.000 A 
ATOM     11  F   UNL     1       0.735  11.447  20.227  0.00  0.00    +0.000 F 
BRANCH   5  12
ATOM     12  C   UNL     1       1.076   9.178  21.962  0.00  0.00    +0.000 C 
ATOM     13  O   UNL     1       1.998   9.287  22.754  0.00  0.00    +0.000 OA
BRANCH  12  15
ATOM     14  C   UNL     1      -0.783  10.030  23.097  0.00  0.00    +0.000 C 
ATOM     15  O   UNL     1      -0.231   9.008  22.267  0.00  0.00    +0.000 OA
ENDBRANCH  12  15
ENDBRANCH   5  12
ENDBRANCH   1   7
BRANCH   2  16
ATOM     16  C   UNL     1       4.131   5.058  17.387  0.00  0.00    +0.000 A 
ATOM     17  C   UNL     1       3.739   3.786  17.925  0.00  0.00    +0.000 A 
ATOM     18  N   UNL     1       4.208   2.800  17.142  0.00  0.00    +0.000 NA
ATOM     19  O   UNL     1       4.956   3.393  16.155  0.00  0.00    +0.000 OA
ATOM     20  C   UNL     1       4.914   4.740  16.295  0.00  0.00    +0.000 A 
ATOM     21  C   UNL     1       5.711   5.516  15.327  0.00  0.00    +0.000 C 
BRANCH  17  22
ATOM     22  C   UNL     1       2.893   3.481  19.085  0.00  0.00    +0.000 A 
ATOM     23  C   UNL     1       1.527   3.779  19.035  0.00  0.00    +0.000 A 
ATOM     24  F   UNL     1       0.983   4.300  17.921  0.00  0.00    +0.000 F 
ATOM     25  C   UNL     1       0.672   3.523  20.106  0.00  0.00    +0.000 A 
ATOM     26  C   UNL     1       1.158   2.927  21.258  0.00  0.00    +0.000 A 
ATOM     27  C   UNL     1       2.510   2.591  21.331  0.00  0.00    +0.000 A 
ATOM     28  C   UNL     1       3.376   2.873  20.261  0.00  0.00    +0.000 A 
ATOM     29 CL   UNL     1       5.038   2.447  20.505  0.00  0.00    +0.000 Cl
ENDBRANCH  17  22
ENDBRANCH   2  16
TORSDOF 5
ENDMDL
MODEL 6
REMARK VINA RESULT:      -8.1      1.402      2.164
REMARK  Name = 
REMARK  7 active torsions:
REMARK  status: ('A' for Active; 'I' for Inactive)
REMARK    1  A    between atoms: C_1  and  O_2
REMARK    2  A    between atoms: O_2  and  C_3
REMARK    3  A    between atoms: C_3  and  C_5
REMARK    4  A    between atoms: C_7  and  N_8
REMARK    5  A    between atoms: C_9  and  C_11
REMARK    6  A    between atoms: C_12  and  C_13
REMARK    7  A    between atoms: C_23  and  C_24
REMARK                            x       y       z     vdW  Elec       q    Type
REMARK                         _______ _______ _______ _____ _____    ______ ____
ROOT
ATOM      1  N   UNL     1       2.336   6.148  20.613  0.00  0.00    +0.000 N 
ATOM      2  C   UNL     1       2.410   5.255  19.549  0.00  0.00    +0.000 C 
ATOM      3  O   UNL     1       1.872   5.406  18.459  0.00  0.00    +0.000 OA
ATOM      4  H   UNL     1       3.080   6.085  21.299  0.00  0.00    +0.000 HD
ENDROOT
BRANCH   1   7
ATOM      5  C   UNL     1       1.193   9.480  19.455  0.00  0.00    +0.000 A 
ATOM      6  C   UNL     1       1.935   8.293  19.575  0.00  0.00    +0.000 A 
ATOM      7  C   UNL     1       1.610   7.357  20.564  0.00  0.00    +0.000 A 
ATOM      8  C   UNL     1       0.580   7.642  21.467  0.00  0.00    +0.000 A 
ATOM      9  C   UNL     1      -0.137   8.837  21.367  0.00  0.00    +0.000 A 
ATOM     10  C   UNL     1       0.159   9.742  20.352  0.00  0.00    +0.000 A 
ATOM     11  F   UNL     1      -0.599  10.842  20.249  0.00  0.00    +0.000 F 
BRANCH   5  12
ATOM     12  C   UNL     1       1.493  10.388  18.329  0.00  0.00    +0.000 C 
ATOM     13  O   UNL     1       2.022  10.011  17.296  0.00  0.00    +0.000 OA
BRANCH  12  15
ATOM     14  C   UNL     1       2.258  12.581  18.603  0.00  0.00    +0.000 C 
ATOM     15  O   UNL     1       1.167  11.662  18.647  0.00  0.00    +0.000 OA
ENDBRANCH  12  15
ENDBRANCH   5  12
ENDBRANCH   1   7
BRANCH   2  16
ATOM     16  C   UNL     1       3.283   4.124  19.798  0.00  0.00    +0.000 A 
ATOM     17  C   UNL     1       4.474   3.721  19.105  0.00  0.00    +0.000 A 
ATOM     18  N   UNL     1       4.970   2.607  19.667  0.00  0.00    +0.000 NA
ATOM     19  O   UNL     1       4.094   2.233  20.657  0.00  0.00    +0.000 OA
ATOM     20  C   UNL     1       3.086   3.134  20.739  0.00  0.00    +0.000 A 
ATOM     21  C   UNL     1       2.037   2.841  21.735  0.00  0.00    +0.000 C 
BRANCH  17  22
ATOM     22  C   UNL     1       5.184   4.381  18.001  0.00  0.00    +0.000 A 
ATOM     23  C   UNL     1       4.703   4.241  16.695  0.00  0.00    +0.000 A 
ATOM     24  F   UNL     1       3.578   3.546  16.454  0.00  0.00    +0.000 F 
ATOM     25  C   UNL     1       5.336   4.835  15.604  0.00  0.00    +0.000 A 
ATOM     26  C   UNL     1       6.463   5.618  15.794  0.00  0.00    +0.000 A 
ATOM     27  C   UNL     1       6.953   5.801  17.087  0.00  0.00    +0.000 A 
ATOM     28  C   UNL     1       6.329   5.182  18.184  0.00  0.00    +0.000 A 
ATOM     29 CL   UNL     1       7.071   5.455  19.726  0.00  0.00    +0.000 Cl
ENDBRANCH  17  22
ENDBRANCH   2  16
TORSDOF 5
ENDMDL
MODEL 7
REMARK VINA RESULT:      -8.1      4.632      8.053
REMARK  Name = 
REMARK  7 active torsions:
REMARK  status: ('A' for Active; 'I' for Inactive)
REMARK    1  A    between atoms: C_1  and  O_2
REMARK    2  A    between atoms: O_2  and  C_3
REMARK    3  A    between atoms: C_3  and  C_5
REMARK    4  A    between atoms: C_7  and  N_8
REMARK    5  A    between atoms: C_9  and  C_11
REMARK    6  A    between atoms: C_12  and  C_13
REMARK    7  A    between atoms: C_23  and  C_24
REMARK                            x       y       z     vdW  Elec       q    Type
REMARK                         _______ _______ _______ _____ _____    ______ ____
ROOT
ATOM      1  N   UNL     1       6.933   4.695  15.970  0.00  0.00    +0.000 N 
ATOM      2  C   UNL     1       5.906   5.346  16.646  0.00  0.00    +0.000 C 
ATOM      3  O   UNL     1       4.967   5.927  16.116  0.00  0.00    +0.000 OA
ATOM      4  H   UNL     1       7.429   3.982  16.494  0.00  0.00    +0.000 HD
ENDROOT
BRANCH   1   7
ATOM      5  C   UNL     1       6.253   3.643  12.480  0.00  0.00    +0.000 A 
ATOM      6  C   UNL     1       6.238   3.692  13.884  0.00  0.00    +0.000 A 
ATOM      7  C   UNL     1       7.021   4.634  14.563  0.00  0.00    +0.000 A 
ATOM      8  C   UNL     1       7.861   5.483  13.834  0.00  0.00    +0.000 A 
ATOM      9  C   UNL     1       7.898   5.413  12.440  0.00  0.00    +0.000 A 
ATOM     10  C   UNL     1       7.082   4.508  11.767  0.00  0.00    +0.000 A 
ATOM     11  F   UNL     1       7.096   4.522  10.427  0.00  0.00    +0.000 F 
BRANCH   5  12
ATOM     12  C   UNL     1       5.329   2.714  11.798  0.00  0.00    +0.000 C 
ATOM     13  O   UNL     1       5.694   1.661  11.301  0.00  0.00    +0.000 OA
BRANCH  12  15
ATOM     14  C   UNL     1       3.641   3.606  10.447  0.00  0.00    +0.000 C 
ATOM     15  O   UNL     1       4.081   3.234  11.753  0.00  0.00    +0.000 OA
ENDBRANCH  12  15
ENDBRANCH   5  12
ENDBRANCH   1   7
BRANCH   2  16
ATOM     16  C   UNL     1       5.975   5.203  18.088  0.00  0.00    +0.000 A 
ATOM     17  C   UNL     1       5.025   4.622  18.993  0.00  0.00    +0.000 A 
ATOM     18  N   UNL     1       5.492   4.703  20.251  0.00  0.00    +0.000 NA
ATOM     19  O   UNL     1       6.680   5.388  20.194  0.00  0.00    +0.000 OA
ATOM     20  C   UNL     1       6.974   5.689  18.906  0.00  0.00    +0.000 A 
ATOM     21  C   UNL     1       8.208   6.468  18.690  0.00  0.00    +0.000 C 
BRANCH  17  22
ATOM     22  C   UNL     1       3.756   3.940  18.709  0.00  0.00    +0.000 A 
ATOM     23  C   UNL     1       3.683   2.549  18.832  0.00  0.00    +0.000 A 
ATOM     24  F   UNL     1       4.750   1.844  19.249  0.00  0.00    +0.000 F 
ATOM     25  C   UNL     1       2.511   1.841  18.568  0.00  0.00    +0.000 A 
ATOM     26  C   UNL     1       1.358   2.516  18.199  0.00  0.00    +0.000 A 
ATOM     27  C   UNL     1       1.390   3.906  18.093  0.00  0.00    +0.000 A 
ATOM     28  C   UNL     1       2.578   4.616  18.335  0.00  0.00    +0.000 A 
ATOM     29 CL   UNL     1       2.486   6.333  18.120  0.00  0.00    +0.000 Cl
ENDBRANCH  17  22
ENDBRANCH   2  16
TORSDOF 5
ENDMDL
MODEL 8
REMARK VINA RESULT:      -8.0      2.330      4.032
REMARK  Name = 
REMARK  7 active torsions:
REMARK  status: ('A' for Active; 'I' for Inactive)
REMARK    1  A    between atoms: C_1  and  O_2
REMARK    2  A    between atoms: O_2  and  C_3
REMARK    3  A    between atoms: C_3  and  C_5
REMARK    4  A    between atoms: C_7  and  N_8
REMARK    5  A    between atoms: C_9  and  C_11
REMARK    6  A    between atoms: C_12  and  C_13
REMARK    7  A    between atoms: C_23  and  C_24
REMARK                            x       y       z     vdW  Elec       q    Type
REMARK                         _______ _______ _______ _____ _____    ______ ____
ROOT
ATOM      1  N   UNL     1       2.593   6.631  18.011  0.00  0.00    +0.000 N 
ATOM      2  C   UNL     1       3.957   6.438  17.815  0.00  0.00    +0.000 C 
ATOM      3  O   UNL     1       4.832   7.254  18.077  0.00  0.00    +0.000 OA
ATOM      4  H   UNL     1       2.031   5.790  18.087  0.00  0.00    +0.000 HD
ENDROOT
BRANCH   1   7
ATOM      5  C   UNL     1       1.283   9.066  20.481  0.00  0.00    +0.000 A 
ATOM      6  C   UNL     1       1.772   7.879  19.910  0.00  0.00    +0.000 A 
ATOM      7  C   UNL     1       2.044   7.819  18.538  0.00  0.00    +0.000 A 
ATOM      8  C   UNL     1       1.770   8.930  17.734  0.00  0.00    +0.000 A 
ATOM      9  C   UNL     1       1.255  10.100  18.298  0.00  0.00    +0.000 A 
ATOM     10  C   UNL     1       1.031  10.171  19.670  0.00  0.00    +0.000 A 
ATOM     11  F   UNL     1       0.603  11.334  20.179  0.00  0.00    +0.000 F 
BRANCH   5  12
ATOM     12  C   UNL     1       1.117   9.125  21.948  0.00  0.00    +0.000 C 
ATOM     13  O   UNL     1       2.054   9.269  22.717  0.00  0.00    +0.000 OA
BRANCH  12  15
ATOM     14  C   UNL     1      -0.755   9.982  23.057  0.00  0.00    +0.000 C 
ATOM     15  O   UNL     1      -0.178   8.928  22.287  0.00  0.00    +0.000 OA
ENDBRANCH  12  15
ENDBRANCH   5  12
ENDBRANCH   1   7
BRANCH   2  16
ATOM     16  C   UNL     1       4.296   5.108  17.344  0.00  0.00    +0.000 A 
ATOM     17  C   UNL     1       3.903   3.829  17.864  0.00  0.00    +0.000 A 
ATOM     18  N   UNL     1       4.450   2.853  17.121  0.00  0.00    +0.000 NA
ATOM     19  O   UNL     1       5.246   3.460  16.182  0.00  0.00    +0.000 OA
ATOM     20  C   UNL     1       5.158   4.806  16.310  0.00  0.00    +0.000 A 
ATOM     21  C   UNL     1       5.997   5.599  15.392  0.00  0.00    +0.000 C 
BRANCH  17  22
ATOM     22  C   UNL     1       2.989   3.507  18.968  0.00  0.00    +0.000 A 
ATOM     23  C   UNL     1       3.515   3.079  20.191  0.00  0.00    +0.000 A 
ATOM     24  F   UNL     1       4.846   3.005  20.372  0.00  0.00    +0.000 F 
ATOM     25  C   UNL     1       2.702   2.749  21.274  0.00  0.00    +0.000 A 
ATOM     26  C   UNL     1       1.325   2.868  21.172  0.00  0.00    +0.000 A 
ATOM     27  C   UNL     1       0.769   3.318  19.975  0.00  0.00    +0.000 A 
ATOM     28  C   UNL     1       1.588   3.626  18.876  0.00  0.00    +0.000 A 
ATOM     29 CL   UNL     1       0.762   4.127  17.437  0.00  0.00    +0.000 Cl
ENDBRANCH  17  22
ENDBRANCH   2  16
TORSDOF 5
ENDMDL
MODEL 9
REMARK VINA RESULT:      -8.0      2.118      2.488
REMARK  Name = 
REMARK  7 active torsions:
REMARK  status: ('A' for Active; 'I' for Inactive)
REMARK    1  A    between atoms: C_1  and  O_2
REMARK    2  A    between atoms: O_2  and  C_3
REMARK    3  A    between atoms: C_3  and  C_5
REMARK    4  A    between atoms: C_7  and  N_8
REMARK    5  A    between atoms: C_9  and  C_11
REMARK    6  A    between atoms: C_12  and  C_13
REMARK    7  A    between atoms: C_23  and  C_24
REMARK                            x       y       z     vdW  Elec       q    Type
REMARK                         _______ _______ _______ _____ _____    ______ ____
ROOT
ATOM      1  N   UNL     1       2.441   7.095  18.398  0.00  0.00    +0.000 N 
ATOM      2  C   UNL     1       2.615   5.958  19.180  0.00  0.00    +0.000 C 
ATOM      3  O   UNL     1       2.290   5.851  20.356  0.00  0.00    +0.000 OA
ATOM      4  H   UNL     1       2.422   6.946  17.395  0.00  0.00    +0.000 HD
ENDROOT
BRANCH   1   7
ATOM      5  C   UNL     1       0.956   9.541  20.756  0.00  0.00    +0.000 A 
ATOM      6  C   UNL     1       1.477   8.350  20.224  0.00  0.00    +0.000 A 
ATOM      7  C   UNL     1       1.864   8.289  18.880  0.00  0.00    +0.000 A 
ATOM      8  C   UNL     1       1.672   9.405  18.059  0.00  0.00    +0.000 A 
ATOM      9  C   UNL     1       1.126  10.580  18.581  0.00  0.00    +0.000 A 
ATOM     10  C   UNL     1       0.787  10.651  19.929  0.00  0.00    +0.000 A 
ATOM     11  F   UNL     1       0.333  11.818  20.404  0.00  0.00    +0.000 F 
BRANCH   5  12
ATOM     12  C   UNL     1       0.667   9.600  22.203  0.00  0.00    +0.000 C 
ATOM     13  O   UNL     1       1.542   9.602  23.055  0.00  0.00    +0.000 OA
BRANCH  12  15
ATOM     14  C   UNL     1      -1.168  10.702  23.144  0.00  0.00    +0.000 C 
ATOM     15  O   UNL     1      -0.668   9.578  22.422  0.00  0.00    +0.000 OA
ENDBRANCH  12  15
ENDBRANCH   5  12
ENDBRANCH   1   7
BRANCH   2  16
ATOM     16  C   UNL     1       3.148   4.824  18.450  0.00  0.00    +0.000 A 
ATOM     17  C   UNL     1       4.450   4.639  17.874  0.00  0.00    +0.000 A 
ATOM     18  N   UNL     1       4.516   3.436  17.282  0.00  0.00    +0.000 NA
ATOM     19  O   UNL     1       3.271   2.866  17.391  0.00  0.00    +0.000 OA
ATOM     20  C   UNL     1       2.451   3.689  18.087  0.00  0.00    +0.000 A 
ATOM     21  C   UNL     1       1.059   3.228  18.248  0.00  0.00    +0.000 C 
BRANCH  17  22
ATOM     22  C   UNL     1       5.630   5.511  17.929  0.00  0.00    +0.000 A 
ATOM     23  C   UNL     1       6.537   5.373  18.985  0.00  0.00    +0.000 A 
ATOM     24  F   UNL     1       6.355   4.421  19.919  0.00  0.00    +0.000 F 
ATOM     25  C   UNL     1       7.671   6.175  19.100  0.00  0.00    +0.000 A 
ATOM     26  C   UNL     1       7.949   7.130  18.134  0.00  0.00    +0.000 A 
ATOM     27  C   UNL     1       7.080   7.276  17.054  0.00  0.00    +0.000 A 
ATOM     28  C   UNL     1       5.924   6.484  16.952  0.00  0.00    +0.000 A 
ATOM     29 CL   UNL     1       4.908   6.804  15.585  0.00  0.00    +0.000 Cl
ENDBRANCH  17  22
ENDBRANCH   2  16
TORSDOF 5
ENDMDL
