MODEL 1
REMARK VINA RESULT:      -8.7      0.000      0.000
REMARK  Name = 
REMARK  4 active torsions:
REMARK  status: ('A' for Active; 'I' for Inactive)
REMARK    1  A    between atoms: C_2  and  C_19
REMARK    2  A    between atoms: N_3  and  C_4
REMARK    3  A    between atoms: C_8  and  S_9
REMARK    4  A    between atoms: S_9  and  N_12
REMARK                            x       y       z     vdW  Elec       q    Type
REMARK                         _______ _______ _______ _____ _____    ______ ____
ROOT
ATOM      1  C   UNL     1       0.989   9.185  20.174  0.00  0.00    +0.000 A 
ATOM      2  C   UNL     1       0.899   9.240  21.565  0.00  0.00    +0.000 A 
ATOM      3  C   UNL     1       0.019  10.140  22.178  0.00  0.00    +0.000 A 
ATOM      4  C   UNL     1      -0.747  11.015  21.410  0.00  0.00    +0.000 A 
ATOM      5  C   UNL     1      -0.603  11.016  20.021  0.00  0.00    +0.000 A 
ATOM      6  C   UNL     1       0.235  10.081  19.402  0.00  0.00    +0.000 A 
ENDROOT
BRANCH   1   9
ATOM      7  O   UNL     1       1.648   6.314  20.711  0.00  0.00    +0.000 OA
ATOM      8  C   UNL     1       2.100   6.945  19.764  0.00  0.00    +0.000 C 
ATOM      9  N   UNL     1       1.797   8.271  19.477  0.00  0.00    +0.000 N 
ATOM     10  H   UNL     1       2.233   8.618  18.629  0.00  0.00    +0.000 HD
BRANCH   8  11
ATOM     11  C   UNL     1       3.067   6.350  18.830  0.00  0.00    +0.000 A 
ATOM     12  C   UNL     1       3.741   6.958  17.787  0.00  0.00    +0.000 A 
ATOM     13  C   UNL     1       4.509   6.034  16.988  0.00  0.00    +0.000 A 
ATOM     14  C   UNL     1       5.274   6.228  15.814  0.00  0.00    +0.000 A 
ATOM     15  C   UNL     1       5.869   5.131  15.185  0.00  0.00    +0.000 A 
ATOM     16  F   UNL     1       6.559   5.317  14.053  0.00  0.00    +0.000 F 
ATOM     17  C   UNL     1       5.748   3.849  15.695  0.00  0.00    +0.000 A 
ATOM     18  C   UNL     1       5.033   3.636  16.873  0.00  0.00    +0.000 A 
ATOM     19  C   UNL     1       4.417   4.737  17.499  0.00  0.00    +0.000 A 
ATOM     20  S   UNL     1       3.477   4.690  18.929  0.00  0.00    +0.000 S 
ENDBRANCH   8  11
ENDBRANCH   1   9
BRANCH   5  21
ATOM     21  S   UNL     1      -1.616  12.101  19.037  0.00  0.00    +0.000 S 
ATOM     22  O   UNL     1      -2.431  12.868  19.957  0.00  0.00    +0.000 OA
ATOM     23  O   UNL     1      -0.739  12.759  18.093  0.00  0.00    +0.000 OA
BRANCH  21  24
ATOM     24  N   UNL     1      -2.623  11.074  18.177  0.00  0.00    +0.000 NA
ATOM     25  C   UNL     1      -2.142  10.314  17.005  0.00  0.00    +0.000 C 
ATOM     26  C   UNL     1      -2.789  10.821  15.715  0.00  0.00    +0.000 C 
ATOM     27  O   UNL     1      -4.219  10.822  15.810  0.00  0.00    +0.000 OA
ATOM     28  C   UNL     1      -4.658  11.668  16.882  0.00  0.00    +0.000 C 
ATOM     29  C   UNL     1      -4.096  11.209  18.232  0.00  0.00    +0.000 C 
ENDBRANCH  21  24
ENDBRANCH   5  21
TORSDOF 4
ENDMDL
MODEL 2
REMARK VINA RESULT:      -8.4      4.559      9.497
REMARK  Name = 
REMARK  4 active torsions:
REMARK  status: ('A' for Active; 'I' for Inactive)
REMARK    1  A    between atoms: C_2  and  C_19
REMARK    2  A    between atoms: N_3  and  C_4
REMARK    3  A    between atoms: C_8  and  S_9
REMARK    4  A    between atoms: S_9  and  N_12
REMARK                            x       y       z     vdW  Elec       q    Type
REMARK                         _______ _______ _______ _____ _____    ______ ____
ROOT
ATOM      1  C   UNL     1       2.004   5.114  20.627  0.00  0.00    +0.000 A 
ATOM      2  C   UNL     1       2.142   4.187  21.660  0.00  0.00    +0.000 A 
ATOM      3  C   UNL     1       2.756   2.951  21.421  0.00  0.00    +0.000 A 
ATOM      4  C   UNL     1       3.202   2.620  20.142  0.00  0.00    +0.000 A 
ATOM      5  C   UNL     1       2.997   3.514  19.089  0.00  0.00    +0.000 A 
ATOM      6  C   UNL     1       2.432   4.771  19.336  0.00  0.00    +0.000 A 
ENDROOT
BRANCH   1   9
ATOM      7  O   UNL     1       2.594   7.710  19.256  0.00  0.00    +0.000 OA
ATOM      8  C   UNL     1       1.769   7.592  20.153  0.00  0.00    +0.000 C 
ATOM      9  N   UNL     1       1.458   6.398  20.794  0.00  0.00    +0.000 N 
ATOM     10  H   UNL     1       0.721   6.482  21.485  0.00  0.00    +0.000 HD
BRANCH   8  11
ATOM     11  C   UNL     1       1.029   8.749  20.680  0.00  0.00    +0.000 A 
ATOM     12  C   UNL     1       0.466   8.911  21.933  0.00  0.00    +0.000 A 
ATOM     13  C   UNL     1      -0.309  10.122  22.057  0.00  0.00    +0.000 A 
ATOM     14  C   UNL     1      -1.089  10.624  23.124  0.00  0.00    +0.000 A 
ATOM     15  C   UNL     1      -1.813  11.808  22.957  0.00  0.00    +0.000 A 
ATOM     16  F   UNL     1      -2.579  12.257  23.958  0.00  0.00    +0.000 F 
ATOM     17  C   UNL     1      -1.771  12.521  21.771  0.00  0.00    +0.000 A 
ATOM     18  C   UNL     1      -0.979  12.069  20.716  0.00  0.00    +0.000 A 
ATOM     19  C   UNL     1      -0.263  10.867  20.876  0.00  0.00    +0.000 A 
ATOM     20  S   UNL     1       0.742  10.126  19.704  0.00  0.00    +0.000 S 
ENDBRANCH   8  11
ENDBRANCH   1   9
BRANCH   5  21
ATOM     21  S   UNL     1       3.609   3.109  17.466  0.00  0.00    +0.000 S 
ATOM     22  O   UNL     1       4.338   1.863  17.588  0.00  0.00    +0.000 OA
ATOM     23  O   UNL     1       2.496   3.235  16.551  0.00  0.00    +0.000 OA
BRANCH  21  24
ATOM     24  N   UNL     1       4.707   4.325  17.114  0.00  0.00    +0.000 NA
ATOM     25  C   UNL     1       5.067   4.669  15.723  0.00  0.00    +0.000 C 
ATOM     26  C   UNL     1       6.517   4.291  15.419  0.00  0.00    +0.000 C 
ATOM     27  O   UNL     1       7.421   4.867  16.370  0.00  0.00    +0.000 OA
ATOM     28  C   UNL     1       7.120   4.415  17.698  0.00  0.00    +0.000 C 
ATOM     29  C   UNL     1       5.694   4.791  18.114  0.00  0.00    +0.000 C 
ENDBRANCH  21  24
ENDBRANCH   5  21
TORSDOF 4
ENDMDL
MODEL 3
REMARK VINA RESULT:      -8.4      6.100      9.001
REMARK  Name = 
REMARK  4 active torsions:
REMARK  status: ('A' for Active; 'I' for Inactive)
REMARK    1  A    between atoms: C_2  and  C_19
REMARK    2  A    between atoms: N_3  and  C_4
REMARK    3  A    between atoms: C_8  and  S_9
REMARK    4  A    between atoms: S_9  and  N_12
REMARK                            x       y       z     vdW  Elec       q    Type
REMARK                         _______ _______ _______ _____ _____    ______ ____
ROOT
ATOM      1  C   UNL     1       6.431   6.779  16.914  0.00  0.00    +0.000 A 
ATOM      2  C   UNL     1       6.889   5.884  15.947  0.00  0.00    +0.000 A 
ATOM      3  C   UNL     1       6.104   4.784  15.577  0.00  0.00    +0.000 A 
ATOM      4  C   UNL     1       4.877   4.552  16.195  0.00  0.00    +0.000 A 
ATOM      5  C   UNL     1       4.450   5.403  17.217  0.00  0.00    +0.000 A 
ATOM      6  C   UNL     1       5.207   6.532  17.552  0.00  0.00    +0.000 A 
ENDROOT
BRANCH   1   9
ATOM      7  O   UNL     1       8.618   7.208  18.914  0.00  0.00    +0.000 OA
ATOM      8  C   UNL     1       8.125   8.109  18.248  0.00  0.00    +0.000 C 
ATOM      9  N   UNL     1       7.124   7.939  17.298  0.00  0.00    +0.000 N 
ATOM     10  H   UNL     1       6.866   8.793  16.816  0.00  0.00    +0.000 HD
BRANCH   8  11
ATOM     11  C   UNL     1       8.534   9.511  18.423  0.00  0.00    +0.000 A 
ATOM     12  C   UNL     1       8.341  10.577  17.562  0.00  0.00    +0.000 A 
ATOM     13  C   UNL     1       9.000  11.785  17.995  0.00  0.00    +0.000 A 
ATOM     14  C   UNL     1       9.111  13.057  17.385  0.00  0.00    +0.000 A 
ATOM     15  C   UNL     1       9.882  14.052  17.991  0.00  0.00    +0.000 A 
ATOM     16  F   UNL     1      10.013  15.240  17.388  0.00  0.00    +0.000 F 
ATOM     17  C   UNL     1      10.533  13.833  19.194  0.00  0.00    +0.000 A 
ATOM     18  C   UNL     1      10.408  12.601  19.836  0.00  0.00    +0.000 A 
ATOM     19  C   UNL     1       9.646  11.591  19.218  0.00  0.00    +0.000 A 
ATOM     20  S   UNL     1       9.388  10.009  19.821  0.00  0.00    +0.000 S 
ENDBRANCH   8  11
ENDBRANCH   1   9
BRANCH   5  21
ATOM     21  S   UNL     1       2.861   5.132  17.974  0.00  0.00    +0.000 S 
ATOM     22  O   UNL     1       2.197   6.419  18.036  0.00  0.00    +0.000 OA
ATOM     23  O   UNL     1       2.251   4.012  17.291  0.00  0.00    +0.000 OA
BRANCH  21  24
ATOM     24  N   UNL     1       3.216   4.651  19.540  0.00  0.00    +0.000 NA
ATOM     25  C   UNL     1       4.268   3.655  19.828  0.00  0.00    +0.000 C 
ATOM     26  C   UNL     1       3.665   2.353  20.357  0.00  0.00    +0.000 C 
ATOM     27  O   UNL     1       2.818   2.588  21.488  0.00  0.00    +0.000 OA
ATOM     28  C   UNL     1       1.735   3.463  21.141  0.00  0.00    +0.000 C 
ATOM     29  C   UNL     1       2.242   4.820  20.642  0.00  0.00    +0.000 C 
ENDBRANCH  21  24
ENDBRANCH   5  21
TORSDOF 4
ENDMDL
MODEL 4
REMARK VINA RESULT:      -8.3      4.548      9.277
REMARK  Name = 
REMARK  4 active torsions:
REMARK  status: ('A' for Active; 'I' for Inactive)
REMARK    1  A    between atoms: C_2  and  C_19
REMARK    2  A    between atoms: N_3  and  C_4
REMARK    3  A    between atoms: C_8  and  S_9
REMARK    4  A    between atoms: S_9  and  N_12
REMARK                            x       y       z     vdW  Elec       q    Type
REMARK                         _______ _______ _______ _____ _____    ______ ____
ROOT
ATOM      1  C   UNL     1       1.946   5.019  20.714  0.00  0.00    +0.000 A 
ATOM      2  C   UNL     1       2.126   4.131  21.776  0.00  0.00    +0.000 A 
ATOM      3  C   UNL     1       2.708   2.877  21.553  0.00  0.00    +0.000 A 
ATOM      4  C   UNL     1       3.077   2.486  20.267  0.00  0.00    +0.000 A 
ATOM      5  C   UNL     1       2.827   3.342  19.191  0.00  0.00    +0.000 A 
ATOM      6  C   UNL     1       2.296   4.617  19.417  0.00  0.00    +0.000 A 
ENDROOT
BRANCH   1   9
ATOM      7  O   UNL     1       2.568   7.568  19.273  0.00  0.00    +0.000 OA
ATOM      8  C   UNL     1       1.755   7.489  20.184  0.00  0.00    +0.000 C 
ATOM      9  N   UNL     1       1.430   6.318  20.859  0.00  0.00    +0.000 N 
ATOM     10  H   UNL     1       0.706   6.435  21.560  0.00  0.00    +0.000 HD
BRANCH   8  11
ATOM     11  C   UNL     1       1.049   8.674  20.695  0.00  0.00    +0.000 A 
ATOM     12  C   UNL     1       0.458   8.855  21.932  0.00  0.00    +0.000 A 
ATOM     13  C   UNL     1      -0.270  10.097  22.039  0.00  0.00    +0.000 A 
ATOM     14  C   UNL     1      -1.059  10.628  23.086  0.00  0.00    +0.000 A 
ATOM     15  C   UNL     1      -1.729  11.841  22.903  0.00  0.00    +0.000 A 
ATOM     16  F   UNL     1      -2.504  12.318  23.884  0.00  0.00    +0.000 F 
ATOM     17  C   UNL     1      -1.625  12.555  21.721  0.00  0.00    +0.000 A 
ATOM     18  C   UNL     1      -0.822  12.074  20.688  0.00  0.00    +0.000 A 
ATOM     19  C   UNL     1      -0.161  10.843  20.863  0.00  0.00    +0.000 A 
ATOM     20  S   UNL     1       0.846  10.064  19.717  0.00  0.00    +0.000 S 
ENDBRANCH   8  11
ENDBRANCH   1   9
BRANCH   5  21
ATOM     21  S   UNL     1       3.341   2.863  17.555  0.00  0.00    +0.000 S 
ATOM     22  O   UNL     1       3.613   1.440  17.597  0.00  0.00    +0.000 OA
ATOM     23  O   UNL     1       2.373   3.409  16.629  0.00  0.00    +0.000 OA
BRANCH  21  24
ATOM     24  N   UNL     1       4.793   3.664  17.317  0.00  0.00    +0.000 NA
ATOM     25  C   UNL     1       5.525   4.296  18.434  0.00  0.00    +0.000 C 
ATOM     26  C   UNL     1       5.517   5.821  18.307  0.00  0.00    +0.000 C 
ATOM     27  O   UNL     1       6.009   6.244  17.029  0.00  0.00    +0.000 OA
ATOM     28  C   UNL     1       5.200   5.712  15.971  0.00  0.00    +0.000 C 
ATOM     29  C   UNL     1       5.185   4.180  15.985  0.00  0.00    +0.000 C 
ENDBRANCH  21  24
ENDBRANCH   5  21
TORSDOF 4
ENDMDL
MODEL 5
REMARK VINA RESULT:      -8.3      4.421      9.523
REMARK  Name = 
REMARK  4 active torsions:
REMARK  status: ('A' for Active; 'I' for Inactive)
REMARK    1  A    between atoms: C_2  and  C_19
REMARK    2  A    between atoms: N_3  and  C_4
REMARK    3  A    between atoms: C_8  and  S_9
REMARK    4  A    between atoms: S_9  and  N_12
REMARK                            x       y       z     vdW  Elec       q    Type
REMARK                         _______ _______ _______ _____ _____    ______ ____
ROOT
ATOM      1  C   UNL     1       2.908   5.614  18.429  0.00  0.00    +0.000 A 
ATOM      2  C   UNL     1       2.643   4.318  18.873  0.00  0.00    +0.000 A 
ATOM      3  C   UNL     1       3.371   3.236  18.360  0.00  0.00    +0.000 A 
ATOM      4  C   UNL     1       4.338   3.437  17.377  0.00  0.00    +0.000 A 
ATOM      5  C   UNL     1       4.553   4.723  16.876  0.00  0.00    +0.000 A 
ATOM      6  C   UNL     1       3.866   5.813  17.424  0.00  0.00    +0.000 A 
ENDROOT
BRANCH   1   9
ATOM      7  O   UNL     1       2.679   8.394  17.340  0.00  0.00    +0.000 OA
ATOM      8  C   UNL     1       2.199   8.047  18.411  0.00  0.00    +0.000 C 
ATOM      9  N   UNL     1       2.272   6.760  18.934  0.00  0.00    +0.000 N 
ATOM     10  H   UNL     1       1.783   6.647  19.815  0.00  0.00    +0.000 HD
BRANCH   8  11
ATOM     11  C   UNL     1       1.510   8.999  19.295  0.00  0.00    +0.000 A 
ATOM     12  C   UNL     1       1.058   8.801  20.587  0.00  0.00    +0.000 A 
ATOM     13  C   UNL     1       0.299   9.915  21.102  0.00  0.00    +0.000 A 
ATOM     14  C   UNL     1      -0.385  10.090  22.327  0.00  0.00    +0.000 A 
ATOM     15  C   UNL     1      -1.119  11.259  22.551  0.00  0.00    +0.000 A 
ATOM     16  F   UNL     1      -1.795  11.400  23.698  0.00  0.00    +0.000 F 
ATOM     17  C   UNL     1      -1.179  12.269  21.606  0.00  0.00    +0.000 A 
ATOM     18  C   UNL     1      -0.482  12.139  20.406  0.00  0.00    +0.000 A 
ATOM     19  C   UNL     1       0.243  10.955  20.170  0.00  0.00    +0.000 A 
ATOM     20  S   UNL     1       1.142  10.584  18.761  0.00  0.00    +0.000 S 
ENDBRANCH   8  11
ENDBRANCH   1   9
BRANCH   5  21
ATOM     21  S   UNL     1       5.821   4.985  15.654  0.00  0.00    +0.000 S 
ATOM     22  O   UNL     1       6.095   3.699  15.045  0.00  0.00    +0.000 OA
ATOM     23  O   UNL     1       5.409   6.116  14.851  0.00  0.00    +0.000 OA
BRANCH  21  24
ATOM     24  N   UNL     1       7.170   5.443  16.537  0.00  0.00    +0.000 NA
ATOM     25  C   UNL     1       7.663   4.640  17.675  0.00  0.00    +0.000 C 
ATOM     26  C   UNL     1       7.465   5.379  18.999  0.00  0.00    +0.000 C 
ATOM     27  O   UNL     1       8.051   6.687  18.964  0.00  0.00    +0.000 OA
ATOM     28  C   UNL     1       7.462   7.482  17.926  0.00  0.00    +0.000 C 
ATOM     29  C   UNL     1       7.652   6.842  16.546  0.00  0.00    +0.000 C 
ENDBRANCH  21  24
ENDBRANCH   5  21
TORSDOF 4
ENDMDL
MODEL 6
REMARK VINA RESULT:      -8.2      4.728      9.477
REMARK  Name = 
REMARK  4 active torsions:
REMARK  status: ('A' for Active; 'I' for Inactive)
REMARK    1  A    between atoms: C_2  and  C_19
REMARK    2  A    between atoms: N_3  and  C_4
REMARK    3  A    between atoms: C_8  and  S_9
REMARK    4  A    between atoms: S_9  and  N_12
REMARK                            x       y       z     vdW  Elec       q    Type
REMARK                         _______ _______ _______ _____ _____    ______ ____
ROOT
ATOM      1  C   UNL     1       2.897   5.678  18.383  0.00  0.00    +0.000 A 
ATOM      2  C   UNL     1       2.541   4.345  18.591  0.00  0.00    +0.000 A 
ATOM      3  C   UNL     1       3.190   3.325  17.886  0.00  0.00    +0.000 A 
ATOM      4  C   UNL     1       4.171   3.630  16.944  0.00  0.00    +0.000 A 
ATOM      5  C   UNL     1       4.477   4.966  16.677  0.00  0.00    +0.000 A 
ATOM      6  C   UNL     1       3.868   5.986  17.418  0.00  0.00    +0.000 A 
ENDROOT
BRANCH   1   9
ATOM      7  O   UNL     1       1.853   5.882  21.182  0.00  0.00    +0.000 OA
ATOM      8  C   UNL     1       1.847   6.815  20.389  0.00  0.00    +0.000 C 
ATOM      9  N   UNL     1       2.342   6.757  19.091  0.00  0.00    +0.000 N 
ATOM     10  H   UNL     1       2.289   7.639  18.592  0.00  0.00    +0.000 HD
BRANCH   8  11
ATOM     11  C   UNL     1       1.261   8.119  20.735  0.00  0.00    +0.000 A 
ATOM     12  C   UNL     1       0.743   8.534  21.948  0.00  0.00    +0.000 A 
ATOM     13  C   UNL     1       0.121   9.835  21.887  0.00  0.00    +0.000 A 
ATOM     14  C   UNL     1      -0.575  10.583  22.865  0.00  0.00    +0.000 A 
ATOM     15  C   UNL     1      -1.154  11.807  22.520  0.00  0.00    +0.000 A 
ATOM     16  F   UNL     1      -1.844  12.490  23.442  0.00  0.00    +0.000 F 
ATOM     17  C   UNL     1      -1.048  12.323  21.240  0.00  0.00    +0.000 A 
ATOM     18  C   UNL     1      -0.333  11.626  20.267  0.00  0.00    +0.000 A 
ATOM     19  C   UNL     1       0.235  10.383  20.607  0.00  0.00    +0.000 A 
ATOM     20  S   UNL     1       1.124   9.359  19.562  0.00  0.00    +0.000 S 
ENDBRANCH   8  11
ENDBRANCH   1   9
BRANCH   5  21
ATOM     21  S   UNL     1       5.762   5.353  15.507  0.00  0.00    +0.000 S 
ATOM     22  O   UNL     1       5.979   4.164  14.709  0.00  0.00    +0.000 OA
ATOM     23  O   UNL     1       5.406   6.611  14.888  0.00  0.00    +0.000 OA
BRANCH  21  24
ATOM     24  N   UNL     1       7.125   5.608  16.448  0.00  0.00    +0.000 NA
ATOM     25  C   UNL     1       7.543   4.647  17.489  0.00  0.00    +0.000 C 
ATOM     26  C   UNL     1       7.377   5.241  18.888  0.00  0.00    +0.000 C 
ATOM     27  O   UNL     1       8.055   6.498  19.009  0.00  0.00    +0.000 OA
ATOM     28  C   UNL     1       7.540   7.448  18.065  0.00  0.00    +0.000 C 
ATOM     29  C   UNL     1       7.706   6.959  16.622  0.00  0.00    +0.000 C 
ENDBRANCH  21  24
ENDBRANCH   5  21
TORSDOF 4
ENDMDL
MODEL 7
REMARK VINA RESULT:      -8.2      6.191      9.021
REMARK  Name = 
REMARK  4 active torsions:
REMARK  status: ('A' for Active; 'I' for Inactive)
REMARK    1  A    between atoms: C_2  and  C_19
REMARK    2  A    between atoms: N_3  and  C_4
REMARK    3  A    between atoms: C_8  and  S_9
REMARK    4  A    between atoms: S_9  and  N_12
REMARK                            x       y       z     vdW  Elec       q    Type
REMARK                         _______ _______ _______ _____ _____    ______ ____
ROOT
ATOM      1  C   UNL     1       6.364   6.407  16.821  0.00  0.00    +0.000 A 
ATOM      2  C   UNL     1       6.775   5.496  15.847  0.00  0.00    +0.000 A 
ATOM      3  C   UNL     1       5.950   4.419  15.499  0.00  0.00    +0.000 A 
ATOM      4  C   UNL     1       4.731   4.223  16.145  0.00  0.00    +0.000 A 
ATOM      5  C   UNL     1       4.352   5.088  17.174  0.00  0.00    +0.000 A 
ATOM      6  C   UNL     1       5.148   6.196  17.488  0.00  0.00    +0.000 A 
ENDROOT
BRANCH   1   9
ATOM      7  O   UNL     1       8.342   6.869  19.021  0.00  0.00    +0.000 OA
ATOM      8  C   UNL     1       7.998   7.737  18.229  0.00  0.00    +0.000 C 
ATOM      9  N   UNL     1       7.098   7.548  17.186  0.00  0.00    +0.000 N 
ATOM     10  H   UNL     1       6.962   8.369  16.607  0.00  0.00    +0.000 HD
BRANCH   8  11
ATOM     11  C   UNL     1       8.492   9.118  18.333  0.00  0.00    +0.000 A 
ATOM     12  C   UNL     1       9.440   9.629  19.201  0.00  0.00    +0.000 A 
ATOM     13  C   UNL     1       9.577  11.063  19.115  0.00  0.00    +0.000 A 
ATOM     14  C   UNL     1      10.367  11.970  19.859  0.00  0.00    +0.000 A 
ATOM     15  C   UNL     1      10.256  13.343  19.621  0.00  0.00    +0.000 A 
ATOM     16  F   UNL     1      10.979  14.197  20.356  0.00  0.00    +0.000 F 
ATOM     17  C   UNL     1       9.401  13.844  18.655  0.00  0.00    +0.000 A 
ATOM     18  C   UNL     1       8.640  12.969  17.880  0.00  0.00    +0.000 A 
ATOM     19  C   UNL     1       8.736  11.586  18.130  0.00  0.00    +0.000 A 
ATOM     20  S   UNL     1       7.875  10.350  17.317  0.00  0.00    +0.000 S 
ENDBRANCH   8  11
ENDBRANCH   1   9
BRANCH   5  21
ATOM     21  S   UNL     1       2.774   4.864  17.968  0.00  0.00    +0.000 S 
ATOM     22  O   UNL     1       2.105   6.150  17.949  0.00  0.00    +0.000 OA
ATOM     23  O   UNL     1       2.161   3.698  17.371  0.00  0.00    +0.000 OA
BRANCH  21  24
ATOM     24  N   UNL     1       3.150   4.494  19.558  0.00  0.00    +0.000 NA
ATOM     25  C   UNL     1       4.155   3.467  19.900  0.00  0.00    +0.000 C 
ATOM     26  C   UNL     1       3.499   2.248  20.552  0.00  0.00    +0.000 C 
ATOM     27  O   UNL     1       2.701   2.623  21.682  0.00  0.00    +0.000 OA
ATOM     28  C   UNL     1       1.658   3.526  21.292  0.00  0.00    +0.000 C 
ATOM     29  C   UNL     1       2.221   4.807  20.667  0.00  0.00    +0.000 C 
ENDBRANCH  21  24
ENDBRANCH   5  21
TORSDOF 4
ENDMDL
MODEL 8
REMARK VINA RESULT:      -8.1      4.115      9.172
REMARK  Name = 
REMARK  4 active torsions:
REMARK  status: ('A' for Active; 'I' for Inactive)
REMARK    1  A    between atoms: C_2  and  C_19
REMARK    2  A    between atoms: N_3  and  C_4
REMARK    3  A    between atoms: C_8  and  S_9
REMARK    4  A    between atoms: S_9  and  N_12
REMARK                            x       y       z     vdW  Elec       q    Type
REMARK                         _______ _______ _______ _____ _____    ______ ____
ROOT
ATOM      1  C   UNL     1       3.090   6.946  18.313  0.00  0.00    +0.000 A 
ATOM      2  C   UNL     1       4.302   7.380  17.775  0.00  0.00    +0.000 A 
ATOM      3  C   UNL     1       5.158   6.469  17.143  0.00  0.00    +0.000 A 
ATOM      4  C   UNL     1       4.827   5.116  17.078  0.00  0.00    +0.000 A 
ATOM      5  C   UNL     1       3.651   4.667  17.682  0.00  0.00    +0.000 A 
ATOM      6  C   UNL     1       2.768   5.583  18.267  0.00  0.00    +0.000 A 
ENDROOT
BRANCH   1   9
ATOM      7  O   UNL     1       1.940   9.559  17.409  0.00  0.00    +0.000 OA
ATOM      8  C   UNL     1       1.646   9.023  18.469  0.00  0.00    +0.000 C 
ATOM      9  N   UNL     1       2.147   7.802  18.907  0.00  0.00    +0.000 N 
ATOM     10  H   UNL     1       1.761   7.494  19.793  0.00  0.00    +0.000 HD
BRANCH   8  11
ATOM     11  C   UNL     1       0.732   9.659  19.429  0.00  0.00    +0.000 A 
ATOM     12  C   UNL     1      -0.164  10.690  19.210  0.00  0.00    +0.000 A 
ATOM     13  C   UNL     1      -0.800  11.158  20.418  0.00  0.00    +0.000 A 
ATOM     14  C   UNL     1      -1.710  12.218  20.642  0.00  0.00    +0.000 A 
ATOM     15  C   UNL     1      -2.123  12.513  21.944  0.00  0.00    +0.000 A 
ATOM     16  F   UNL     1      -2.954  13.542  22.152  0.00  0.00    +0.000 F 
ATOM     17  C   UNL     1      -1.679  11.778  23.030  0.00  0.00    +0.000 A 
ATOM     18  C   UNL     1      -0.813  10.703  22.833  0.00  0.00    +0.000 A 
ATOM     19  C   UNL     1      -0.380  10.415  21.524  0.00  0.00    +0.000 A 
ATOM     20  S   UNL     1       0.696   9.164  21.068  0.00  0.00    +0.000 S 
ENDBRANCH   8  11
ENDBRANCH   1   9
BRANCH   5  21
ATOM     21  S   UNL     1       3.205   2.947  17.558  0.00  0.00    +0.000 S 
ATOM     22  O   UNL     1       2.073   2.867  16.657  0.00  0.00    +0.000 OA
ATOM     23  O   UNL     1       4.423   2.212  17.292  0.00  0.00    +0.000 OA
BRANCH  21  24
ATOM     24  N   UNL     1       2.679   2.536  19.095  0.00  0.00    +0.000 NA
ATOM     25  C   UNL     1       1.246   2.357  19.405  0.00  0.00    +0.000 C 
ATOM     26  C   UNL     1       0.740   3.461  20.334  0.00  0.00    +0.000 C 
ATOM     27  O   UNL     1       1.541   3.559  21.518  0.00  0.00    +0.000 OA
ATOM     28  C   UNL     1       2.905   3.856  21.187  0.00  0.00    +0.000 C 
ATOM     29  C   UNL     1       3.519   2.775  20.291  0.00  0.00    +0.000 C 
ENDBRANCH  21  24
ENDBRANCH   5  21
TORSDOF 4
ENDMDL
MODEL 9
REMARK VINA RESULT:      -8.1      1.187      1.289
REMARK  Name = 
REMARK  4 active torsions:
REMARK  status: ('A' for Active; 'I' for Inactive)
REMARK    1  A    between atoms: C_2  and  C_19
REMARK    2  A    between atoms: N_3  and  C_4
REMARK    3  A    between atoms: C_8  and  S_9
REMARK    4  A    between atoms: S_9  and  N_12
REMARK                            x       y       z     vdW  Elec       q    Type
REMARK                         _______ _______ _______ _____ _____    ______ ____
ROOT
ATOM      1  C   UNL     1       0.687   9.426  20.567  0.00  0.00    +0.000 A 
ATOM      2  C   UNL     1       0.568   9.504  21.955  0.00  0.00    +0.000 A 
ATOM      3  C   UNL     1      -0.339  10.401  22.534  0.00  0.00    +0.000 A 
ATOM      4  C   UNL     1      -1.102  11.250  21.735  0.00  0.00    +0.000 A 
ATOM      5  C   UNL     1      -0.931  11.227  20.349  0.00  0.00    +0.000 A 
ATOM      6  C   UNL     1      -0.065  10.295  19.764  0.00  0.00    +0.000 A 
ENDROOT
BRANCH   1   9
ATOM      7  O   UNL     1       1.960   9.513  17.858  0.00  0.00    +0.000 OA
ATOM      8  C   UNL     1       2.084   8.573  18.633  0.00  0.00    +0.000 C 
ATOM      9  N   UNL     1       1.523   8.512  19.904  0.00  0.00    +0.000 N 
ATOM     10  H   UNL     1       1.765   7.673  20.419  0.00  0.00    +0.000 HD
BRANCH   8  11
ATOM     11  C   UNL     1       2.834   7.363  18.265  0.00  0.00    +0.000 A 
ATOM     12  C   UNL     1       3.861   7.233  17.348  0.00  0.00    +0.000 A 
ATOM     13  C   UNL     1       4.270   5.865  17.140  0.00  0.00    +0.000 A 
ATOM     14  C   UNL     1       5.218   5.299  16.256  0.00  0.00    +0.000 A 
ATOM     15  C   UNL     1       5.372   3.911  16.200  0.00  0.00    +0.000 A 
ATOM     16  F   UNL     1       6.244   3.382  15.334  0.00  0.00    +0.000 F 
ATOM     17  C   UNL     1       4.630   3.067  17.008  0.00  0.00    +0.000 A 
ATOM     18  C   UNL     1       3.717   3.600  17.916  0.00  0.00    +0.000 A 
ATOM     19  C   UNL     1       3.546   4.997  17.961  0.00  0.00    +0.000 A 
ATOM     20  S   UNL     1       2.465   5.851  18.979  0.00  0.00    +0.000 S 
ENDBRANCH   8  11
ENDBRANCH   1   9
BRANCH   5  21
ATOM     21  S   UNL     1      -1.940  12.278  19.325  0.00  0.00    +0.000 S 
ATOM     22  O   UNL     1      -2.850  12.980  20.207  0.00  0.00    +0.000 OA
ATOM     23  O   UNL     1      -1.045  13.002  18.449  0.00  0.00    +0.000 OA
BRANCH  21  24
ATOM     24  N   UNL     1      -2.836  11.218  18.386  0.00  0.00    +0.000 NA
ATOM     25  C   UNL     1      -2.232  10.471  17.264  0.00  0.00    +0.000 C 
ATOM     26  C   UNL     1      -2.780  10.954  15.920  0.00  0.00    +0.000 C 
ATOM     27  O   UNL     1      -4.213  10.909  15.891  0.00  0.00    +0.000 OA
ATOM     28  C   UNL     1      -4.769  11.743  16.917  0.00  0.00    +0.000 C 
ATOM     29  C   UNL     1      -4.312  11.305  18.313  0.00  0.00    +0.000 C 
ENDBRANCH  21  24
ENDBRANCH   5  21
TORSDOF 4
ENDMDL
