MODEL 1
REMARK VINA RESULT:      -8.7      0.000      0.000
REMARK  Name = 
REMARK  5 active torsions:
REMARK  status: ('A' for Active; 'I' for Inactive)
REMARK    1  A    between atoms: C_1  and  C_2
REMARK    2  A    between atoms: C_12  and  C_13
REMARK    3  A    between atoms: N_15  and  C_16
REMARK    4  A    between atoms: C_22  and  C_23
REMARK    5  A    between atoms: N_25  and  C_26
REMARK                            x       y       z     vdW  Elec       q    Type
REMARK                         _______ _______ _______ _____ _____    ______ ____
ROOT
ATOM      1  C   UNL     1       1.833   7.874  19.649  0.00  0.00    +0.000 C 
ATOM      2  O   UNL     1       1.506   7.752  20.824  0.00  0.00    +0.000 OA
ATOM      3  N   UNL     1       1.457   8.901  18.813  0.00  0.00    +0.000 N 
ATOM      4  H   UNL     1       1.635   8.788  17.826  0.00  0.00    +0.000 HD
ENDROOT
BRANCH   1  16
ATOM      5  C   UNL     1       1.792   4.898  20.551  0.00  0.00    +0.000 C 
ATOM      6  C   UNL     1       2.584   5.435  19.396  0.00  0.00    +0.000 A 
ATOM      7  N   UNL     1       3.301   4.487  18.735  0.00  0.00    +0.000 NA
ATOM      8  C   UNL     1       4.066   4.845  17.689  0.00  0.00    +0.000 A 
ATOM      9  C   UNL     1       4.773   3.879  16.998  0.00  0.00    +0.000 A 
ATOM     10  C   UNL     1       5.595   4.224  15.929  0.00  0.00    +0.000 A 
ATOM     11  F   UNL     1       6.272   3.266  15.284  0.00  0.00    +0.000 F 
ATOM     12  C   UNL     1       5.730   5.544  15.524  0.00  0.00    +0.000 A 
ATOM     13  C   UNL     1       5.013   6.533  16.189  0.00  0.00    +0.000 A 
ATOM     14  C   UNL     1       4.176   6.187  17.261  0.00  0.00    +0.000 A 
ATOM     15  C   UNL     1       3.424   7.148  17.940  0.00  0.00    +0.000 A 
ATOM     16  C   UNL     1       2.615   6.779  19.021  0.00  0.00    +0.000 A 
ENDBRANCH   1  16
BRANCH   3  17
ATOM     17  C   UNL     1       0.648  10.001  19.162  0.00  0.00    +0.000 A 
ATOM     18  C   UNL     1       0.974  10.987  20.096  0.00  0.00    +0.000 A 
ATOM     19  N   UNL     1       0.173  12.019  20.481  0.00  0.00    +0.000 NA
ATOM     20  C   UNL     1      -1.031  11.995  19.875  0.00  0.00    +0.000 A 
ATOM     21  C   UNL     1      -1.472  11.088  18.928  0.00  0.00    +0.000 A 
ATOM     22  C   UNL     1      -0.595  10.072  18.529  0.00  0.00    +0.000 A 
ATOM     23  C   UNL     1      -2.805  11.473  18.642  0.00  0.00    +0.000 A 
ATOM     24  C   UNL     1      -3.760  10.795  17.731  0.00  0.00    +0.000 C 
ATOM     25  N   UNL     1      -3.174  12.558  19.338  0.00  0.00    +0.000 NA
ATOM     26  N   UNL     1      -2.076  12.853  20.075  0.00  0.00    +0.000 N 
ATOM     27  C   UNL     1      -2.081  13.966  20.990  0.00  0.00    +0.000 C 
ENDBRANCH   3  17
TORSDOF 2
ENDMDL
MODEL 2
REMARK VINA RESULT:      -8.7      1.418      1.633
REMARK  Name = 
REMARK  5 active torsions:
REMARK  status: ('A' for Active; 'I' for Inactive)
REMARK    1  A    between atoms: C_1  and  C_2
REMARK    2  A    between atoms: C_12  and  C_13
REMARK    3  A    between atoms: N_15  and  C_16
REMARK    4  A    between atoms: C_22  and  C_23
REMARK    5  A    between atoms: N_25  and  C_26
REMARK                            x       y       z     vdW  Elec       q    Type
REMARK                         _______ _______ _______ _____ _____    ______ ____
ROOT
ATOM      1  C   UNL     1       2.099   6.607  19.976  0.00  0.00    +0.000 C 
ATOM      2  O   UNL     1       1.403   6.036  20.807  0.00  0.00    +0.000 OA
ATOM      3  N   UNL     1       2.090   7.958  19.713  0.00  0.00    +0.000 N 
ATOM      4  H   UNL     1       2.567   8.275  18.882  0.00  0.00    +0.000 HD
ENDROOT
BRANCH   1  16
ATOM      5  C   UNL     1       2.623   3.562  20.326  0.00  0.00    +0.000 C 
ATOM      6  C   UNL     1       3.177   4.408  19.218  0.00  0.00    +0.000 A 
ATOM      7  N   UNL     1       3.945   3.717  18.333  0.00  0.00    +0.000 NA
ATOM      8  C   UNL     1       4.513   4.366  17.302  0.00  0.00    +0.000 A 
ATOM      9  C   UNL     1       5.270   3.661  16.385  0.00  0.00    +0.000 A 
ATOM     10  C   UNL     1       5.894   4.311  15.324  0.00  0.00    +0.000 A 
ATOM     11  F   UNL     1       6.625   3.601  14.456  0.00  0.00    +0.000 F 
ATOM     12  C   UNL     1       5.775   5.682  15.153  0.00  0.00    +0.000 A 
ATOM     13  C   UNL     1       5.001   6.413  16.049  0.00  0.00    +0.000 A 
ATOM     14  C   UNL     1       4.363   5.759  17.115  0.00  0.00    +0.000 A 
ATOM     15  C   UNL     1       3.561   6.453  18.023  0.00  0.00    +0.000 A 
ATOM     16  C   UNL     1       2.956   5.780  19.091  0.00  0.00    +0.000 A 
ENDBRANCH   1  16
BRANCH   3  17
ATOM     17  C   UNL     1       1.297   8.925  20.363  0.00  0.00    +0.000 A 
ATOM     18  C   UNL     1       1.221   9.121  21.745  0.00  0.00    +0.000 A 
ATOM     19  N   UNL     1       0.413  10.012  22.382  0.00  0.00    +0.000 NA
ATOM     20  C   UNL     1      -0.366  10.708  21.529  0.00  0.00    +0.000 A 
ATOM     21  C   UNL     1      -0.379  10.621  20.148  0.00  0.00    +0.000 A 
ATOM     22  C   UNL     1       0.503   9.724  19.536  0.00  0.00    +0.000 A 
ATOM     23  C   UNL     1      -1.390  11.522  19.733  0.00  0.00    +0.000 A 
ATOM     24  C   UNL     1      -1.856  11.771  18.346  0.00  0.00    +0.000 C 
ATOM     25  N   UNL     1      -1.960  12.152  20.771  0.00  0.00    +0.000 NA
ATOM     26  N   UNL     1      -1.316  11.639  21.846  0.00  0.00    +0.000 N 
ATOM     27  C   UNL     1      -1.664  12.056  23.181  0.00  0.00    +0.000 C 
ENDBRANCH   3  17
TORSDOF 2
ENDMDL
MODEL 3
REMARK VINA RESULT:      -8.4      3.467      8.888
REMARK  Name = 
REMARK  5 active torsions:
REMARK  status: ('A' for Active; 'I' for Inactive)
REMARK    1  A    between atoms: C_1  and  C_2
REMARK    2  A    between atoms: C_12  and  C_13
REMARK    3  A    between atoms: N_15  and  C_16
REMARK    4  A    between atoms: C_22  and  C_23
REMARK    5  A    between atoms: N_25  and  C_26
REMARK                            x       y       z     vdW  Elec       q    Type
REMARK                         _______ _______ _______ _____ _____    ______ ____
ROOT
ATOM      1  C   UNL     1       1.399   9.453  18.213  0.00  0.00    +0.000 C 
ATOM      2  O   UNL     1       2.230  10.069  17.556  0.00  0.00    +0.000 OA
ATOM      3  N   UNL     1       1.538   8.166  18.681  0.00  0.00    +0.000 N 
ATOM      4  H   UNL     1       0.714   7.708  19.042  0.00  0.00    +0.000 HD
ENDROOT
BRANCH   1  16
ATOM      5  C   UNL     1       0.632  11.121  20.722  0.00  0.00    +0.000 C 
ATOM      6  C   UNL     1      -0.271  10.864  19.553  0.00  0.00    +0.000 A 
ATOM      7  N   UNL     1      -1.495  11.448  19.665  0.00  0.00    +0.000 NA
ATOM      8  C   UNL     1      -2.401  11.279  18.687  0.00  0.00    +0.000 A 
ATOM      9  C   UNL     1      -3.635  11.894  18.786  0.00  0.00    +0.000 A 
ATOM     10  C   UNL     1      -4.604  11.714  17.804  0.00  0.00    +0.000 A 
ATOM     11  F   UNL     1      -5.791  12.319  17.931  0.00  0.00    +0.000 F 
ATOM     12  C   UNL     1      -4.363  10.913  16.697  0.00  0.00    +0.000 A 
ATOM     13  C   UNL     1      -3.122  10.299  16.562  0.00  0.00    +0.000 A 
ATOM     14  C   UNL     1      -2.140  10.487  17.547  0.00  0.00    +0.000 A 
ATOM     15  C   UNL     1      -0.875   9.904  17.438  0.00  0.00    +0.000 A 
ATOM     16  C   UNL     1       0.078  10.089  18.446  0.00  0.00    +0.000 A 
ENDBRANCH   1  16
BRANCH   3  17
ATOM     17  C   UNL     1       2.665   7.337  18.507  0.00  0.00    +0.000 A 
ATOM     18  C   UNL     1       3.731   7.583  17.637  0.00  0.00    +0.000 A 
ATOM     19  N   UNL     1       4.791   6.758  17.420  0.00  0.00    +0.000 NA
ATOM     20  C   UNL     1       4.712   5.613  18.129  0.00  0.00    +0.000 A 
ATOM     21  C   UNL     1       3.724   5.254  19.029  0.00  0.00    +0.000 A 
ATOM     22  C   UNL     1       2.678   6.156  19.254  0.00  0.00    +0.000 A 
ATOM     23  C   UNL     1       4.082   3.956  19.468  0.00  0.00    +0.000 A 
ATOM     24  C   UNL     1       3.325   3.083  20.399  0.00  0.00    +0.000 C 
ATOM     25  N   UNL     1       5.224   3.533  18.908  0.00  0.00    +0.000 NA
ATOM     26  N   UNL     1       5.584   4.561  18.103  0.00  0.00    +0.000 N 
ATOM     27  C   UNL     1       6.775   4.481  17.294  0.00  0.00    +0.000 C 
ENDBRANCH   3  17
TORSDOF 2
ENDMDL
MODEL 4
REMARK VINA RESULT:      -8.4      3.465      8.932
REMARK  Name = 
REMARK  5 active torsions:
REMARK  status: ('A' for Active; 'I' for Inactive)
REMARK    1  A    between atoms: C_1  and  C_2
REMARK    2  A    between atoms: C_12  and  C_13
REMARK    3  A    between atoms: N_15  and  C_16
REMARK    4  A    between atoms: C_22  and  C_23
REMARK    5  A    between atoms: N_25  and  C_26
REMARK                            x       y       z     vdW  Elec       q    Type
REMARK                         _______ _______ _______ _____ _____    ______ ____
ROOT
ATOM      1  C   UNL     1       1.403   9.460  18.067  0.00  0.00    +0.000 C 
ATOM      2  O   UNL     1       2.211  10.075  17.382  0.00  0.00    +0.000 OA
ATOM      3  N   UNL     1       1.500   8.135  18.427  0.00  0.00    +0.000 N 
ATOM      4  H   UNL     1       0.683   7.699  18.829  0.00  0.00    +0.000 HD
ENDROOT
BRANCH   1  16
ATOM      5  C   UNL     1       1.109  11.363  20.509  0.00  0.00    +0.000 C 
ATOM      6  C   UNL     1       0.012  11.030  19.542  0.00  0.00    +0.000 A 
ATOM      7  N   UNL     1      -1.165  11.656  19.811  0.00  0.00    +0.000 NA
ATOM      8  C   UNL     1      -2.231  11.428  19.024  0.00  0.00    +0.000 A 
ATOM      9  C   UNL     1      -3.421  12.085  19.279  0.00  0.00    +0.000 A 
ATOM     10  C   UNL     1      -4.549  11.846  18.500  0.00  0.00    +0.000 A 
ATOM     11  F   UNL     1      -5.688  12.494  18.776  0.00  0.00    +0.000 F 
ATOM     12  C   UNL     1      -4.516  10.946  17.446  0.00  0.00    +0.000 A 
ATOM     13  C   UNL     1      -3.326  10.287  17.155  0.00  0.00    +0.000 A 
ATOM     14  C   UNL     1      -2.184  10.532  17.933  0.00  0.00    +0.000 A 
ATOM     15  C   UNL     1      -0.966   9.906  17.660  0.00  0.00    +0.000 A 
ATOM     16  C   UNL     1       0.152  10.151  18.467  0.00  0.00    +0.000 A 
ENDBRANCH   1  16
BRANCH   3  17
ATOM     17  C   UNL     1       2.551   7.258  18.090  0.00  0.00    +0.000 A 
ATOM     18  C   UNL     1       3.823   7.640  17.657  0.00  0.00    +0.000 A 
ATOM     19  N   UNL     1       4.822   6.799  17.273  0.00  0.00    +0.000 NA
ATOM     20  C   UNL     1       4.456   5.501  17.323  0.00  0.00    +0.000 A 
ATOM     21  C   UNL     1       3.240   4.991  17.742  0.00  0.00    +0.000 A 
ATOM     22  C   UNL     1       2.260   5.894  18.172  0.00  0.00    +0.000 A 
ATOM     23  C   UNL     1       3.349   3.590  17.566  0.00  0.00    +0.000 A 
ATOM     24  C   UNL     1       2.300   2.571  17.810  0.00  0.00    +0.000 C 
ATOM     25  N   UNL     1       4.553   3.235  17.094  0.00  0.00    +0.000 NA
ATOM     26  N   UNL     1       5.203   4.416  16.959  0.00  0.00    +0.000 N 
ATOM     27  C   UNL     1       6.550   4.461  16.446  0.00  0.00    +0.000 C 
ENDBRANCH   3  17
TORSDOF 2
ENDMDL
MODEL 5
REMARK VINA RESULT:      -8.4      1.281      1.981
REMARK  Name = 
REMARK  5 active torsions:
REMARK  status: ('A' for Active; 'I' for Inactive)
REMARK    1  A    between atoms: C_1  and  C_2
REMARK    2  A    between atoms: C_12  and  C_13
REMARK    3  A    between atoms: N_15  and  C_16
REMARK    4  A    between atoms: C_22  and  C_23
REMARK    5  A    between atoms: N_25  and  C_26
REMARK                            x       y       z     vdW  Elec       q    Type
REMARK                         _______ _______ _______ _____ _____    ______ ____
ROOT
ATOM      1  C   UNL     1       1.930   7.981  19.650  0.00  0.00    +0.000 C 
ATOM      2  O   UNL     1       1.699   7.879  20.849  0.00  0.00    +0.000 OA
ATOM      3  N   UNL     1       1.518   9.014  18.838  0.00  0.00    +0.000 N 
ATOM      4  H   UNL     1       1.608   8.888  17.840  0.00  0.00    +0.000 HD
ENDROOT
BRANCH   1  16
ATOM      5  C   UNL     1       1.588   4.975  20.368  0.00  0.00    +0.000 C 
ATOM      6  C   UNL     1       2.453   5.501  19.261  0.00  0.00    +0.000 A 
ATOM      7  N   UNL     1       3.092   4.529  18.555  0.00  0.00    +0.000 NA
ATOM      8  C   UNL     1       3.910   4.874  17.545  0.00  0.00    +0.000 A 
ATOM      9  C   UNL     1       4.538   3.888  16.808  0.00  0.00    +0.000 A 
ATOM     10  C   UNL     1       5.413   4.215  15.777  0.00  0.00    +0.000 A 
ATOM     11  F   UNL     1       6.010   3.237  15.085  0.00  0.00    +0.000 F 
ATOM     12  C   UNL     1       5.680   5.538  15.455  0.00  0.00    +0.000 A 
ATOM     13  C   UNL     1       5.044   6.550  16.167  0.00  0.00    +0.000 A 
ATOM     14  C   UNL     1       4.155   6.223  17.202  0.00  0.00    +0.000 A 
ATOM     15  C   UNL     1       3.482   7.209  17.926  0.00  0.00    +0.000 A 
ATOM     16  C   UNL     1       2.618   6.856  18.969  0.00  0.00    +0.000 A 
ENDBRANCH   1  16
BRANCH   3  17
ATOM     17  C   UNL     1       0.779  10.143  19.242  0.00  0.00    +0.000 A 
ATOM     18  C   UNL     1      -0.505  10.121  19.794  0.00  0.00    +0.000 A 
ATOM     19  N   UNL     1      -1.248  11.211  20.131  0.00  0.00    +0.000 NA
ATOM     20  C   UNL     1      -0.623  12.373  19.851  0.00  0.00    +0.000 A 
ATOM     21  C   UNL     1       0.645  12.533  19.320  0.00  0.00    +0.000 A 
ATOM     22  C   UNL     1       1.390  11.382  19.034  0.00  0.00    +0.000 A 
ATOM     23  C   UNL     1       0.813  13.933  19.186  0.00  0.00    +0.000 A 
ATOM     24  C   UNL     1       1.979  14.645  18.609  0.00  0.00    +0.000 C 
ATOM     25  N   UNL     1      -0.258  14.612  19.621  0.00  0.00    +0.000 NA
ATOM     26  N   UNL     1      -1.111  13.638  20.021  0.00  0.00    +0.000 N 
ATOM     27  C   UNL     1      -2.414  13.969  20.543  0.00  0.00    +0.000 C 
ENDBRANCH   3  17
TORSDOF 2
ENDMDL
MODEL 6
REMARK VINA RESULT:      -8.2      2.645      4.343
REMARK  Name = 
REMARK  5 active torsions:
REMARK  status: ('A' for Active; 'I' for Inactive)
REMARK    1  A    between atoms: C_1  and  C_2
REMARK    2  A    between atoms: C_12  and  C_13
REMARK    3  A    between atoms: N_15  and  C_16
REMARK    4  A    between atoms: C_22  and  C_23
REMARK    5  A    between atoms: N_25  and  C_26
REMARK                            x       y       z     vdW  Elec       q    Type
REMARK                         _______ _______ _______ _____ _____    ______ ____
ROOT
ATOM      1  C   UNL     1       4.548   5.904  17.738  0.00  0.00    +0.000 C 
ATOM      2  O   UNL     1       4.507   5.079  18.644  0.00  0.00    +0.000 OA
ATOM      3  N   UNL     1       3.810   7.063  17.673  0.00  0.00    +0.000 N 
ATOM      4  H   UNL     1       3.794   7.558  16.794  0.00  0.00    +0.000 HD
ENDROOT
BRANCH   1  16
ATOM      5  C   UNL     1       7.463   6.889  17.284  0.00  0.00    +0.000 C 
ATOM      6  C   UNL     1       6.698   6.007  16.343  0.00  0.00    +0.000 A 
ATOM      7  N   UNL     1       7.403   5.641  15.239  0.00  0.00    +0.000 NA
ATOM      8  C   UNL     1       6.821   4.862  14.310  0.00  0.00    +0.000 A 
ATOM      9  C   UNL     1       7.545   4.466  13.201  0.00  0.00    +0.000 A 
ATOM     10  C   UNL     1       6.960   3.684  12.209  0.00  0.00    +0.000 A 
ATOM     11  F   UNL     1       7.686   3.322  11.144  0.00  0.00    +0.000 F 
ATOM     12  C   UNL     1       5.638   3.278  12.303  0.00  0.00    +0.000 A 
ATOM     13  C   UNL     1       4.893   3.645  13.419  0.00  0.00    +0.000 A 
ATOM     14  C   UNL     1       5.482   4.425  14.425  0.00  0.00    +0.000 A 
ATOM     15  C   UNL     1       4.775   4.797  15.570  0.00  0.00    +0.000 A 
ATOM     16  C   UNL     1       5.379   5.596  16.547  0.00  0.00    +0.000 A 
ENDBRANCH   1  16
BRANCH   3  17
ATOM     17  C   UNL     1       2.892   7.519  18.642  0.00  0.00    +0.000 A 
ATOM     18  C   UNL     1       2.501   6.818  19.786  0.00  0.00    +0.000 A 
ATOM     19  N   UNL     1       1.572   7.225  20.693  0.00  0.00    +0.000 NA
ATOM     20  C   UNL     1       1.012   8.408  20.368  0.00  0.00    +0.000 A 
ATOM     21  C   UNL     1       1.317   9.205  19.278  0.00  0.00    +0.000 A 
ATOM     22  C   UNL     1       2.313   8.766  18.398  0.00  0.00    +0.000 A 
ATOM     23  C   UNL     1       0.432  10.307  19.370  0.00  0.00    +0.000 A 
ATOM     24  C   UNL     1       0.299  11.434  18.414  0.00  0.00    +0.000 C 
ATOM     25  N   UNL     1      -0.359  10.228  20.451  0.00  0.00    +0.000 NA
ATOM     26  N   UNL     1       0.019   9.067  21.037  0.00  0.00    +0.000 N 
ATOM     27  C   UNL     1      -0.626   8.606  22.241  0.00  0.00    +0.000 C 
ENDBRANCH   3  17
TORSDOF 2
ENDMDL
MODEL 7
REMARK VINA RESULT:      -8.1      3.773      9.121
REMARK  Name = 
REMARK  5 active torsions:
REMARK  status: ('A' for Active; 'I' for Inactive)
REMARK    1  A    between atoms: C_1  and  C_2
REMARK    2  A    between atoms: C_12  and  C_13
REMARK    3  A    between atoms: N_15  and  C_16
REMARK    4  A    between atoms: C_22  and  C_23
REMARK    5  A    between atoms: N_25  and  C_26
REMARK                            x       y       z     vdW  Elec       q    Type
REMARK                         _______ _______ _______ _____ _____    ______ ____
ROOT
ATOM      1  C   UNL     1       1.371   9.110  18.983  0.00  0.00    +0.000 C 
ATOM      2  O   UNL     1       1.050   9.020  17.804  0.00  0.00    +0.000 OA
ATOM      3  N   UNL     1       1.978   8.124  19.727  0.00  0.00    +0.000 N 
ATOM      4  H   UNL     1       2.017   8.252  20.728  0.00  0.00    +0.000 HD
ENDROOT
BRANCH   1  16
ATOM      5  C   UNL     1       2.309  11.990  18.280  0.00  0.00    +0.000 C 
ATOM      6  C   UNL     1       1.377  11.640  19.402  0.00  0.00    +0.000 A 
ATOM      7  N   UNL     1       0.942  12.717  20.110  0.00  0.00    +0.000 NA
ATOM      8  C   UNL     1       0.112  12.532  21.151  0.00  0.00    +0.000 A 
ATOM      9  C   UNL     1      -0.354  13.627  21.855  0.00  0.00    +0.000 A 
ATOM     10  C   UNL     1      -1.190  13.466  22.955  0.00  0.00    +0.000 A 
ATOM     11  F   UNL     1      -1.620  14.546  23.619  0.00  0.00    +0.000 F 
ATOM     12  C   UNL     1      -1.582  12.205  23.379  0.00  0.00    +0.000 A 
ATOM     13  C   UNL     1      -1.145  11.087  22.677  0.00  0.00    +0.000 A 
ATOM     14  C   UNL     1      -0.309  11.247  21.561  0.00  0.00    +0.000 A 
ATOM     15  C   UNL     1       0.135  10.152  20.817  0.00  0.00    +0.000 A 
ATOM     16  C   UNL     1       0.988  10.339  19.722  0.00  0.00    +0.000 A 
ENDBRANCH   1  16
BRANCH   3  17
ATOM     17  C   UNL     1       2.355   6.847  19.264  0.00  0.00    +0.000 A 
ATOM     18  C   UNL     1       1.997   5.630  19.850  0.00  0.00    +0.000 A 
ATOM     19  N   UNL     1       2.406   4.397  19.444  0.00  0.00    +0.000 NA
ATOM     20  C   UNL     1       3.249   4.450  18.392  0.00  0.00    +0.000 A 
ATOM     21  C   UNL     1       3.670   5.581  17.716  0.00  0.00    +0.000 A 
ATOM     22  C   UNL     1       3.185   6.823  18.141  0.00  0.00    +0.000 A 
ATOM     23  C   UNL     1       4.568   5.105  16.729  0.00  0.00    +0.000 A 
ATOM     24  C   UNL     1       5.352   5.915  15.764  0.00  0.00    +0.000 C 
ATOM     25  N   UNL     1       4.688   3.770  16.761  0.00  0.00    +0.000 NA
ATOM     26  N   UNL     1       3.874   3.401  17.779  0.00  0.00    +0.000 N 
ATOM     27  C   UNL     1       3.743   2.015  18.151  0.00  0.00    +0.000 C 
ENDBRANCH   3  17
TORSDOF 2
ENDMDL
MODEL 8
REMARK VINA RESULT:      -8.1      3.978      9.132
REMARK  Name = 
REMARK  5 active torsions:
REMARK  status: ('A' for Active; 'I' for Inactive)
REMARK    1  A    between atoms: C_1  and  C_2
REMARK    2  A    between atoms: C_12  and  C_13
REMARK    3  A    between atoms: N_15  and  C_16
REMARK    4  A    between atoms: C_22  and  C_23
REMARK    5  A    between atoms: N_25  and  C_26
REMARK                            x       y       z     vdW  Elec       q    Type
REMARK                         _______ _______ _______ _____ _____    ______ ____
ROOT
ATOM      1  C   UNL     1       1.310   9.186  19.216  0.00  0.00    +0.000 C 
ATOM      2  O   UNL     1       1.058   9.081  18.022  0.00  0.00    +0.000 OA
ATOM      3  N   UNL     1       1.887   8.217  20.004  0.00  0.00    +0.000 N 
ATOM      4  H   UNL     1       1.868   8.354  21.004  0.00  0.00    +0.000 HD
ENDROOT
BRANCH   1  16
ATOM      5  C   UNL     1       2.142  12.085  18.455  0.00  0.00    +0.000 C 
ATOM      6  C   UNL     1       1.209  11.724  19.573  0.00  0.00    +0.000 A 
ATOM      7  N   UNL     1       0.722  12.799  20.249  0.00  0.00    +0.000 NA
ATOM      8  C   UNL     1      -0.114  12.607  21.284  0.00  0.00    +0.000 A 
ATOM      9  C   UNL     1      -0.633  13.698  21.955  0.00  0.00    +0.000 A 
ATOM     10  C   UNL     1      -1.476  13.530  23.048  0.00  0.00    +0.000 A 
ATOM     11  F   UNL     1      -1.958  14.607  23.680  0.00  0.00    +0.000 F 
ATOM     12  C   UNL     1      -1.823  12.265  23.498  0.00  0.00    +0.000 A 
ATOM     13  C   UNL     1      -1.332  11.148  22.829  0.00  0.00    +0.000 A 
ATOM     14  C   UNL     1      -0.488  11.316  21.720  0.00  0.00    +0.000 A 
ATOM     15  C   UNL     1       0.009  10.222  21.009  0.00  0.00    +0.000 A 
ATOM     16  C   UNL     1       0.868  10.416  19.921  0.00  0.00    +0.000 A 
ENDBRANCH   1  16
BRANCH   3  17
ATOM     17  C   UNL     1       2.308   6.941  19.576  0.00  0.00    +0.000 A 
ATOM     18  C   UNL     1       2.986   6.665  18.385  0.00  0.00    +0.000 A 
ATOM     19  N   UNL     1       3.342   5.429  17.938  0.00  0.00    +0.000 NA
ATOM     20  C   UNL     1       2.945   4.442  18.766  0.00  0.00    +0.000 A 
ATOM     21  C   UNL     1       2.283   4.580  19.974  0.00  0.00    +0.000 A 
ATOM     22  C   UNL     1       1.979   5.874  20.415  0.00  0.00    +0.000 A 
ATOM     23  C   UNL     1       2.064   3.256  20.426  0.00  0.00    +0.000 A 
ATOM     24  C   UNL     1       1.339   2.834  21.650  0.00  0.00    +0.000 C 
ATOM     25  N   UNL     1       2.571   2.346  19.582  0.00  0.00    +0.000 NA
ATOM     26  N   UNL     1       3.101   3.096  18.586  0.00  0.00    +0.000 N 
ATOM     27  C   UNL     1       3.734   2.473  17.451  0.00  0.00    +0.000 C 
ENDBRANCH   3  17
TORSDOF 2
ENDMDL
MODEL 9
REMARK VINA RESULT:      -8.1      1.812      2.708
REMARK  Name = 
REMARK  5 active torsions:
REMARK  status: ('A' for Active; 'I' for Inactive)
REMARK    1  A    between atoms: C_1  and  C_2
REMARK    2  A    between atoms: C_12  and  C_13
REMARK    3  A    between atoms: N_15  and  C_16
REMARK    4  A    between atoms: C_22  and  C_23
REMARK    5  A    between atoms: N_25  and  C_26
REMARK                            x       y       z     vdW  Elec       q    Type
REMARK                         _______ _______ _______ _____ _____    ______ ____
ROOT
ATOM      1  C   UNL     1       2.140   8.157  18.308  0.00  0.00    +0.000 C 
ATOM      2  O   UNL     1       2.416   8.992  17.454  0.00  0.00    +0.000 OA
ATOM      3  N   UNL     1       1.428   8.394  19.461  0.00  0.00    +0.000 N 
ATOM      4  H   UNL     1       1.431   7.673  20.169  0.00  0.00    +0.000 HD
ENDROOT
BRANCH   1  16
ATOM      5  C   UNL     1       4.923   7.486  17.092  0.00  0.00    +0.000 C 
ATOM      6  C   UNL     1       3.960   6.477  17.644  0.00  0.00    +0.000 A 
ATOM      7  N   UNL     1       4.415   5.196  17.587  0.00  0.00    +0.000 NA
ATOM      8  C   UNL     1       3.637   4.197  18.038  0.00  0.00    +0.000 A 
ATOM      9  C   UNL     1       4.109   2.897  18.007  0.00  0.00    +0.000 A 
ATOM     10  C   UNL     1       3.315   1.839  18.439  0.00  0.00    +0.000 A 
ATOM     11  F   UNL     1       3.799   0.592  18.391  0.00  0.00    +0.000 F 
ATOM     12  C   UNL     1       2.030   2.054  18.915  0.00  0.00    +0.000 A 
ATOM     13  C   UNL     1       1.539   3.354  18.977  0.00  0.00    +0.000 A 
ATOM     14  C   UNL     1       2.340   4.424  18.550  0.00  0.00    +0.000 A 
ATOM     15  C   UNL     1       1.891   5.745  18.616  0.00  0.00    +0.000 A 
ATOM     16  C   UNL     1       2.702   6.791  18.161  0.00  0.00    +0.000 A 
ENDBRANCH   1  16
BRANCH   3  17
ATOM     17  C   UNL     1       0.873   9.628  19.856  0.00  0.00    +0.000 A 
ATOM     18  C   UNL     1       1.347  10.440  20.890  0.00  0.00    +0.000 A 
ATOM     19  N   UNL     1       0.781  11.603  21.315  0.00  0.00    +0.000 NA
ATOM     20  C   UNL     1      -0.347  11.909  20.641  0.00  0.00    +0.000 A 
ATOM     21  C   UNL     1      -0.913  11.201  19.595  0.00  0.00    +0.000 A 
ATOM     22  C   UNL     1      -0.268  10.037  19.161  0.00  0.00    +0.000 A 
ATOM     23  C   UNL     1      -2.093  11.912  19.267  0.00  0.00    +0.000 A 
ATOM     24  C   UNL     1      -3.107  11.547  18.248  0.00  0.00    +0.000 C 
ATOM     25  N   UNL     1      -2.252  13.002  20.032  0.00  0.00    +0.000 NA
ATOM     26  N   UNL     1      -1.175  12.975  20.853  0.00  0.00    +0.000 N 
ATOM     27  C   UNL     1      -0.990  13.990  21.859  0.00  0.00    +0.000 C 
ENDBRANCH   3  17
TORSDOF 2
ENDMDL
