MODEL 1
REMARK VINA RESULT:      -8.8      0.000      0.000
REMARK  Name = 
REMARK  6 active torsions:
REMARK  status: ('A' for Active; 'I' for Inactive)
REMARK    1  A    between atoms: C_2  and  C_16
REMARK    2  A    between atoms: N_3  and  C_4
REMARK    3  A    between atoms: C_4  and  C_5
REMARK    4  A    between atoms: C_8  and  C_9
REMARK    5  A    between atoms: C_19  and  C_20
REMARK    6  A    between atoms: C_23  and  C_24
REMARK                            x       y       z     vdW  Elec       q    Type
REMARK                         _______ _______ _______ _____ _____    ______ ____
ROOT
ATOM      1  O   UNL     1       1.773   5.151  20.545  0.00  0.00    +0.000 OA
ATOM      2  C   UNL     1       2.297   6.076  19.934  0.00  0.00    +0.000 C 
ATOM      3  N   UNL     1       2.048   7.399  20.220  0.00  0.00    +0.000 N 
ATOM      4  H   UNL     1       2.279   8.116  19.539  0.00  0.00    +0.000 HD
ENDROOT
BRANCH   2   5
ATOM      5  C   UNL     1       3.229   5.805  18.808  0.00  0.00    +0.000 A 
ATOM      6  C   UNL     1       3.692   6.881  18.041  0.00  0.00    +0.000 A 
ATOM      7  C   UNL     1       4.550   6.656  16.958  0.00  0.00    +0.000 A 
ATOM      8  C   UNL     1       4.944   5.354  16.613  0.00  0.00    +0.000 A 
ATOM      9  C   UNL     1       4.462   4.281  17.379  0.00  0.00    +0.000 A 
ATOM     10  C   UNL     1       3.612   4.502  18.469  0.00  0.00    +0.000 A 
BRANCH   8  11
ATOM     11  C   UNL     1       5.820   5.114  15.468  0.00  0.00    +0.000 A 
ATOM     12  N   UNL     1       7.077   5.577  15.378  0.00  0.00    +0.000 NA
ATOM     13  O   UNL     1       7.510   5.141  14.131  0.00  0.00    +0.000 OA
ATOM     14  C   UNL     1       6.474   4.449  13.574  0.00  0.00    +0.000 A 
ATOM     15  N   UNL     1       5.415   4.396  14.361  0.00  0.00    +0.000 NA
BRANCH  14  16
ATOM     16  C   UNL     1       6.713   3.911  12.209  0.00  0.00    +0.000 C 
ATOM     17  F   UNL     1       7.452   4.750  11.432  0.00  0.00    +0.000 F 
ATOM     18  F   UNL     1       7.381   2.725  12.232  0.00  0.00    +0.000 F 
ATOM     19  F   UNL     1       5.553   3.690  11.534  0.00  0.00    +0.000 F 
ENDBRANCH  14  16
ENDBRANCH   8  11
ENDBRANCH   2   5
BRANCH   3  20
ATOM     20  C   UNL     1       1.094   7.748  21.242  0.00  0.00    +0.000 C 
BRANCH  20  21
ATOM     21  C   UNL     1       0.755   9.189  21.143  0.00  0.00    +0.000 A 
ATOM     22  N   UNL     1       1.111  10.048  20.211  0.00  0.00    +0.000 NA
ATOM     23  N   UNL     1       0.557  11.268  20.527  0.00  0.00    +0.000 NA
ATOM     24  C   UNL     1      -0.149  11.139  21.633  0.00  0.00    +0.000 A 
ATOM     25  N   UNL     1      -0.031   9.838  22.058  0.00  0.00    +0.000 N 
ATOM     26  H   UNL     1      -0.423   9.447  22.900  0.00  0.00    +0.000 HD
BRANCH  24  27
ATOM     27  C   UNL     1      -0.900  12.180  22.331  0.00  0.00    +0.000 A 
ATOM     28  C   UNL     1      -0.467  13.508  22.365  0.00  0.00    +0.000 A 
ATOM     29  C   UNL     1      -1.237  14.441  23.043  0.00  0.00    +0.000 A 
ATOM     30  N   UNL     1      -2.392  14.146  23.673  0.00  0.00    +0.000 NA
ATOM     31  C   UNL     1      -2.788  12.855  23.640  0.00  0.00    +0.000 A 
ATOM     32  C   UNL     1      -2.085  11.851  22.995  0.00  0.00    +0.000 A 
ENDBRANCH  24  27
ENDBRANCH  20  21
ENDBRANCH   3  20
TORSDOF 6
ENDMDL
MODEL 2
REMARK VINA RESULT:      -8.7      1.867      2.224
REMARK  Name = 
REMARK  6 active torsions:
REMARK  status: ('A' for Active; 'I' for Inactive)
REMARK    1  A    between atoms: C_2  and  C_16
REMARK    2  A    between atoms: N_3  and  C_4
REMARK    3  A    between atoms: C_4  and  C_5
REMARK    4  A    between atoms: C_8  and  C_9
REMARK    5  A    between atoms: C_19  and  C_20
REMARK    6  A    between atoms: C_23  and  C_24
REMARK                            x       y       z     vdW  Elec       q    Type
REMARK                         _______ _______ _______ _____ _____    ______ ____
ROOT
ATOM      1  O   UNL     1       1.833   4.576  20.349  0.00  0.00    +0.000 OA
ATOM      2  C   UNL     1       2.380   5.538  19.819  0.00  0.00    +0.000 C 
ATOM      3  N   UNL     1       2.177   6.835  20.231  0.00  0.00    +0.000 N 
ATOM      4  H   UNL     1       2.424   7.606  19.617  0.00  0.00    +0.000 HD
ENDROOT
BRANCH   2   5
ATOM      5  C   UNL     1       3.290   5.344  18.659  0.00  0.00    +0.000 A 
ATOM      6  C   UNL     1       3.990   6.449  18.160  0.00  0.00    +0.000 A 
ATOM      7  C   UNL     1       4.835   6.305  17.053  0.00  0.00    +0.000 A 
ATOM      8  C   UNL     1       4.978   5.062  16.417  0.00  0.00    +0.000 A 
ATOM      9  C   UNL     1       4.259   3.965  16.915  0.00  0.00    +0.000 A 
ATOM     10  C   UNL     1       3.422   4.101  18.029  0.00  0.00    +0.000 A 
BRANCH   8  11
ATOM     11  C   UNL     1       5.840   4.914  15.246  0.00  0.00    +0.000 A 
ATOM     12  N   UNL     1       7.034   5.514  15.115  0.00  0.00    +0.000 NA
ATOM     13  O   UNL     1       7.474   5.122  13.856  0.00  0.00    +0.000 OA
ATOM     14  C   UNL     1       6.506   4.315  13.333  0.00  0.00    +0.000 A 
ATOM     15  N   UNL     1       5.484   4.149  14.154  0.00  0.00    +0.000 NA
BRANCH  14  16
ATOM     16  C   UNL     1       6.761   3.799  11.964  0.00  0.00    +0.000 C 
ATOM     17  F   UNL     1       5.617   3.483  11.296  0.00  0.00    +0.000 F 
ATOM     18  F   UNL     1       7.420   4.701  11.186  0.00  0.00    +0.000 F 
ATOM     19  F   UNL     1       7.518   2.669  11.973  0.00  0.00    +0.000 F 
ENDBRANCH  14  16
ENDBRANCH   8  11
ENDBRANCH   2   5
BRANCH   3  20
ATOM     20  C   UNL     1       1.247   7.117  21.296  0.00  0.00    +0.000 C 
BRANCH  20  21
ATOM     21  C   UNL     1       1.049   8.583  21.416  0.00  0.00    +0.000 A 
ATOM     22  N   UNL     1       1.110   9.328  22.500  0.00  0.00    +0.000 NA
ATOM     23  N   UNL     1       0.867  10.631  22.131  0.00  0.00    +0.000 NA
ATOM     24  C   UNL     1       0.683  10.674  20.825  0.00  0.00    +0.000 A 
ATOM     25  N   UNL     1       0.776   9.391  20.345  0.00  0.00    +0.000 N 
ATOM     26  H   UNL     1       0.637   9.099  19.390  0.00  0.00    +0.000 HD
BRANCH  24  27
ATOM     27  C   UNL     1       0.392  11.852  20.010  0.00  0.00    +0.000 A 
ATOM     28  C   UNL     1       1.093  13.050  20.164  0.00  0.00    +0.000 A 
ATOM     29  C   UNL     1       0.762  14.123  19.351  0.00  0.00    +0.000 A 
ATOM     30  N   UNL     1      -0.199  14.081  18.407  0.00  0.00    +0.000 NA
ATOM     31  C   UNL     1      -0.875  12.918  18.281  0.00  0.00    +0.000 A 
ATOM     32  C   UNL     1      -0.623  11.795  19.050  0.00  0.00    +0.000 A 
ENDBRANCH  24  27
ENDBRANCH  20  21
ENDBRANCH   3  20
TORSDOF 6
ENDMDL
MODEL 3
REMARK VINA RESULT:      -8.7      2.759      3.393
REMARK  Name = 
REMARK  6 active torsions:
REMARK  status: ('A' for Active; 'I' for Inactive)
REMARK    1  A    between atoms: C_2  and  C_16
REMARK    2  A    between atoms: N_3  and  C_4
REMARK    3  A    between atoms: C_4  and  C_5
REMARK    4  A    between atoms: C_8  and  C_9
REMARK    5  A    between atoms: C_19  and  C_20
REMARK    6  A    between atoms: C_23  and  C_24
REMARK                            x       y       z     vdW  Elec       q    Type
REMARK                         _______ _______ _______ _____ _____    ______ ____
ROOT
ATOM      1  O   UNL     1       1.957   5.971  20.791  0.00  0.00    +0.000 OA
ATOM      2  C   UNL     1       2.302   6.753  19.912  0.00  0.00    +0.000 C 
ATOM      3  N   UNL     1       1.891   8.065  19.873  0.00  0.00    +0.000 N 
ATOM      4  H   UNL     1       1.971   8.596  19.010  0.00  0.00    +0.000 HD
ENDROOT
BRANCH   2   5
ATOM      5  C   UNL     1       3.183   6.300  18.802  0.00  0.00    +0.000 A 
ATOM      6  C   UNL     1       3.828   7.263  18.019  0.00  0.00    +0.000 A 
ATOM      7  C   UNL     1       4.644   6.870  16.950  0.00  0.00    +0.000 A 
ATOM      8  C   UNL     1       4.812   5.512  16.638  0.00  0.00    +0.000 A 
ATOM      9  C   UNL     1       4.147   4.555  17.420  0.00  0.00    +0.000 A 
ATOM     10  C   UNL     1       3.339   4.943  18.496  0.00  0.00    +0.000 A 
BRANCH   8  11
ATOM     11  C   UNL     1       5.642   5.100  15.508  0.00  0.00    +0.000 A 
ATOM     12  N   UNL     1       6.957   5.355  15.414  0.00  0.00    +0.000 NA
ATOM     13  O   UNL     1       7.319   4.816  14.185  0.00  0.00    +0.000 OA
ATOM     14  C   UNL     1       6.189   4.279  13.641  0.00  0.00    +0.000 A 
ATOM     15  N   UNL     1       5.132   4.420  14.421  0.00  0.00    +0.000 NA
BRANCH  14  16
ATOM     16  C   UNL     1       6.344   3.666  12.296  0.00  0.00    +0.000 C 
ATOM     17  F   UNL     1       5.161   3.545  11.631  0.00  0.00    +0.000 F 
ATOM     18  F   UNL     1       7.163   4.393  11.489  0.00  0.00    +0.000 F 
ATOM     19  F   UNL     1       6.873   2.415  12.360  0.00  0.00    +0.000 F 
ENDBRANCH  14  16
ENDBRANCH   8  11
ENDBRANCH   2   5
BRANCH   3  20
ATOM     20  C   UNL     1       0.971   8.562  20.865  0.00  0.00    +0.000 C 
BRANCH  20  21
ATOM     21  C   UNL     1       0.096   9.600  20.265  0.00  0.00    +0.000 A 
ATOM     22  N   UNL     1      -0.027  10.864  20.614  0.00  0.00    +0.000 NA
ATOM     23  N   UNL     1      -0.947  11.447  19.772  0.00  0.00    +0.000 NA
ATOM     24  C   UNL     1      -1.359  10.542  18.903  0.00  0.00    +0.000 A 
ATOM     25  N   UNL     1      -0.729   9.358  19.200  0.00  0.00    +0.000 N 
ATOM     26  H   UNL     1      -0.874   8.474  18.738  0.00  0.00    +0.000 HD
BRANCH  24  27
ATOM     27  C   UNL     1      -2.337  10.724  17.834  0.00  0.00    +0.000 A 
ATOM     28  C   UNL     1      -3.482  11.507  18.002  0.00  0.00    +0.000 A 
ATOM     29  C   UNL     1      -4.362  11.637  16.939  0.00  0.00    +0.000 A 
ATOM     30  N   UNL     1      -4.178  11.052  15.738  0.00  0.00    +0.000 NA
ATOM     31  C   UNL     1      -3.073  10.289  15.597  0.00  0.00    +0.000 A 
ATOM     32  C   UNL     1      -2.140  10.094  16.602  0.00  0.00    +0.000 A 
ENDBRANCH  24  27
ENDBRANCH  20  21
ENDBRANCH   3  20
TORSDOF 6
ENDMDL
MODEL 4
REMARK VINA RESULT:      -8.6      0.794      1.147
REMARK  Name = 
REMARK  6 active torsions:
REMARK  status: ('A' for Active; 'I' for Inactive)
REMARK    1  A    between atoms: C_2  and  C_16
REMARK    2  A    between atoms: N_3  and  C_4
REMARK    3  A    between atoms: C_4  and  C_5
REMARK    4  A    between atoms: C_8  and  C_9
REMARK    5  A    between atoms: C_19  and  C_20
REMARK    6  A    between atoms: C_23  and  C_24
REMARK                            x       y       z     vdW  Elec       q    Type
REMARK                         _______ _______ _______ _____ _____    ______ ____
ROOT
ATOM      1  O   UNL     1       1.486   5.320  20.274  0.00  0.00    +0.000 OA
ATOM      2  C   UNL     1       2.219   6.194  19.825  0.00  0.00    +0.000 C 
ATOM      3  N   UNL     1       2.198   7.494  20.276  0.00  0.00    +0.000 N 
ATOM      4  H   UNL     1       2.612   8.231  19.713  0.00  0.00    +0.000 HD
ENDROOT
BRANCH   2   5
ATOM      5  C   UNL     1       3.172   5.888  18.725  0.00  0.00    +0.000 A 
ATOM      6  C   UNL     1       3.623   6.935  17.913  0.00  0.00    +0.000 A 
ATOM      7  C   UNL     1       4.500   6.677  16.852  0.00  0.00    +0.000 A 
ATOM      8  C   UNL     1       4.924   5.368  16.576  0.00  0.00    +0.000 A 
ATOM      9  C   UNL     1       4.453   4.323  17.386  0.00  0.00    +0.000 A 
ATOM     10  C   UNL     1       3.585   4.578  18.454  0.00  0.00    +0.000 A 
BRANCH   8  11
ATOM     11  C   UNL     1       5.819   5.092  15.454  0.00  0.00    +0.000 A 
ATOM     12  N   UNL     1       7.110   5.461  15.419  0.00  0.00    +0.000 NA
ATOM     13  O   UNL     1       7.553   5.025  14.175  0.00  0.00    +0.000 OA
ATOM     14  C   UNL     1       6.489   4.427  13.565  0.00  0.00    +0.000 A 
ATOM     15  N   UNL     1       5.402   4.434  14.315  0.00  0.00    +0.000 NA
BRANCH  14  16
ATOM     16  C   UNL     1       6.735   3.907  12.195  0.00  0.00    +0.000 C 
ATOM     17  F   UNL     1       5.585   3.650  11.512  0.00  0.00    +0.000 F 
ATOM     18  F   UNL     1       7.445   4.781  11.430  0.00  0.00    +0.000 F 
ATOM     19  F   UNL     1       7.438   2.742  12.206  0.00  0.00    +0.000 F 
ENDBRANCH  14  16
ENDBRANCH   8  11
ENDBRANCH   2   5
BRANCH   3  20
ATOM     20  C   UNL     1       1.247   7.892  21.283  0.00  0.00    +0.000 C 
BRANCH  20  21
ATOM     21  C   UNL     1       0.607   9.173  20.892  0.00  0.00    +0.000 A 
ATOM     22  N   UNL     1       0.703   9.816  19.747  0.00  0.00    +0.000 NA
ATOM     23  N   UNL     1      -0.067  10.953  19.835  0.00  0.00    +0.000 NA
ATOM     24  C   UNL     1      -0.644  10.983  21.022  0.00  0.00    +0.000 A 
ATOM     25  N   UNL     1      -0.223   9.878  21.721  0.00  0.00    +0.000 N 
ATOM     26  H   UNL     1      -0.459   9.649  22.674  0.00  0.00    +0.000 HD
BRANCH  24  27
ATOM     27  C   UNL     1      -1.540  12.011  21.545  0.00  0.00    +0.000 A 
ATOM     28  C   UNL     1      -1.603  12.316  22.907  0.00  0.00    +0.000 A 
ATOM     29  C   UNL     1      -2.475  13.309  23.327  0.00  0.00    +0.000 A 
ATOM     30  N   UNL     1      -3.270  14.010  22.495  0.00  0.00    +0.000 NA
ATOM     31  C   UNL     1      -3.205  13.693  21.184  0.00  0.00    +0.000 A 
ATOM     32  C   UNL     1      -2.372  12.714  20.669  0.00  0.00    +0.000 A 
ENDBRANCH  24  27
ENDBRANCH  20  21
ENDBRANCH   3  20
TORSDOF 6
ENDMDL
MODEL 5
REMARK VINA RESULT:      -8.6      5.704     11.380
REMARK  Name = 
REMARK  6 active torsions:
REMARK  status: ('A' for Active; 'I' for Inactive)
REMARK    1  A    between atoms: C_2  and  C_16
REMARK    2  A    between atoms: N_3  and  C_4
REMARK    3  A    between atoms: C_4  and  C_5
REMARK    4  A    between atoms: C_8  and  C_9
REMARK    5  A    between atoms: C_19  and  C_20
REMARK    6  A    between atoms: C_23  and  C_24
REMARK                            x       y       z     vdW  Elec       q    Type
REMARK                         _______ _______ _______ _____ _____    ______ ____
ROOT
ATOM      1  O   UNL     1       2.742   5.180  17.711  0.00  0.00    +0.000 OA
ATOM      2  C   UNL     1       3.117   5.842  18.673  0.00  0.00    +0.000 C 
ATOM      3  N   UNL     1       4.172   5.468  19.474  0.00  0.00    +0.000 N 
ATOM      4  H   UNL     1       4.280   5.884  20.394  0.00  0.00    +0.000 HD
ENDROOT
BRANCH   2   5
ATOM      5  C   UNL     1       2.414   7.099  19.044  0.00  0.00    +0.000 A 
ATOM      6  C   UNL     1       1.937   7.243  20.352  0.00  0.00    +0.000 A 
ATOM      7  C   UNL     1       1.248   8.403  20.726  0.00  0.00    +0.000 A 
ATOM      8  C   UNL     1       1.010   9.427  19.796  0.00  0.00    +0.000 A 
ATOM      9  C   UNL     1       1.478   9.265  18.483  0.00  0.00    +0.000 A 
ATOM     10  C   UNL     1       2.177   8.112  18.107  0.00  0.00    +0.000 A 
BRANCH   8  11
ATOM     11  C   UNL     1       0.269  10.628  20.177  0.00  0.00    +0.000 A 
ATOM     12  N   UNL     1       0.197  11.733  19.419  0.00  0.00    +0.000 NA
ATOM     13  O   UNL     1      -0.570  12.613  20.174  0.00  0.00    +0.000 OA
ATOM     14  C   UNL     1      -0.897  11.960  21.327  0.00  0.00    +0.000 A 
ATOM     15  N   UNL     1      -0.412  10.733  21.373  0.00  0.00    +0.000 NA
BRANCH  14  16
ATOM     16  C   UNL     1      -1.702  12.736  22.306  0.00  0.00    +0.000 C 
ATOM     17  F   UNL     1      -2.043  13.973  21.848  0.00  0.00    +0.000 F 
ATOM     18  F   UNL     1      -2.870  12.113  22.624  0.00  0.00    +0.000 F 
ATOM     19  F   UNL     1      -1.037  12.934  23.476  0.00  0.00    +0.000 F 
ENDBRANCH  14  16
ENDBRANCH   8  11
ENDBRANCH   2   5
BRANCH   3  20
ATOM     20  C   UNL     1       4.854   4.222  19.232  0.00  0.00    +0.000 C 
BRANCH  20  21
ATOM     21  C   UNL     1       5.850   4.397  18.145  0.00  0.00    +0.000 A 
ATOM     22  N   UNL     1       7.130   4.689  18.251  0.00  0.00    +0.000 NA
ATOM     23  N   UNL     1       7.657   4.742  16.981  0.00  0.00    +0.000 NA
ATOM     24  C   UNL     1       6.703   4.460  16.114  0.00  0.00    +0.000 A 
ATOM     25  N   UNL     1       5.543   4.254  16.818  0.00  0.00    +0.000 N 
ATOM     26  H   UNL     1       4.633   4.063  16.428  0.00  0.00    +0.000 HD
BRANCH  24  27
ATOM     27  C   UNL     1       6.817   4.410  14.658  0.00  0.00    +0.000 A 
ATOM     28  C   UNL     1       6.055   3.530  13.886  0.00  0.00    +0.000 A 
ATOM     29  C   UNL     1       6.214   3.544  12.508  0.00  0.00    +0.000 A 
ATOM     30  N   UNL     1       7.064   4.365  11.861  0.00  0.00    +0.000 NA
ATOM     31  C   UNL     1       7.802   5.200  12.624  0.00  0.00    +0.000 A 
ATOM     32  C   UNL     1       7.718   5.255  14.005  0.00  0.00    +0.000 A 
ENDBRANCH  24  27
ENDBRANCH  20  21
ENDBRANCH   3  20
TORSDOF 6
ENDMDL
MODEL 6
REMARK VINA RESULT:      -8.5      0.697      1.242
REMARK  Name = 
REMARK  6 active torsions:
REMARK  status: ('A' for Active; 'I' for Inactive)
REMARK    1  A    between atoms: C_2  and  C_16
REMARK    2  A    between atoms: N_3  and  C_4
REMARK    3  A    between atoms: C_4  and  C_5
REMARK    4  A    between atoms: C_8  and  C_9
REMARK    5  A    between atoms: C_19  and  C_20
REMARK    6  A    between atoms: C_23  and  C_24
REMARK                            x       y       z     vdW  Elec       q    Type
REMARK                         _______ _______ _______ _____ _____    ______ ____
ROOT
ATOM      1  O   UNL     1       2.039   5.490  20.703  0.00  0.00    +0.000 OA
ATOM      2  C   UNL     1       2.405   6.392  19.957  0.00  0.00    +0.000 C 
ATOM      3  N   UNL     1       2.044   7.708  20.139  0.00  0.00    +0.000 N 
ATOM      4  H   UNL     1       2.137   8.369  19.373  0.00  0.00    +0.000 HD
ENDROOT
BRANCH   2   5
ATOM      5  C   UNL     1       3.256   6.095  18.774  0.00  0.00    +0.000 A 
ATOM      6  C   UNL     1       3.706   4.784  18.581  0.00  0.00    +0.000 A 
ATOM      7  C   UNL     1       4.530   4.475  17.491  0.00  0.00    +0.000 A 
ATOM      8  C   UNL     1       4.931   5.474  16.591  0.00  0.00    +0.000 A 
ATOM      9  C   UNL     1       4.487   6.788  16.803  0.00  0.00    +0.000 A 
ATOM     10  C   UNL     1       3.654   7.099  17.884  0.00  0.00    +0.000 A 
BRANCH   8  11
ATOM     11  C   UNL     1       5.811   5.161  15.467  0.00  0.00    +0.000 A 
ATOM     12  N   UNL     1       7.099   5.534  15.399  0.00  0.00    +0.000 NA
ATOM     13  O   UNL     1       7.527   5.055  14.166  0.00  0.00    +0.000 OA
ATOM     14  C   UNL     1       6.457   4.430  13.594  0.00  0.00    +0.000 A 
ATOM     15  N   UNL     1       5.380   4.460  14.359  0.00  0.00    +0.000 NA
BRANCH  14  16
ATOM     16  C   UNL     1       6.686   3.861  12.240  0.00  0.00    +0.000 C 
ATOM     17  F   UNL     1       7.429   4.678  11.443  0.00  0.00    +0.000 F 
ATOM     18  F   UNL     1       7.344   2.671  12.285  0.00  0.00    +0.000 F 
ATOM     19  F   UNL     1       5.521   3.636  11.574  0.00  0.00    +0.000 F 
ENDBRANCH  14  16
ENDBRANCH   8  11
ENDBRANCH   2   5
BRANCH   3  20
ATOM     20  C   UNL     1       1.155   8.069  21.214  0.00  0.00    +0.000 C 
BRANCH  20  21
ATOM     21  C   UNL     1       0.510   9.372  20.917  0.00  0.00    +0.000 A 
ATOM     22  N   UNL     1       0.540  10.059  19.795  0.00  0.00    +0.000 NA
ATOM     23  N   UNL     1      -0.206  11.201  19.978  0.00  0.00    +0.000 NA
ATOM     24  C   UNL     1      -0.702  11.191  21.201  0.00  0.00    +0.000 A 
ATOM     25  N   UNL     1      -0.253  10.054  21.827  0.00  0.00    +0.000 N 
ATOM     26  H   UNL     1      -0.428   9.790  22.784  0.00  0.00    +0.000 HD
BRANCH  24  27
ATOM     27  C   UNL     1      -1.546  12.209  21.822  0.00  0.00    +0.000 A 
ATOM     28  C   UNL     1      -2.790  12.563  21.294  0.00  0.00    +0.000 A 
ATOM     29  C   UNL     1      -3.536  13.534  21.943  0.00  0.00    +0.000 A 
ATOM     30  N   UNL     1      -3.135  14.162  23.066  0.00  0.00    +0.000 NA
ATOM     31  C   UNL     1      -1.925  13.817  23.555  0.00  0.00    +0.000 A 
ATOM     32  C   UNL     1      -1.105  12.863  22.976  0.00  0.00    +0.000 A 
ENDBRANCH  24  27
ENDBRANCH  20  21
ENDBRANCH   3  20
TORSDOF 6
ENDMDL
MODEL 7
REMARK VINA RESULT:      -8.5      5.431     11.225
REMARK  Name = 
REMARK  6 active torsions:
REMARK  status: ('A' for Active; 'I' for Inactive)
REMARK    1  A    between atoms: C_2  and  C_16
REMARK    2  A    between atoms: N_3  and  C_4
REMARK    3  A    between atoms: C_4  and  C_5
REMARK    4  A    between atoms: C_8  and  C_9
REMARK    5  A    between atoms: C_19  and  C_20
REMARK    6  A    between atoms: C_23  and  C_24
REMARK                            x       y       z     vdW  Elec       q    Type
REMARK                         _______ _______ _______ _____ _____    ______ ____
ROOT
ATOM      1  O   UNL     1       2.757   5.096  17.694  0.00  0.00    +0.000 OA
ATOM      2  C   UNL     1       3.098   5.683  18.716  0.00  0.00    +0.000 C 
ATOM      3  N   UNL     1       4.125   5.249  19.522  0.00  0.00    +0.000 N 
ATOM      4  H   UNL     1       4.201   5.594  20.475  0.00  0.00    +0.000 HD
ENDROOT
BRANCH   2   5
ATOM      5  C   UNL     1       2.380   6.909  19.157  0.00  0.00    +0.000 A 
ATOM      6  C   UNL     1       2.243   7.970  18.254  0.00  0.00    +0.000 A 
ATOM      7  C   UNL     1       1.595   9.148  18.646  0.00  0.00    +0.000 A 
ATOM      8  C   UNL     1       1.092   9.291  19.949  0.00  0.00    +0.000 A 
ATOM      9  C   UNL     1       1.250   8.227  20.850  0.00  0.00    +0.000 A 
ATOM     10  C   UNL     1       1.887   7.043  20.459  0.00  0.00    +0.000 A 
BRANCH   8  11
ATOM     11  C   UNL     1       0.439  10.528  20.369  0.00  0.00    +0.000 A 
ATOM     12  N   UNL     1       1.044  11.488  21.087  0.00  0.00    +0.000 NA
ATOM     13  O   UNL     1       0.054  12.445  21.277  0.00  0.00    +0.000 OA
ATOM     14  C   UNL     1      -1.068  11.980  20.655  0.00  0.00    +0.000 A 
ATOM     15  N   UNL     1      -0.880  10.809  20.074  0.00  0.00    +0.000 NA
BRANCH  14  16
ATOM     16  C   UNL     1      -2.272  12.845  20.758  0.00  0.00    +0.000 C 
ATOM     17  F   UNL     1      -1.966  14.169  20.839  0.00  0.00    +0.000 F 
ATOM     18  F   UNL     1      -3.099  12.709  19.685  0.00  0.00    +0.000 F 
ATOM     19  F   UNL     1      -3.017  12.559  21.860  0.00  0.00    +0.000 F 
ENDBRANCH  14  16
ENDBRANCH   8  11
ENDBRANCH   2   5
BRANCH   3  20
ATOM     20  C   UNL     1       4.818   4.025  19.210  0.00  0.00    +0.000 C 
BRANCH  20  21
ATOM     21  C   UNL     1       5.800   4.265  18.123  0.00  0.00    +0.000 A 
ATOM     22  N   UNL     1       7.056   4.642  18.229  0.00  0.00    +0.000 NA
ATOM     23  N   UNL     1       7.579   4.730  16.959  0.00  0.00    +0.000 NA
ATOM     24  C   UNL     1       6.646   4.384  16.092  0.00  0.00    +0.000 A 
ATOM     25  N   UNL     1       5.502   4.101  16.797  0.00  0.00    +0.000 N 
ATOM     26  H   UNL     1       4.607   3.849  16.407  0.00  0.00    +0.000 HD
BRANCH  24  27
ATOM     27  C   UNL     1       6.763   4.340  14.636  0.00  0.00    +0.000 A 
ATOM     28  C   UNL     1       5.994   3.472  13.857  0.00  0.00    +0.000 A 
ATOM     29  C   UNL     1       6.157   3.492  12.481  0.00  0.00    +0.000 A 
ATOM     30  N   UNL     1       7.017   4.308  11.839  0.00  0.00    +0.000 NA
ATOM     31  C   UNL     1       7.762   5.131  12.609  0.00  0.00    +0.000 A 
ATOM     32  C   UNL     1       7.675   5.180  13.990  0.00  0.00    +0.000 A 
ENDBRANCH  24  27
ENDBRANCH  20  21
ENDBRANCH   3  20
TORSDOF 6
ENDMDL
MODEL 8
REMARK VINA RESULT:      -8.5      5.313     10.949
REMARK  Name = 
REMARK  6 active torsions:
REMARK  status: ('A' for Active; 'I' for Inactive)
REMARK    1  A    between atoms: C_2  and  C_16
REMARK    2  A    between atoms: N_3  and  C_4
REMARK    3  A    between atoms: C_4  and  C_5
REMARK    4  A    between atoms: C_8  and  C_9
REMARK    5  A    between atoms: C_19  and  C_20
REMARK    6  A    between atoms: C_23  and  C_24
REMARK                            x       y       z     vdW  Elec       q    Type
REMARK                         _______ _______ _______ _____ _____    ______ ____
ROOT
ATOM      1  O   UNL     1       2.281   5.003  18.442  0.00  0.00    +0.000 OA
ATOM      2  C   UNL     1       2.930   5.960  18.850  0.00  0.00    +0.000 C 
ATOM      3  N   UNL     1       4.248   5.863  19.234  0.00  0.00    +0.000 N 
ATOM      4  H   UNL     1       4.663   6.592  19.806  0.00  0.00    +0.000 HD
ENDROOT
BRANCH   2   5
ATOM      5  C   UNL     1       2.299   7.301  18.975  0.00  0.00    +0.000 A 
ATOM      6  C   UNL     1       2.300   8.153  17.865  0.00  0.00    +0.000 A 
ATOM      7  C   UNL     1       1.737   9.432  17.957  0.00  0.00    +0.000 A 
ATOM      8  C   UNL     1       1.182   9.885  19.164  0.00  0.00    +0.000 A 
ATOM      9  C   UNL     1       1.201   9.029  20.276  0.00  0.00    +0.000 A 
ATOM     10  C   UNL     1       1.753   7.745  20.185  0.00  0.00    +0.000 A 
BRANCH   8  11
ATOM     11  C   UNL     1       0.617  11.228  19.272  0.00  0.00    +0.000 A 
ATOM     12  N   UNL     1      -0.646  11.479  19.654  0.00  0.00    +0.000 NA
ATOM     13  O   UNL     1      -0.752  12.864  19.583  0.00  0.00    +0.000 OA
ATOM     14  C   UNL     1       0.460  13.331  19.164  0.00  0.00    +0.000 A 
ATOM     15  N   UNL     1       1.338  12.364  18.968  0.00  0.00    +0.000 NA
BRANCH  14  16
ATOM     16  C   UNL     1       0.563  14.803  18.991  0.00  0.00    +0.000 C 
ATOM     17  F   UNL     1       1.710  15.182  18.361  0.00  0.00    +0.000 F 
ATOM     18  F   UNL     1      -0.462  15.309  18.253  0.00  0.00    +0.000 F 
ATOM     19  F   UNL     1       0.547  15.463  20.180  0.00  0.00    +0.000 F 
ENDBRANCH  14  16
ENDBRANCH   8  11
ENDBRANCH   2   5
BRANCH   3  20
ATOM     20  C   UNL     1       4.910   4.583  19.220  0.00  0.00    +0.000 C 
BRANCH  20  21
ATOM     21  C   UNL     1       5.919   4.551  18.133  0.00  0.00    +0.000 A 
ATOM     22  N   UNL     1       7.231   4.531  18.239  0.00  0.00    +0.000 NA
ATOM     23  N   UNL     1       7.758   4.495  16.968  0.00  0.00    +0.000 NA
ATOM     24  C   UNL     1       6.765   4.470  16.099  0.00  0.00    +0.000 A 
ATOM     25  N   UNL     1       5.588   4.522  16.805  0.00  0.00    +0.000 N 
ATOM     26  H   UNL     1       4.659   4.561  16.415  0.00  0.00    +0.000 HD
BRANCH  24  27
ATOM     27  C   UNL     1       6.864   4.436  14.642  0.00  0.00    +0.000 A 
ATOM     28  C   UNL     1       7.731   5.277  13.939  0.00  0.00    +0.000 A 
ATOM     29  C   UNL     1       7.774   5.183  12.556  0.00  0.00    +0.000 A 
ATOM     30  N   UNL     1       7.028   4.318  11.840  0.00  0.00    +0.000 NA
ATOM     31  C   UNL     1       6.187   3.522  12.535  0.00  0.00    +0.000 A 
ATOM     32  C   UNL     1       6.069   3.546  13.914  0.00  0.00    +0.000 A 
ENDBRANCH  24  27
ENDBRANCH  20  21
ENDBRANCH   3  20
TORSDOF 6
ENDMDL
MODEL 9
REMARK VINA RESULT:      -8.5      0.704      1.179
REMARK  Name = 
REMARK  6 active torsions:
REMARK  status: ('A' for Active; 'I' for Inactive)
REMARK    1  A    between atoms: C_2  and  C_16
REMARK    2  A    between atoms: N_3  and  C_4
REMARK    3  A    between atoms: C_4  and  C_5
REMARK    4  A    between atoms: C_8  and  C_9
REMARK    5  A    between atoms: C_19  and  C_20
REMARK    6  A    between atoms: C_23  and  C_24
REMARK                            x       y       z     vdW  Elec       q    Type
REMARK                         _______ _______ _______ _____ _____    ______ ____
ROOT
ATOM      1  O   UNL     1       1.531   5.333  20.306  0.00  0.00    +0.000 OA
ATOM      2  C   UNL     1       2.174   6.246  19.799  0.00  0.00    +0.000 C 
ATOM      3  N   UNL     1       2.096   7.549  20.235  0.00  0.00    +0.000 N 
ATOM      4  H   UNL     1       2.422   8.303  19.637  0.00  0.00    +0.000 HD
ENDROOT
BRANCH   2   5
ATOM      5  C   UNL     1       3.072   5.985  18.642  0.00  0.00    +0.000 A 
ATOM      6  C   UNL     1       3.402   4.661  18.331  0.00  0.00    +0.000 A 
ATOM      7  C   UNL     1       4.265   4.383  17.264  0.00  0.00    +0.000 A 
ATOM      8  C   UNL     1       4.826   5.422  16.505  0.00  0.00    +0.000 A 
ATOM      9  C   UNL     1       4.501   6.747  16.837  0.00  0.00    +0.000 A 
ATOM     10  C   UNL     1       3.629   7.029  17.895  0.00  0.00    +0.000 A 
BRANCH   8  11
ATOM     11  C   UNL     1       5.747   5.137  15.408  0.00  0.00    +0.000 A 
ATOM     12  N   UNL     1       7.032   5.523  15.390  0.00  0.00    +0.000 NA
ATOM     13  O   UNL     1       7.506   5.069  14.165  0.00  0.00    +0.000 OA
ATOM     14  C   UNL     1       6.463   4.445  13.545  0.00  0.00    +0.000 A 
ATOM     15  N   UNL     1       5.361   4.452  14.273  0.00  0.00    +0.000 NA
BRANCH  14  16
ATOM     16  C   UNL     1       6.743   3.902  12.191  0.00  0.00    +0.000 C 
ATOM     17  F   UNL     1       7.520   4.731  11.439  0.00  0.00    +0.000 F 
ATOM     18  F   UNL     1       7.396   2.708  12.238  0.00  0.00    +0.000 F 
ATOM     19  F   UNL     1       5.606   3.694  11.475  0.00  0.00    +0.000 F 
ENDBRANCH  14  16
ENDBRANCH   8  11
ENDBRANCH   2   5
BRANCH   3  20
ATOM     20  C   UNL     1       1.188   7.900  21.297  0.00  0.00    +0.000 C 
BRANCH  20  21
ATOM     21  C   UNL     1       0.581   9.226  21.022  0.00  0.00    +0.000 A 
ATOM     22  N   UNL     1      -0.058   9.622  19.941  0.00  0.00    +0.000 NA
ATOM     23  N   UNL     1      -0.451  10.926  20.137  0.00  0.00    +0.000 NA
ATOM     24  C   UNL     1      -0.071  11.307  21.341  0.00  0.00    +0.000 A 
ATOM     25  N   UNL     1       0.601  10.259  21.921  0.00  0.00    +0.000 N 
ATOM     26  H   UNL     1       1.048  10.263  22.824  0.00  0.00    +0.000 HD
BRANCH  24  27
ATOM     27  C   UNL     1      -0.274  12.615  21.961  0.00  0.00    +0.000 A 
ATOM     28  C   UNL     1       0.478  13.733  21.594  0.00  0.00    +0.000 A 
ATOM     29  C   UNL     1       0.224  14.942  22.224  0.00  0.00    +0.000 A 
ATOM     30  N   UNL     1      -0.717  15.109  23.175  0.00  0.00    +0.000 NA
ATOM     31  C   UNL     1      -1.425  14.014  23.526  0.00  0.00    +0.000 A 
ATOM     32  C   UNL     1      -1.241  12.764  22.960  0.00  0.00    +0.000 A 
ENDBRANCH  24  27
ENDBRANCH  20  21
ENDBRANCH   3  20
TORSDOF 6
ENDMDL
