MODEL 1
REMARK VINA RESULT:      -9.6      0.000      0.000
REMARK  Name = 
REMARK  6 active torsions:
REMARK  status: ('A' for Active; 'I' for Inactive)
REMARK    1  A    between atoms: C_2  and  C_16
REMARK    2  A    between atoms: N_3  and  C_4
REMARK    3  A    between atoms: C_4  and  C_5
REMARK    4  A    between atoms: C_10  and  N_11
REMARK    5  A    between atoms: C_19  and  N_20
REMARK    6  A    between atoms: C_21  and  C_23
REMARK                            x       y       z     vdW  Elec       q    Type
REMARK                         _______ _______ _______ _____ _____    ______ ____
ROOT
ATOM      1  O   UNL     1       4.383   1.823  19.337  0.00  0.00    +0.000 OA
ATOM      2  C   UNL     1       4.198   2.866  18.714  0.00  0.00    +0.000 C 
ATOM      3  N   UNL     1       4.681   2.984  17.428  0.00  0.00    +0.000 N 
ATOM      4  H   UNL     1       4.981   2.105  17.028  0.00  0.00    +0.000 HD
ENDROOT
BRANCH   2   5
ATOM      5  C   UNL     1       3.504   4.013  19.368  0.00  0.00    +0.000 A 
ATOM      6  C   UNL     1       3.946   5.301  19.073  0.00  0.00    +0.000 A 
ATOM      7  C   UNL     1       3.278   6.410  19.602  0.00  0.00    +0.000 A 
ATOM      8  C   UNL     1       2.150   6.254  20.417  0.00  0.00    +0.000 A 
ATOM      9  C   UNL     1       1.717   4.964  20.720  0.00  0.00    +0.000 A 
ATOM     10  C   UNL     1       2.424   3.855  20.247  0.00  0.00    +0.000 A 
BRANCH   8  11
ATOM     11  N   UNL     1       1.429   7.327  20.966  0.00  0.00    +0.000 N 
ATOM     12  C   UNL     1       1.203   8.557  20.375  0.00  0.00    +0.000 C 
ATOM     13  O   UNL     1       1.580   8.918  19.266  0.00  0.00    +0.000 OA
ATOM     14  H   UNL     1       1.063   7.238  21.910  0.00  0.00    +0.000 HD
BRANCH  12  15
ATOM     15  C   UNL     1       0.428   9.514  21.216  0.00  0.00    +0.000 A 
ATOM     16  C   UNL     1       0.012  10.714  20.647  0.00  0.00    +0.000 A 
ATOM     17  C   UNL     1      -0.736  11.587  21.424  0.00  0.00    +0.000 A 
ATOM     18  C   UNL     1      -1.036  11.236  22.735  0.00  0.00    +0.000 A 
ATOM     19  C   UNL     1      -0.568  10.024  23.224  0.00  0.00    +0.000 A 
ATOM     20  N   UNL     1       0.162   9.145  22.501  0.00  0.00    +0.000 NA
ENDBRANCH  12  15
ENDBRANCH   8  11
ENDBRANCH   2   5
BRANCH   3  21
ATOM     21  C   UNL     1       4.571   4.158  16.593  0.00  0.00    +0.000 C 
BRANCH  21  22
ATOM     22  C   UNL     1       5.567   4.356  15.492  0.00  0.00    +0.000 A 
ATOM     23  C   UNL     1       5.332   3.862  14.200  0.00  0.00    +0.000 A 
ATOM     24  C   UNL     1       6.271   4.047  13.196  0.00  0.00    +0.000 A 
ATOM     25  C   UNL     1       7.434   4.723  13.509  0.00  0.00    +0.000 A 
ATOM     26  N   UNL     1       7.722   5.194  14.739  0.00  0.00    +0.000 NA
ATOM     27  C   UNL     1       6.804   5.000  15.731  0.00  0.00    +0.000 A 
BRANCH  27  28
ATOM     28  N   UNL     1       7.199   5.450  17.049  0.00  0.00    +0.000 N 
ATOM     29  C   UNL     1       7.383   6.771  17.433  0.00  0.00    +0.000 A 
ATOM     30  C   UNL     1       7.838   6.771  18.726  0.00  0.00    +0.000 A 
ATOM     31  C   UNL     1       7.884   5.419  19.080  0.00  0.00    +0.000 A 
ATOM     32  N   UNL     1       7.478   4.619  18.093  0.00  0.00    +0.000 NA
ENDBRANCH  27  28
ENDBRANCH  21  22
ENDBRANCH   3  21
TORSDOF 6
ENDMDL
MODEL 2
REMARK VINA RESULT:      -9.4      1.051      1.448
REMARK  Name = 
REMARK  6 active torsions:
REMARK  status: ('A' for Active; 'I' for Inactive)
REMARK    1  A    between atoms: C_2  and  C_16
REMARK    2  A    between atoms: N_3  and  C_4
REMARK    3  A    between atoms: C_4  and  C_5
REMARK    4  A    between atoms: C_10  and  N_11
REMARK    5  A    between atoms: C_19  and  N_20
REMARK    6  A    between atoms: C_21  and  C_23
REMARK                            x       y       z     vdW  Elec       q    Type
REMARK                         _______ _______ _______ _____ _____    ______ ____
ROOT
ATOM      1  O   UNL     1       5.086   3.213  19.716  0.00  0.00    +0.000 OA
ATOM      2  C   UNL     1       4.645   3.851  18.762  0.00  0.00    +0.000 C 
ATOM      3  N   UNL     1       5.032   3.514  17.483  0.00  0.00    +0.000 N 
ATOM      4  H   UNL     1       5.503   2.621  17.426  0.00  0.00    +0.000 HD
ENDROOT
BRANCH   2   5
ATOM      5  C   UNL     1       3.742   5.015  18.995  0.00  0.00    +0.000 A 
ATOM      6  C   UNL     1       2.815   4.928  20.032  0.00  0.00    +0.000 A 
ATOM      7  C   UNL     1       2.000   6.023  20.337  0.00  0.00    +0.000 A 
ATOM      8  C   UNL     1       2.108   7.225  19.627  0.00  0.00    +0.000 A 
ATOM      9  C   UNL     1       3.027   7.305  18.582  0.00  0.00    +0.000 A 
ATOM     10  C   UNL     1       3.794   6.190  18.234  0.00  0.00    +0.000 A 
BRANCH   8  11
ATOM     11  N   UNL     1       1.327   8.362  19.895  0.00  0.00    +0.000 N 
ATOM     12  C   UNL     1       1.184   8.994  21.116  0.00  0.00    +0.000 C 
ATOM     13  O   UNL     1       1.722   8.681  22.172  0.00  0.00    +0.000 OA
ATOM     14  H   UNL     1       0.764   8.755  19.146  0.00  0.00    +0.000 HD
BRANCH  12  15
ATOM     15  C   UNL     1       0.259  10.164  21.102  0.00  0.00    +0.000 A 
ATOM     16  C   UNL     1      -0.418  10.463  19.923  0.00  0.00    +0.000 A 
ATOM     17  C   UNL     1      -1.301  11.533  19.923  0.00  0.00    +0.000 A 
ATOM     18  C   UNL     1      -1.473  12.266  21.091  0.00  0.00    +0.000 A 
ATOM     19  C   UNL     1      -0.746  11.905  22.218  0.00  0.00    +0.000 A 
ATOM     20  N   UNL     1       0.123  10.869  22.260  0.00  0.00    +0.000 NA
ENDBRANCH  12  15
ENDBRANCH   8  11
ENDBRANCH   2   5
BRANCH   3  21
ATOM     21  C   UNL     1       4.627   4.194  16.274  0.00  0.00    +0.000 C 
BRANCH  21  22
ATOM     22  C   UNL     1       5.635   4.393  15.185  0.00  0.00    +0.000 A 
ATOM     23  C   UNL     1       5.422   3.887  13.894  0.00  0.00    +0.000 A 
ATOM     24  C   UNL     1       6.372   4.075  12.901  0.00  0.00    +0.000 A 
ATOM     25  C   UNL     1       7.524   4.765  13.225  0.00  0.00    +0.000 A 
ATOM     26  N   UNL     1       7.791   5.247  14.455  0.00  0.00    +0.000 NA
ATOM     27  C   UNL     1       6.862   5.052  15.436  0.00  0.00    +0.000 A 
BRANCH  27  28
ATOM     28  N   UNL     1       7.235   5.516  16.756  0.00  0.00    +0.000 N 
ATOM     29  C   UNL     1       7.159   6.827  17.206  0.00  0.00    +0.000 A 
ATOM     30  C   UNL     1       7.684   6.865  18.471  0.00  0.00    +0.000 A 
ATOM     31  C   UNL     1       8.038   5.540  18.742  0.00  0.00    +0.000 A 
ATOM     32  N   UNL     1       7.750   4.718  17.733  0.00  0.00    +0.000 NA
ENDBRANCH  27  28
ENDBRANCH  21  22
ENDBRANCH   3  21
TORSDOF 6
ENDMDL
MODEL 3
REMARK VINA RESULT:      -9.3      0.738      1.158
REMARK  Name = 
REMARK  6 active torsions:
REMARK  status: ('A' for Active; 'I' for Inactive)
REMARK    1  A    between atoms: C_2  and  C_16
REMARK    2  A    between atoms: N_3  and  C_4
REMARK    3  A    between atoms: C_4  and  C_5
REMARK    4  A    between atoms: C_10  and  N_11
REMARK    5  A    between atoms: C_19  and  N_20
REMARK    6  A    between atoms: C_21  and  C_23
REMARK                            x       y       z     vdW  Elec       q    Type
REMARK                         _______ _______ _______ _____ _____    ______ ____
ROOT
ATOM      1  O   UNL     1       4.182   2.040  19.216  0.00  0.00    +0.000 OA
ATOM      2  C   UNL     1       4.066   3.107  18.617  0.00  0.00    +0.000 C 
ATOM      3  N   UNL     1       4.598   3.238  17.352  0.00  0.00    +0.000 N 
ATOM      4  H   UNL     1       4.872   2.357  16.937  0.00  0.00    +0.000 HD
ENDROOT
BRANCH   2   5
ATOM      5  C   UNL     1       3.401   4.267  19.279  0.00  0.00    +0.000 A 
ATOM      6  C   UNL     1       3.869   5.546  18.985  0.00  0.00    +0.000 A 
ATOM      7  C   UNL     1       3.228   6.667  19.522  0.00  0.00    +0.000 A 
ATOM      8  C   UNL     1       2.103   6.532  20.344  0.00  0.00    +0.000 A 
ATOM      9  C   UNL     1       1.644   5.251  20.647  0.00  0.00    +0.000 A 
ATOM     10  C   UNL     1       2.324   4.129  20.165  0.00  0.00    +0.000 A 
BRANCH   8  11
ATOM     11  N   UNL     1       1.409   7.619  20.902  0.00  0.00    +0.000 N 
ATOM     12  C   UNL     1       0.971   8.748  20.234  0.00  0.00    +0.000 C 
ATOM     13  O   UNL     1       1.101   8.990  19.040  0.00  0.00    +0.000 OA
ATOM     14  H   UNL     1       1.237   7.627  21.904  0.00  0.00    +0.000 HD
BRANCH  12  15
ATOM     15  C   UNL     1       0.290   9.753  21.100  0.00  0.00    +0.000 A 
ATOM     16  C   UNL     1      -0.331   9.315  22.266  0.00  0.00    +0.000 A 
ATOM     17  C   UNL     1      -0.936  10.258  23.084  0.00  0.00    +0.000 A 
ATOM     18  C   UNL     1      -0.905  11.596  22.709  0.00  0.00    +0.000 A 
ATOM     19  C   UNL     1      -0.275  11.942  21.521  0.00  0.00    +0.000 A 
ATOM     20  N   UNL     1       0.328  11.055  20.696  0.00  0.00    +0.000 NA
ENDBRANCH  12  15
ENDBRANCH   8  11
ENDBRANCH   2   5
BRANCH   3  21
ATOM     21  C   UNL     1       4.571   4.437  16.547  0.00  0.00    +0.000 C 
BRANCH  21  22
ATOM     22  C   UNL     1       5.497   4.541  15.375  0.00  0.00    +0.000 A 
ATOM     23  C   UNL     1       5.185   3.944  14.145  0.00  0.00    +0.000 A 
ATOM     24  C   UNL     1       6.061   4.044  13.074  0.00  0.00    +0.000 A 
ATOM     25  C   UNL     1       7.240   4.740  13.260  0.00  0.00    +0.000 A 
ATOM     26  N   UNL     1       7.600   5.309  14.427  0.00  0.00    +0.000 NA
ATOM     27  C   UNL     1       6.744   5.200  15.485  0.00  0.00    +0.000 A 
BRANCH  27  28
ATOM     28  N   UNL     1       7.218   5.756  16.736  0.00  0.00    +0.000 N 
ATOM     29  C   UNL     1       7.590   5.028  17.858  0.00  0.00    +0.000 A 
ATOM     30  C   UNL     1       7.891   5.920  18.853  0.00  0.00    +0.000 A 
ATOM     31  C   UNL     1       7.708   7.175  18.265  0.00  0.00    +0.000 A 
ATOM     32  N   UNL     1       7.330   7.090  16.989  0.00  0.00    +0.000 NA
ENDBRANCH  27  28
ENDBRANCH  21  22
ENDBRANCH   3  21
TORSDOF 6
ENDMDL
MODEL 4
REMARK VINA RESULT:      -9.3      0.560      1.190
REMARK  Name = 
REMARK  6 active torsions:
REMARK  status: ('A' for Active; 'I' for Inactive)
REMARK    1  A    between atoms: C_2  and  C_16
REMARK    2  A    between atoms: N_3  and  C_4
REMARK    3  A    between atoms: C_4  and  C_5
REMARK    4  A    between atoms: C_10  and  N_11
REMARK    5  A    between atoms: C_19  and  N_20
REMARK    6  A    between atoms: C_21  and  C_23
REMARK                            x       y       z     vdW  Elec       q    Type
REMARK                         _______ _______ _______ _____ _____    ______ ____
ROOT
ATOM      1  O   UNL     1       4.209   2.116  19.233  0.00  0.00    +0.000 OA
ATOM      2  C   UNL     1       4.081   3.141  18.568  0.00  0.00    +0.000 C 
ATOM      3  N   UNL     1       4.676   3.227  17.328  0.00  0.00    +0.000 N 
ATOM      4  H   UNL     1       5.010   2.338  16.979  0.00  0.00    +0.000 HD
ENDROOT
BRANCH   2   5
ATOM      5  C   UNL     1       3.332   4.304  19.127  0.00  0.00    +0.000 A 
ATOM      6  C   UNL     1       2.305   4.049  20.034  0.00  0.00    +0.000 A 
ATOM      7  C   UNL     1       1.627   5.109  20.642  0.00  0.00    +0.000 A 
ATOM      8  C   UNL     1       1.971   6.439  20.370  0.00  0.00    +0.000 A 
ATOM      9  C   UNL     1       2.990   6.692  19.453  0.00  0.00    +0.000 A 
ATOM     10  C   UNL     1       3.623   5.634  18.796  0.00  0.00    +0.000 A 
BRANCH   8  11
ATOM     11  N   UNL     1       1.336   7.545  20.959  0.00  0.00    +0.000 N 
ATOM     12  C   UNL     1       1.032   8.746  20.343  0.00  0.00    +0.000 C 
ATOM     13  O   UNL     1       1.251   9.047  19.175  0.00  0.00    +0.000 OA
ATOM     14  H   UNL     1       1.106   7.507  21.948  0.00  0.00    +0.000 HD
BRANCH  12  15
ATOM     15  C   UNL     1       0.384   9.751  21.234  0.00  0.00    +0.000 A 
ATOM     16  C   UNL     1       0.447  11.094  20.877  0.00  0.00    +0.000 A 
ATOM     17  C   UNL     1      -0.184  12.023  21.692  0.00  0.00    +0.000 A 
ATOM     18  C   UNL     1      -0.848  11.581  22.831  0.00  0.00    +0.000 A 
ATOM     19  C   UNL     1      -0.848  10.222  23.117  0.00  0.00    +0.000 A 
ATOM     20  N   UNL     1      -0.246   9.285  22.349  0.00  0.00    +0.000 NA
ENDBRANCH  12  15
ENDBRANCH   8  11
ENDBRANCH   2   5
BRANCH   3  21
ATOM     21  C   UNL     1       4.642   4.378  16.455  0.00  0.00    +0.000 C 
BRANCH  21  22
ATOM     22  C   UNL     1       5.613   4.450  15.317  0.00  0.00    +0.000 A 
ATOM     23  C   UNL     1       5.371   3.776  14.111  0.00  0.00    +0.000 A 
ATOM     24  C   UNL     1       6.288   3.848  13.071  0.00  0.00    +0.000 A 
ATOM     25  C   UNL     1       7.434   4.593  13.265  0.00  0.00    +0.000 A 
ATOM     26  N   UNL     1       7.728   5.236  14.413  0.00  0.00    +0.000 NA
ATOM     27  C   UNL     1       6.833   5.155  15.441  0.00  0.00    +0.000 A 
BRANCH  27  28
ATOM     28  N   UNL     1       7.235   5.794  16.676  0.00  0.00    +0.000 N 
ATOM     29  C   UNL     1       7.532   5.143  17.866  0.00  0.00    +0.000 A 
ATOM     30  C   UNL     1       7.782   6.101  18.814  0.00  0.00    +0.000 A 
ATOM     31  C   UNL     1       7.647   7.313  18.131  0.00  0.00    +0.000 A 
ATOM     32  N   UNL     1       7.346   7.142  16.843  0.00  0.00    +0.000 NA
ENDBRANCH  27  28
ENDBRANCH  21  22
ENDBRANCH   3  21
TORSDOF 6
ENDMDL
MODEL 5
REMARK VINA RESULT:      -9.2      0.956      1.216
REMARK  Name = 
REMARK  6 active torsions:
REMARK  status: ('A' for Active; 'I' for Inactive)
REMARK    1  A    between atoms: C_2  and  C_16
REMARK    2  A    between atoms: N_3  and  C_4
REMARK    3  A    between atoms: C_4  and  C_5
REMARK    4  A    between atoms: C_10  and  N_11
REMARK    5  A    between atoms: C_19  and  N_20
REMARK    6  A    between atoms: C_21  and  C_23
REMARK                            x       y       z     vdW  Elec       q    Type
REMARK                         _______ _______ _______ _____ _____    ______ ____
ROOT
ATOM      1  O   UNL     1       4.582   2.592  19.907  0.00  0.00    +0.000 OA
ATOM      2  C   UNL     1       4.290   3.475  19.103  0.00  0.00    +0.000 C 
ATOM      3  N   UNL     1       4.753   3.395  17.807  0.00  0.00    +0.000 N 
ATOM      4  H   UNL     1       5.139   2.490  17.572  0.00  0.00    +0.000 HD
ENDROOT
BRANCH   2   5
ATOM      5  C   UNL     1       3.486   4.651  19.546  0.00  0.00    +0.000 A 
ATOM      6  C   UNL     1       3.820   5.903  19.035  0.00  0.00    +0.000 A 
ATOM      7  C   UNL     1       3.047   7.022  19.362  0.00  0.00    +0.000 A 
ATOM      8  C   UNL     1       1.921   6.908  20.186  0.00  0.00    +0.000 A 
ATOM      9  C   UNL     1       1.597   5.656  20.706  0.00  0.00    +0.000 A 
ATOM     10  C   UNL     1       2.407   4.551  20.435  0.00  0.00    +0.000 A 
BRANCH   8  11
ATOM     11  N   UNL     1       1.100   7.991  20.539  0.00  0.00    +0.000 N 
ATOM     12  C   UNL     1       1.224   8.790  21.661  0.00  0.00    +0.000 C 
ATOM     13  O   UNL     1       2.079   8.700  22.534  0.00  0.00    +0.000 OA
ATOM     14  H   UNL     1       0.296   8.206  19.954  0.00  0.00    +0.000 HD
BRANCH  12  15
ATOM     15  C   UNL     1       0.179   9.848  21.786  0.00  0.00    +0.000 A 
ATOM     16  C   UNL     1      -0.508   9.964  22.990  0.00  0.00    +0.000 A 
ATOM     17  C   UNL     1      -1.457  10.969  23.112  0.00  0.00    +0.000 A 
ATOM     18  C   UNL     1      -1.687  11.815  22.033  0.00  0.00    +0.000 A 
ATOM     19  C   UNL     1      -0.964  11.617  20.865  0.00  0.00    +0.000 A 
ATOM     20  N   UNL     1      -0.031  10.650  20.704  0.00  0.00    +0.000 NA
ENDBRANCH  12  15
ENDBRANCH   8  11
ENDBRANCH   2   5
BRANCH   3  21
ATOM     21  C   UNL     1       4.522   4.373  16.769  0.00  0.00    +0.000 C 
BRANCH  21  22
ATOM     22  C   UNL     1       5.483   4.450  15.624  0.00  0.00    +0.000 A 
ATOM     23  C   UNL     1       5.191   3.855  14.387  0.00  0.00    +0.000 A 
ATOM     24  C   UNL     1       6.099   3.930  13.340  0.00  0.00    +0.000 A 
ATOM     25  C   UNL     1       7.288   4.598  13.557  0.00  0.00    +0.000 A 
ATOM     26  N   UNL     1       7.629   5.164  14.732  0.00  0.00    +0.000 NA
ATOM     27  C   UNL     1       6.742   5.079  15.766  0.00  0.00    +0.000 A 
BRANCH  27  28
ATOM     28  N   UNL     1       7.194   5.629  17.027  0.00  0.00    +0.000 N 
ATOM     29  C   UNL     1       7.393   6.975  17.300  0.00  0.00    +0.000 A 
ATOM     30  C   UNL     1       7.903   7.073  18.568  0.00  0.00    +0.000 A 
ATOM     31  C   UNL     1       7.967   5.753  19.022  0.00  0.00    +0.000 A 
ATOM     32  N   UNL     1       7.521   4.880  18.118  0.00  0.00    +0.000 NA
ENDBRANCH  27  28
ENDBRANCH  21  22
ENDBRANCH   3  21
TORSDOF 6
ENDMDL
MODEL 6
REMARK VINA RESULT:      -8.8      3.523      7.454
REMARK  Name = 
REMARK  6 active torsions:
REMARK  status: ('A' for Active; 'I' for Inactive)
REMARK    1  A    between atoms: C_2  and  C_16
REMARK    2  A    between atoms: N_3  and  C_4
REMARK    3  A    between atoms: C_4  and  C_5
REMARK    4  A    between atoms: C_10  and  N_11
REMARK    5  A    between atoms: C_19  and  N_20
REMARK    6  A    between atoms: C_21  and  C_23
REMARK                            x       y       z     vdW  Elec       q    Type
REMARK                         _______ _______ _______ _____ _____    ______ ____
ROOT
ATOM      1  O   UNL     1       5.718   3.714  15.858  0.00  0.00    +0.000 OA
ATOM      2  C   UNL     1       5.700   4.110  17.021  0.00  0.00    +0.000 C 
ATOM      3  N   UNL     1       4.848   3.517  17.928  0.00  0.00    +0.000 N 
ATOM      4  H   UNL     1       4.444   2.652  17.595  0.00  0.00    +0.000 HD
ENDROOT
BRANCH   2   5
ATOM      5  C   UNL     1       6.555   5.262  17.431  0.00  0.00    +0.000 A 
ATOM      6  C   UNL     1       6.314   6.501  16.842  0.00  0.00    +0.000 A 
ATOM      7  C   UNL     1       7.039   7.625  17.251  0.00  0.00    +0.000 A 
ATOM      8  C   UNL     1       8.001   7.535  18.263  0.00  0.00    +0.000 A 
ATOM      9  C   UNL     1       8.250   6.292  18.843  0.00  0.00    +0.000 A 
ATOM     10  C   UNL     1       7.574   5.157  18.388  0.00  0.00    +0.000 A 
BRANCH   8  11
ATOM     11  N   UNL     1       8.751   8.629  18.726  0.00  0.00    +0.000 N 
ATOM     12  C   UNL     1       8.677   9.932  18.268  0.00  0.00    +0.000 C 
ATOM     13  O   UNL     1       7.937  10.360  17.390  0.00  0.00    +0.000 OA
ATOM     14  H   UNL     1       9.461   8.470  19.436  0.00  0.00    +0.000 HD
BRANCH  12  15
ATOM     15  C   UNL     1       9.625  10.875  18.930  0.00  0.00    +0.000 A 
ATOM     16  C   UNL     1       9.498  11.093  20.299  0.00  0.00    +0.000 A 
ATOM     17  C   UNL     1      10.402  11.946  20.916  0.00  0.00    +0.000 A 
ATOM     18  C   UNL     1      11.390  12.552  20.149  0.00  0.00    +0.000 A 
ATOM     19  C   UNL     1      11.433  12.287  18.787  0.00  0.00    +0.000 A 
ATOM     20  N   UNL     1      10.573  11.462  18.147  0.00  0.00    +0.000 NA
ENDBRANCH  12  15
ENDBRANCH   8  11
ENDBRANCH   2   5
BRANCH   3  21
ATOM     21  C   UNL     1       4.692   3.900  19.313  0.00  0.00    +0.000 C 
BRANCH  21  22
ATOM     22  C   UNL     1       3.381   3.647  19.989  0.00  0.00    +0.000 A 
ATOM     23  C   UNL     1       3.120   2.431  20.638  0.00  0.00    +0.000 A 
ATOM     24  C   UNL     1       1.894   2.212  21.251  0.00  0.00    +0.000 A 
ATOM     25  C   UNL     1       0.950   3.219  21.197  0.00  0.00    +0.000 A 
ATOM     26  N   UNL     1       1.140   4.393  20.564  0.00  0.00    +0.000 NA
ATOM     27  C   UNL     1       2.340   4.604  19.949  0.00  0.00    +0.000 A 
BRANCH  27  28
ATOM     28  N   UNL     1       2.460   5.846  19.214  0.00  0.00    +0.000 N 
ATOM     29  C   UNL     1       2.249   7.117  19.730  0.00  0.00    +0.000 A 
ATOM     30  C   UNL     1       2.374   8.012  18.700  0.00  0.00    +0.000 A 
ATOM     31  C   UNL     1       2.687   7.224  17.589  0.00  0.00    +0.000 A 
ATOM     32  N   UNL     1       2.768   5.928  17.889  0.00  0.00    +0.000 NA
ENDBRANCH  27  28
ENDBRANCH  21  22
ENDBRANCH   3  21
TORSDOF 6
ENDMDL
MODEL 7
REMARK VINA RESULT:      -8.8      1.104      1.629
REMARK  Name = 
REMARK  6 active torsions:
REMARK  status: ('A' for Active; 'I' for Inactive)
REMARK    1  A    between atoms: C_2  and  C_16
REMARK    2  A    between atoms: N_3  and  C_4
REMARK    3  A    between atoms: C_4  and  C_5
REMARK    4  A    between atoms: C_10  and  N_11
REMARK    5  A    between atoms: C_19  and  N_20
REMARK    6  A    between atoms: C_21  and  C_23
REMARK                            x       y       z     vdW  Elec       q    Type
REMARK                         _______ _______ _______ _____ _____    ______ ____
ROOT
ATOM      1  O   UNL     1       3.676   2.774  19.420  0.00  0.00    +0.000 OA
ATOM      2  C   UNL     1       3.669   3.760  18.686  0.00  0.00    +0.000 C 
ATOM      3  N   UNL     1       4.316   3.708  17.470  0.00  0.00    +0.000 N 
ATOM      4  H   UNL     1       4.579   2.771  17.194  0.00  0.00    +0.000 HD
ENDROOT
BRANCH   2   5
ATOM      5  C   UNL     1       3.011   5.021  19.137  0.00  0.00    +0.000 A 
ATOM      6  C   UNL     1       2.283   4.993  20.324  0.00  0.00    +0.000 A 
ATOM      7  C   UNL     1       1.713   6.167  20.826  0.00  0.00    +0.000 A 
ATOM      8  C   UNL     1       1.875   7.390  20.163  0.00  0.00    +0.000 A 
ATOM      9  C   UNL     1       2.593   7.413  18.968  0.00  0.00    +0.000 A 
ATOM     10  C   UNL     1       3.106   6.229  18.432  0.00  0.00    +0.000 A 
BRANCH   8  11
ATOM     11  N   UNL     1       1.339   8.604  20.623  0.00  0.00    +0.000 N 
ATOM     12  C   UNL     1       0.129   8.779  21.268  0.00  0.00    +0.000 C 
ATOM     13  O   UNL     1      -0.679   7.905  21.562  0.00  0.00    +0.000 OA
ATOM     14  H   UNL     1       1.848   9.464  20.437  0.00  0.00    +0.000 HD
BRANCH  12  15
ATOM     15  C   UNL     1      -0.191  10.195  21.610  0.00  0.00    +0.000 A 
ATOM     16  C   UNL     1      -0.920  10.452  22.767  0.00  0.00    +0.000 A 
ATOM     17  C   UNL     1      -1.188  11.772  23.098  0.00  0.00    +0.000 A 
ATOM     18  C   UNL     1      -0.724  12.784  22.265  0.00  0.00    +0.000 A 
ATOM     19  C   UNL     1      -0.016  12.435  21.123  0.00  0.00    +0.000 A 
ATOM     20  N   UNL     1       0.267  11.161  20.765  0.00  0.00    +0.000 NA
ENDBRANCH  12  15
ENDBRANCH   8  11
ENDBRANCH   2   5
BRANCH   3  21
ATOM     21  C   UNL     1       4.422   4.796  16.525  0.00  0.00    +0.000 C 
BRANCH  21  22
ATOM     22  C   UNL     1       5.474   4.728  15.462  0.00  0.00    +0.000 A 
ATOM     23  C   UNL     1       5.202   4.173  14.202  0.00  0.00    +0.000 A 
ATOM     24  C   UNL     1       6.193   4.111  13.233  0.00  0.00    +0.000 A 
ATOM     25  C   UNL     1       7.443   4.605  13.549  0.00  0.00    +0.000 A 
ATOM     26  N   UNL     1       7.765   5.123  14.751  0.00  0.00    +0.000 NA
ATOM     27  C   UNL     1       6.794   5.172  15.710  0.00  0.00    +0.000 A 
BRANCH  27  28
ATOM     28  N   UNL     1       7.216   5.659  17.007  0.00  0.00    +0.000 N 
ATOM     29  C   UNL     1       7.492   6.982  17.325  0.00  0.00    +0.000 A 
ATOM     30  C   UNL     1       7.940   7.014  18.620  0.00  0.00    +0.000 A 
ATOM     31  C   UNL     1       7.889   5.682  19.041  0.00  0.00    +0.000 A 
ATOM     32  N   UNL     1       7.432   4.864  18.093  0.00  0.00    +0.000 NA
ENDBRANCH  27  28
ENDBRANCH  21  22
ENDBRANCH   3  21
TORSDOF 6
ENDMDL
MODEL 8
REMARK VINA RESULT:      -8.7      1.258      1.529
REMARK  Name = 
REMARK  6 active torsions:
REMARK  status: ('A' for Active; 'I' for Inactive)
REMARK    1  A    between atoms: C_2  and  C_16
REMARK    2  A    between atoms: N_3  and  C_4
REMARK    3  A    between atoms: C_4  and  C_5
REMARK    4  A    between atoms: C_10  and  N_11
REMARK    5  A    between atoms: C_19  and  N_20
REMARK    6  A    between atoms: C_21  and  C_23
REMARK                            x       y       z     vdW  Elec       q    Type
REMARK                         _______ _______ _______ _____ _____    ______ ____
ROOT
ATOM      1  O   UNL     1       4.597   2.918  19.309  0.00  0.00    +0.000 OA
ATOM      2  C   UNL     1       4.342   3.739  18.430  0.00  0.00    +0.000 C 
ATOM      3  N   UNL     1       4.746   3.495  17.135  0.00  0.00    +0.000 N 
ATOM      4  H   UNL     1       5.051   2.544  16.980  0.00  0.00    +0.000 HD
ENDROOT
BRANCH   2   5
ATOM      5  C   UNL     1       3.649   5.014  18.778  0.00  0.00    +0.000 A 
ATOM      6  C   UNL     1       3.891   6.130  17.980  0.00  0.00    +0.000 A 
ATOM      7  C   UNL     1       3.206   7.325  18.221  0.00  0.00    +0.000 A 
ATOM      8  C   UNL     1       2.258   7.421  19.246  0.00  0.00    +0.000 A 
ATOM      9  C   UNL     1       2.027   6.307  20.051  0.00  0.00    +0.000 A 
ATOM     10  C   UNL     1       2.759   5.133  19.853  0.00  0.00    +0.000 A 
BRANCH   8  11
ATOM     11  N   UNL     1       1.530   8.589  19.528  0.00  0.00    +0.000 N 
ATOM     12  C   UNL     1       1.133   9.032  20.776  0.00  0.00    +0.000 C 
ATOM     13  O   UNL     1       1.359   8.491  21.853  0.00  0.00    +0.000 OA
ATOM     14  H   UNL     1       1.208   9.163  18.753  0.00  0.00    +0.000 HD
BRANCH  12  15
ATOM     15  C   UNL     1       0.339  10.295  20.760  0.00  0.00    +0.000 A 
ATOM     16  C   UNL     1      -0.718  10.405  19.862  0.00  0.00    +0.000 A 
ATOM     17  C   UNL     1      -1.473  11.568  19.872  0.00  0.00    +0.000 A 
ATOM     18  C   UNL     1      -1.147  12.577  20.771  0.00  0.00    +0.000 A 
ATOM     19  C   UNL     1      -0.067  12.386  21.623  0.00  0.00    +0.000 A 
ATOM     20  N   UNL     1       0.694  11.268  21.646  0.00  0.00    +0.000 NA
ENDBRANCH  12  15
ENDBRANCH   8  11
ENDBRANCH   2   5
BRANCH   3  21
ATOM     21  C   UNL     1       4.549   4.382  16.011  0.00  0.00    +0.000 C 
BRANCH  21  22
ATOM     22  C   UNL     1       5.595   4.433  14.941  0.00  0.00    +0.000 A 
ATOM     23  C   UNL     1       5.412   3.780  13.713  0.00  0.00    +0.000 A 
ATOM     24  C   UNL     1       6.398   3.831  12.737  0.00  0.00    +0.000 A 
ATOM     25  C   UNL     1       7.552   4.537  13.015  0.00  0.00    +0.000 A 
ATOM     26  N   UNL     1       7.789   5.159  14.186  0.00  0.00    +0.000 NA
ATOM     27  C   UNL     1       6.826   5.097  15.152  0.00  0.00    +0.000 A 
BRANCH  27  28
ATOM     28  N   UNL     1       7.166   5.711  16.419  0.00  0.00    +0.000 N 
ATOM     29  C   UNL     1       7.567   5.037  17.564  0.00  0.00    +0.000 A 
ATOM     30  C   UNL     1       7.709   5.962  18.565  0.00  0.00    +0.000 A 
ATOM     31  C   UNL     1       7.406   7.184  17.957  0.00  0.00    +0.000 A 
ATOM     32  N   UNL     1       7.105   7.050  16.665  0.00  0.00    +0.000 NA
ENDBRANCH  27  28
ENDBRANCH  21  22
ENDBRANCH   3  21
TORSDOF 6
ENDMDL
MODEL 9
REMARK VINA RESULT:      -8.6      1.492      1.656
REMARK  Name = 
REMARK  6 active torsions:
REMARK  status: ('A' for Active; 'I' for Inactive)
REMARK    1  A    between atoms: C_2  and  C_16
REMARK    2  A    between atoms: N_3  and  C_4
REMARK    3  A    between atoms: C_4  and  C_5
REMARK    4  A    between atoms: C_10  and  N_11
REMARK    5  A    between atoms: C_19  and  N_20
REMARK    6  A    between atoms: C_21  and  C_23
REMARK                            x       y       z     vdW  Elec       q    Type
REMARK                         _______ _______ _______ _____ _____    ______ ____
ROOT
ATOM      1  O   UNL     1       4.653   2.488  18.899  0.00  0.00    +0.000 OA
ATOM      2  C   UNL     1       4.384   3.335  18.049  0.00  0.00    +0.000 C 
ATOM      3  N   UNL     1       4.829   3.165  16.756  0.00  0.00    +0.000 N 
ATOM      4  H   UNL     1       5.178   2.235  16.569  0.00  0.00    +0.000 HD
ENDROOT
BRANCH   2   5
ATOM      5  C   UNL     1       3.629   4.564  18.433  0.00  0.00    +0.000 A 
ATOM      6  C   UNL     1       4.222   5.441  19.338  0.00  0.00    +0.000 A 
ATOM      7  C   UNL     1       3.586   6.643  19.667  0.00  0.00    +0.000 A 
ATOM      8  C   UNL     1       2.362   6.996  19.088  0.00  0.00    +0.000 A 
ATOM      9  C   UNL     1       1.765   6.110  18.192  0.00  0.00    +0.000 A 
ATOM     10  C   UNL     1       2.367   4.880  17.914  0.00  0.00    +0.000 A 
BRANCH   8  11
ATOM     11  N   UNL     1       1.682   8.193  19.369  0.00  0.00    +0.000 N 
ATOM     12  C   UNL     1       1.575   9.294  18.540  0.00  0.00    +0.000 C 
ATOM     13  O   UNL     1       2.043   9.412  17.413  0.00  0.00    +0.000 OA
ATOM     14  H   UNL     1       1.254   8.309  20.284  0.00  0.00    +0.000 HD
BRANCH  12  15
ATOM     15  C   UNL     1       0.816  10.437  19.124  0.00  0.00    +0.000 A 
ATOM     16  C   UNL     1       1.256  11.731  18.863  0.00  0.00    +0.000 A 
ATOM     17  C   UNL     1       0.528  12.792  19.383  0.00  0.00    +0.000 A 
ATOM     18  C   UNL     1      -0.604  12.525  20.145  0.00  0.00    +0.000 A 
ATOM     19  C   UNL     1      -0.961  11.202  20.366  0.00  0.00    +0.000 A 
ATOM     20  N   UNL     1      -0.281  10.140  19.878  0.00  0.00    +0.000 NA
ENDBRANCH  12  15
ENDBRANCH   8  11
ENDBRANCH   2   5
BRANCH   3  21
ATOM     21  C   UNL     1       4.622   4.091  15.666  0.00  0.00    +0.000 C 
BRANCH  21  22
ATOM     22  C   UNL     1       5.736   4.319  14.692  0.00  0.00    +0.000 A 
ATOM     23  C   UNL     1       5.651   3.861  13.369  0.00  0.00    +0.000 A 
ATOM     24  C   UNL     1       6.698   4.075  12.483  0.00  0.00    +0.000 A 
ATOM     25  C   UNL     1       7.815   4.743  12.946  0.00  0.00    +0.000 A 
ATOM     26  N   UNL     1       7.959   5.179  14.213  0.00  0.00    +0.000 NA
ATOM     27  C   UNL     1       6.935   4.958  15.088  0.00  0.00    +0.000 A 
BRANCH  27  28
ATOM     28  N   UNL     1       7.175   5.372  16.454  0.00  0.00    +0.000 N 
ATOM     29  C   UNL     1       6.958   6.644  16.966  0.00  0.00    +0.000 A 
ATOM     30  C   UNL     1       7.389   6.650  18.267  0.00  0.00    +0.000 A 
ATOM     31  C   UNL     1       7.834   5.344  18.493  0.00  0.00    +0.000 A 
ATOM     32  N   UNL     1       7.686   4.562  17.424  0.00  0.00    +0.000 NA
ENDBRANCH  27  28
ENDBRANCH  21  22
ENDBRANCH   3  21
TORSDOF 6
ENDMDL
