MODEL 1
REMARK VINA RESULT:      -8.5      0.000      0.000
REMARK  Name = 
REMARK  6 active torsions:
REMARK  status: ('A' for Active; 'I' for Inactive)
REMARK    1  A    between atoms: C_1  and  C_2
REMARK    2  A    between atoms: C_4  and  C_5
REMARK    3  A    between atoms: C_9  and  N_10
REMARK    4  A    between atoms: C_22  and  C_23
REMARK    5  A    between atoms: C_23  and  O_24
REMARK    6  A    between atoms: C_27  and  C_28
REMARK                            x       y       z     vdW  Elec       q    Type
REMARK                         _______ _______ _______ _____ _____    ______ ____
ROOT
ATOM      1  N   UNL     1       1.398   9.005  19.767  0.00  0.00    +0.000 N 
ATOM      2  C   UNL     1       0.358   9.573  20.509  0.00  0.00    +0.000 C 
ATOM      3  O   UNL     1      -0.341   8.966  21.285  0.00  0.00    +0.000 OA
ATOM      4  N   UNL     1       0.138  10.951  20.228  0.00  0.00    +0.000 N 
ATOM      5  C   UNL     1      -0.998  11.566  21.010  0.00  0.00    +0.000 C 
ATOM      6  C   UNL     1      -1.848  12.537  20.180  0.00  0.00    +0.000 C 
ATOM      7  C   UNL     1      -2.237  11.739  18.961  0.00  0.00    +0.000 A 
ATOM      8  C   UNL     1      -3.535  11.279  18.745  0.00  0.00    +0.000 A 
ATOM      9  C   UNL     1      -3.775  10.344  17.737  0.00  0.00    +0.000 A 
ATOM     10  C   UNL     1      -2.737   9.921  16.902  0.00  0.00    +0.000 A 
ATOM     11  C   UNL     1      -1.434  10.359  17.129  0.00  0.00    +0.000 A 
ATOM     12  C   UNL     1      -1.172  11.216  18.202  0.00  0.00    +0.000 A 
ATOM     13  C   UNL     1       0.223  11.342  18.788  0.00  0.00    +0.000 C 
ATOM     14  H   UNL     1       1.867   9.568  19.085  0.00  0.00    +0.000 HD
ENDROOT
BRANCH   1  19
ATOM     15  C   UNL     1       3.314   5.855  19.129  0.00  0.00    +0.000 A 
ATOM     16  C   UNL     1       2.770   5.029  20.126  0.00  0.00    +0.000 A 
ATOM     17  C   UNL     1       1.714   5.464  20.904  0.00  0.00    +0.000 A 
ATOM     18  C   UNL     1       1.223   6.754  20.735  0.00  0.00    +0.000 A 
ATOM     19  C   UNL     1       1.801   7.643  19.829  0.00  0.00    +0.000 A 
ATOM     20  C   UNL     1       2.833   7.174  18.991  0.00  0.00    +0.000 A 
BRANCH  15  24
ATOM     21  C   UNL     1       7.740   4.485  17.500  0.00  0.00    +0.000 C 
ATOM     22  C   UNL     1       6.282   4.725  17.524  0.00  0.00    +0.000 A 
ATOM     23  N   UNL     1       5.650   5.103  18.678  0.00  0.00    +0.000 NA
ATOM     24  C   UNL     1       4.387   5.272  18.324  0.00  0.00    +0.000 A 
ATOM     25  O   UNL     1       4.128   4.973  17.015  0.00  0.00    +0.000 OA
ATOM     26  C   UNL     1       5.362   4.659  16.502  0.00  0.00    +0.000 A 
ATOM     27  C   UNL     1       5.460   4.367  15.061  0.00  0.00    +0.000 C 
ENDBRANCH  15  24
ENDBRANCH   1  19
BRANCH  13  28
ATOM     28  C   UNL     1       0.960  12.662  18.521  0.00  0.00    +0.000 C 
BRANCH  28  29
ATOM     29  O   UNL     1       2.034  12.515  17.589  0.00  0.00    +0.000 OA
ATOM     30  H   UNL     1       2.503  13.365  17.539  0.00  0.00    +0.000 HD
ENDBRANCH  28  29
ENDBRANCH  13  28
TORSDOF 4
ENDMDL
MODEL 2
REMARK VINA RESULT:      -8.3      0.675      1.171
REMARK  Name = 
REMARK  6 active torsions:
REMARK  status: ('A' for Active; 'I' for Inactive)
REMARK    1  A    between atoms: C_1  and  C_2
REMARK    2  A    between atoms: C_4  and  C_5
REMARK    3  A    between atoms: C_9  and  N_10
REMARK    4  A    between atoms: C_22  and  C_23
REMARK    5  A    between atoms: C_23  and  O_24
REMARK    6  A    between atoms: C_27  and  C_28
REMARK                            x       y       z     vdW  Elec       q    Type
REMARK                         _______ _______ _______ _____ _____    ______ ____
ROOT
ATOM      1  N   UNL     1       1.329   9.199  19.632  0.00  0.00    +0.000 N 
ATOM      2  C   UNL     1       0.265   9.688  20.396  0.00  0.00    +0.000 C 
ATOM      3  O   UNL     1      -0.397   9.021  21.154  0.00  0.00    +0.000 OA
ATOM      4  N   UNL     1      -0.026  11.062  20.161  0.00  0.00    +0.000 N 
ATOM      5  C   UNL     1      -1.188  11.592  20.967  0.00  0.00    +0.000 C 
ATOM      6  C   UNL     1      -2.091  12.545  20.172  0.00  0.00    +0.000 C 
ATOM      7  C   UNL     1      -2.445  11.768  18.929  0.00  0.00    +0.000 A 
ATOM      8  C   UNL     1      -3.719  11.249  18.703  0.00  0.00    +0.000 A 
ATOM      9  C   UNL     1      -3.916  10.336  17.666  0.00  0.00    +0.000 A 
ATOM     10  C   UNL     1      -2.862   9.994  16.814  0.00  0.00    +0.000 A 
ATOM     11  C   UNL     1      -1.582  10.491  17.050  0.00  0.00    +0.000 A 
ATOM     12  C   UNL     1      -1.359  11.325  18.150  0.00  0.00    +0.000 A 
ATOM     13  C   UNL     1       0.031  11.503  18.734  0.00  0.00    +0.000 C 
ATOM     14  H   UNL     1       1.765   9.807  18.967  0.00  0.00    +0.000 HD
ENDROOT
BRANCH   1  19
ATOM     15  C   UNL     1       3.356   6.158  18.831  0.00  0.00    +0.000 A 
ATOM     16  C   UNL     1       2.915   5.293  19.844  0.00  0.00    +0.000 A 
ATOM     17  C   UNL     1       1.887   5.664  20.690  0.00  0.00    +0.000 A 
ATOM     18  C   UNL     1       1.324   6.930  20.572  0.00  0.00    +0.000 A 
ATOM     19  C   UNL     1       1.802   7.859  19.648  0.00  0.00    +0.000 A 
ATOM     20  C   UNL     1       2.804   7.453  18.743  0.00  0.00    +0.000 A 
BRANCH  15  24
ATOM     21  C   UNL     1       5.717   3.832  15.206  0.00  0.00    +0.000 C 
ATOM     22  C   UNL     1       5.491   4.582  16.459  0.00  0.00    +0.000 A 
ATOM     23  N   UNL     1       4.253   5.083  16.766  0.00  0.00    +0.000 NA
ATOM     24  C   UNL     1       4.408   5.640  17.955  0.00  0.00    +0.000 A 
ATOM     25  O   UNL     1       5.688   5.592  18.434  0.00  0.00    +0.000 OA
ATOM     26  C   UNL     1       6.366   4.876  17.481  0.00  0.00    +0.000 A 
ATOM     27  C   UNL     1       7.783   4.557  17.730  0.00  0.00    +0.000 C 
ENDBRANCH  15  24
ENDBRANCH   1  19
BRANCH  13  28
ATOM     28  C   UNL     1       0.698  12.868  18.507  0.00  0.00    +0.000 C 
BRANCH  28  29
ATOM     29  O   UNL     1       1.944  12.763  17.815  0.00  0.00    +0.000 OA
ATOM     30  H   UNL     1       2.368  13.638  17.834  0.00  0.00    +0.000 HD
ENDBRANCH  28  29
ENDBRANCH  13  28
TORSDOF 4
ENDMDL
MODEL 3
REMARK VINA RESULT:      -8.3      2.505      4.148
REMARK  Name = 
REMARK  6 active torsions:
REMARK  status: ('A' for Active; 'I' for Inactive)
REMARK    1  A    between atoms: C_1  and  C_2
REMARK    2  A    between atoms: C_4  and  C_5
REMARK    3  A    between atoms: C_9  and  N_10
REMARK    4  A    between atoms: C_22  and  C_23
REMARK    5  A    between atoms: C_23  and  O_24
REMARK    6  A    between atoms: C_27  and  C_28
REMARK                            x       y       z     vdW  Elec       q    Type
REMARK                         _______ _______ _______ _____ _____    ______ ____
ROOT
ATOM      1  N   UNL     1       0.659   9.732  20.076  0.00  0.00    +0.000 N 
ATOM      2  C   UNL     1      -0.310  10.497  19.421  0.00  0.00    +0.000 C 
ATOM      3  O   UNL     1      -0.511  10.475  18.231  0.00  0.00    +0.000 OA
ATOM      4  N   UNL     1      -1.026  11.376  20.283  0.00  0.00    +0.000 N 
ATOM      5  C   UNL     1      -2.061  12.221  19.579  0.00  0.00    +0.000 C 
ATOM      6  C   UNL     1      -2.120  13.664  20.100  0.00  0.00    +0.000 C 
ATOM      7  C   UNL     1      -0.695  14.148  20.010  0.00  0.00    +0.000 A 
ATOM      8  C   UNL     1      -0.276  15.085  19.067  0.00  0.00    +0.000 A 
ATOM      9  C   UNL     1       1.089  15.303  18.872  0.00  0.00    +0.000 A 
ATOM     10  C   UNL     1       2.031  14.640  19.662  0.00  0.00    +0.000 A 
ATOM     11  C   UNL     1       1.619  13.685  20.589  0.00  0.00    +0.000 A 
ATOM     12  C   UNL     1       0.259  13.389  20.715  0.00  0.00    +0.000 A 
ATOM     13  C   UNL     1      -0.209  12.077  21.320  0.00  0.00    +0.000 C 
ATOM     14  H   UNL     1       0.811   9.880  21.054  0.00  0.00    +0.000 HD
ENDROOT
BRANCH   1  19
ATOM     15  C   UNL     1       2.554   6.585  19.368  0.00  0.00    +0.000 A 
ATOM     16  C   UNL     1       3.053   6.879  18.090  0.00  0.00    +0.000 A 
ATOM     17  C   UNL     1       2.870   8.130  17.531  0.00  0.00    +0.000 A 
ATOM     18  C   UNL     1       2.135   9.088  18.221  0.00  0.00    +0.000 A 
ATOM     19  C   UNL     1       1.534   8.805  19.448  0.00  0.00    +0.000 A 
ATOM     20  C   UNL     1       1.779   7.551  20.043  0.00  0.00    +0.000 A 
BRANCH  15  24
ATOM     21  C   UNL     1       4.379   2.053  19.872  0.00  0.00    +0.000 C 
ATOM     22  C   UNL     1       3.548   3.250  20.116  0.00  0.00    +0.000 A 
ATOM     23  N   UNL     1       3.810   4.431  19.473  0.00  0.00    +0.000 NA
ATOM     24  C   UNL     1       2.859   5.250  19.887  0.00  0.00    +0.000 A 
ATOM     25  O   UNL     1       2.012   4.705  20.812  0.00  0.00    +0.000 OA
ATOM     26  C   UNL     1       2.443   3.407  20.922  0.00  0.00    +0.000 A 
ATOM     27  C   UNL     1       1.679   2.493  21.790  0.00  0.00    +0.000 C 
ENDBRANCH  15  24
ENDBRANCH   1  19
BRANCH  13  28
ATOM     28  C   UNL     1      -0.861  12.158  22.708  0.00  0.00    +0.000 C 
BRANCH  28  29
ATOM     29  O   UNL     1      -0.664  10.971  23.479  0.00  0.00    +0.000 OA
ATOM     30  H   UNL     1      -0.744  10.210  22.878  0.00  0.00    +0.000 HD
ENDBRANCH  28  29
ENDBRANCH  13  28
TORSDOF 4
ENDMDL
MODEL 4
REMARK VINA RESULT:      -7.9      1.127      1.491
REMARK  Name = 
REMARK  6 active torsions:
REMARK  status: ('A' for Active; 'I' for Inactive)
REMARK    1  A    between atoms: C_1  and  C_2
REMARK    2  A    between atoms: C_4  and  C_5
REMARK    3  A    between atoms: C_9  and  N_10
REMARK    4  A    between atoms: C_22  and  C_23
REMARK    5  A    between atoms: C_23  and  O_24
REMARK    6  A    between atoms: C_27  and  C_28
REMARK                            x       y       z     vdW  Elec       q    Type
REMARK                         _______ _______ _______ _____ _____    ______ ____
ROOT
ATOM      1  N   UNL     1       1.485   8.831  20.333  0.00  0.00    +0.000 N 
ATOM      2  C   UNL     1       0.351   9.252  21.034  0.00  0.00    +0.000 C 
ATOM      3  O   UNL     1      -0.470   8.510  21.517  0.00  0.00    +0.000 OA
ATOM      4  N   UNL     1       0.200  10.667  21.086  0.00  0.00    +0.000 N 
ATOM      5  C   UNL     1      -1.033  11.128  21.824  0.00  0.00    +0.000 C 
ATOM      6  C   UNL     1      -1.727  12.323  21.154  0.00  0.00    +0.000 C 
ATOM      7  C   UNL     1      -1.934  11.878  19.728  0.00  0.00    +0.000 A 
ATOM      8  C   UNL     1      -3.189  11.560  19.213  0.00  0.00    +0.000 A 
ATOM      9  C   UNL     1      -3.283  10.923  17.975  0.00  0.00    +0.000 A 
ATOM     10  C   UNL     1      -2.135  10.665  17.222  0.00  0.00    +0.000 A 
ATOM     11  C   UNL     1      -0.877  10.959  17.743  0.00  0.00    +0.000 A 
ATOM     12  C   UNL     1      -0.772  11.503  19.026  0.00  0.00    +0.000 A 
ATOM     13  C   UNL     1       0.516  11.400  19.823  0.00  0.00    +0.000 C 
ATOM     14  H   UNL     1       2.064   9.519  19.895  0.00  0.00    +0.000 HD
ENDROOT
BRANCH   1  19
ATOM     15  C   UNL     1       3.312   5.838  19.027  0.00  0.00    +0.000 A 
ATOM     16  C   UNL     1       2.749   4.835  19.832  0.00  0.00    +0.000 A 
ATOM     17  C   UNL     1       1.708   5.123  20.694  0.00  0.00    +0.000 A 
ATOM     18  C   UNL     1       1.252   6.432  20.806  0.00  0.00    +0.000 A 
ATOM     19  C   UNL     1       1.850   7.477  20.102  0.00  0.00    +0.000 A 
ATOM     20  C   UNL     1       2.866   7.169  19.175  0.00  0.00    +0.000 A 
BRANCH  15  24
ATOM     21  C   UNL     1       5.705   3.743  15.284  0.00  0.00    +0.000 C 
ATOM     22  C   UNL     1       5.469   4.456  16.557  0.00  0.00    +0.000 A 
ATOM     23  N   UNL     1       4.211   4.862  16.914  0.00  0.00    +0.000 NA
ATOM     24  C   UNL     1       4.366   5.410  18.107  0.00  0.00    +0.000 A 
ATOM     25  O   UNL     1       5.662   5.446  18.543  0.00  0.00    +0.000 OA
ATOM     26  C   UNL     1       6.356   4.795  17.555  0.00  0.00    +0.000 A 
ATOM     27  C   UNL     1       7.800   4.573  17.751  0.00  0.00    +0.000 C 
ENDBRANCH  15  24
ENDBRANCH   1  19
BRANCH  13  28
ATOM     28  C   UNL     1       1.308  12.702  20.014  0.00  0.00    +0.000 C 
BRANCH  28  29
ATOM     29  O   UNL     1       2.040  12.727  21.241  0.00  0.00    +0.000 OA
ATOM     30  H   UNL     1       1.655  12.056  21.830  0.00  0.00    +0.000 HD
ENDBRANCH  28  29
ENDBRANCH  13  28
TORSDOF 4
ENDMDL
MODEL 5
REMARK VINA RESULT:      -7.9      2.544      4.221
REMARK  Name = 
REMARK  6 active torsions:
REMARK  status: ('A' for Active; 'I' for Inactive)
REMARK    1  A    between atoms: C_1  and  C_2
REMARK    2  A    between atoms: C_4  and  C_5
REMARK    3  A    between atoms: C_9  and  N_10
REMARK    4  A    between atoms: C_22  and  C_23
REMARK    5  A    between atoms: C_23  and  O_24
REMARK    6  A    between atoms: C_27  and  C_28
REMARK                            x       y       z     vdW  Elec       q    Type
REMARK                         _______ _______ _______ _____ _____    ______ ____
ROOT
ATOM      1  N   UNL     1       0.651   9.788  20.087  0.00  0.00    +0.000 N 
ATOM      2  C   UNL     1      -0.284  10.579  19.413  0.00  0.00    +0.000 C 
ATOM      3  O   UNL     1      -0.482  10.540  18.222  0.00  0.00    +0.000 OA
ATOM      4  N   UNL     1      -0.965  11.505  20.252  0.00  0.00    +0.000 N 
ATOM      5  C   UNL     1      -1.961  12.378  19.527  0.00  0.00    +0.000 C 
ATOM      6  C   UNL     1      -1.961  13.832  20.016  0.00  0.00    +0.000 C 
ATOM      7  C   UNL     1      -0.516  14.255  19.922  0.00  0.00    +0.000 A 
ATOM      8  C   UNL     1      -0.056  15.153  18.961  0.00  0.00    +0.000 A 
ATOM      9  C   UNL     1       1.317  15.309  18.767  0.00  0.00    +0.000 A 
ATOM     10  C   UNL     1       2.229  14.624  19.574  0.00  0.00    +0.000 A 
ATOM     11  C   UNL     1       1.774  13.708  20.520  0.00  0.00    +0.000 A 
ATOM     12  C   UNL     1       0.403  13.472  20.647  0.00  0.00    +0.000 A 
ATOM     13  C   UNL     1      -0.122  12.194  21.277  0.00  0.00    +0.000 C 
ATOM     14  H   UNL     1       0.806   9.950  21.063  0.00  0.00    +0.000 HD
ENDROOT
BRANCH   1  19
ATOM     15  C   UNL     1       2.280   6.503  19.342  0.00  0.00    +0.000 A 
ATOM     16  C   UNL     1       2.937   6.820  18.143  0.00  0.00    +0.000 A 
ATOM     17  C   UNL     1       2.942   8.115  17.661  0.00  0.00    +0.000 A 
ATOM     18  C   UNL     1       2.240   9.103  18.343  0.00  0.00    +0.000 A 
ATOM     19  C   UNL     1       1.488   8.812  19.482  0.00  0.00    +0.000 A 
ATOM     20  C   UNL     1       1.541   7.505  20.007  0.00  0.00    +0.000 A 
BRANCH  15  24
ATOM     21  C   UNL     1       1.726   2.336  21.881  0.00  0.00    +0.000 C 
ATOM     22  C   UNL     1       2.259   3.303  20.900  0.00  0.00    +0.000 A 
ATOM     23  N   UNL     1       1.626   4.497  20.674  0.00  0.00    +0.000 NA
ATOM     24  C   UNL     1       2.391   5.114  19.790  0.00  0.00    +0.000 A 
ATOM     25  O   UNL     1       3.466   4.381  19.369  0.00  0.00    +0.000 OA
ATOM     26  C   UNL     1       3.390   3.233  20.118  0.00  0.00    +0.000 A 
ATOM     27  C   UNL     1       4.469   2.239  19.976  0.00  0.00    +0.000 C 
ENDBRANCH  15  24
ENDBRANCH   1  19
BRANCH  13  28
ATOM     28  C   UNL     1      -0.774  12.331  22.661  0.00  0.00    +0.000 C 
BRANCH  28  29
ATOM     29  O   UNL     1      -0.696  11.128  23.429  0.00  0.00    +0.000 OA
ATOM     30  H   UNL     1      -0.158  11.313  24.217  0.00  0.00    +0.000 HD
ENDBRANCH  28  29
ENDBRANCH  13  28
TORSDOF 4
ENDMDL
MODEL 6
REMARK VINA RESULT:      -7.8      2.098      8.255
REMARK  Name = 
REMARK  6 active torsions:
REMARK  status: ('A' for Active; 'I' for Inactive)
REMARK    1  A    between atoms: C_1  and  C_2
REMARK    2  A    between atoms: C_4  and  C_5
REMARK    3  A    between atoms: C_9  and  N_10
REMARK    4  A    between atoms: C_22  and  C_23
REMARK    5  A    between atoms: C_23  and  O_24
REMARK    6  A    between atoms: C_27  and  C_28
REMARK                            x       y       z     vdW  Elec       q    Type
REMARK                         _______ _______ _______ _____ _____    ______ ____
ROOT
ATOM      1  N   UNL     1       2.818   7.431  19.605  0.00  0.00    +0.000 N 
ATOM      2  C   UNL     1       2.810   6.753  18.382  0.00  0.00    +0.000 C 
ATOM      3  O   UNL     1       1.905   6.793  17.583  0.00  0.00    +0.000 OA
ATOM      4  N   UNL     1       3.959   5.940  18.168  0.00  0.00    +0.000 N 
ATOM      5  C   UNL     1       3.947   5.189  16.859  0.00  0.00    +0.000 C 
ATOM      6  C   UNL     1       4.485   3.756  16.978  0.00  0.00    +0.000 C 
ATOM      7  C   UNL     1       3.679   3.150  18.099  0.00  0.00    +0.000 A 
ATOM      8  C   UNL     1       2.701   2.180  17.883  0.00  0.00    +0.000 A 
ATOM      9  C   UNL     1       1.825   1.844  18.917  0.00  0.00    +0.000 A 
ATOM     10  C   UNL     1       1.967   2.422  20.181  0.00  0.00    +0.000 A 
ATOM     11  C   UNL     1       2.928   3.409  20.395  0.00  0.00    +0.000 A 
ATOM     12  C   UNL     1       3.739   3.822  19.335  0.00  0.00    +0.000 A 
ATOM     13  C   UNL     1       4.439   5.170  19.356  0.00  0.00    +0.000 C 
ATOM     14  H   UNL     1       3.575   7.270  20.240  0.00  0.00    +0.000 HD
ENDROOT
BRANCH   1  19
ATOM     15  C   UNL     1      -0.206   9.634  19.640  0.00  0.00    +0.000 A 
ATOM     16  C   UNL     1      -0.416   9.742  21.024  0.00  0.00    +0.000 A 
ATOM     17  C   UNL     1       0.488   9.204  21.919  0.00  0.00    +0.000 A 
ATOM     18  C   UNL     1       1.588   8.499  21.443  0.00  0.00    +0.000 A 
ATOM     19  C   UNL     1       1.781   8.279  20.080  0.00  0.00    +0.000 A 
ATOM     20  C   UNL     1       0.893   8.885  19.168  0.00  0.00    +0.000 A 
BRANCH  15  24
ATOM     21  C   UNL     1      -4.200  12.020  18.068  0.00  0.00    +0.000 C 
ATOM     22  C   UNL     1      -2.942  11.245  18.034  0.00  0.00    +0.000 A 
ATOM     23  N   UNL     1      -2.204  11.053  19.171  0.00  0.00    +0.000 NA
ATOM     24  C   UNL     1      -1.194  10.292  18.785  0.00  0.00    +0.000 A 
ATOM     25  O   UNL     1      -1.183  10.013  17.446  0.00  0.00    +0.000 OA
ATOM     26  C   UNL     1      -2.333  10.600  16.981  0.00  0.00    +0.000 A 
ATOM     27  C   UNL     1      -2.683  10.413  15.562  0.00  0.00    +0.000 C 
ENDBRANCH  15  24
ENDBRANCH   1  19
BRANCH  13  28
ATOM     28  C   UNL     1       5.964   5.145  19.536  0.00  0.00    +0.000 C 
BRANCH  28  29
ATOM     29  O   UNL     1       6.640   6.014  18.624  0.00  0.00    +0.000 OA
ATOM     30  H   UNL     1       7.575   6.050  18.887  0.00  0.00    +0.000 HD
ENDBRANCH  28  29
ENDBRANCH  13  28
TORSDOF 4
ENDMDL
MODEL 7
REMARK VINA RESULT:      -7.8      2.157      8.902
REMARK  Name = 
REMARK  6 active torsions:
REMARK  status: ('A' for Active; 'I' for Inactive)
REMARK    1  A    between atoms: C_1  and  C_2
REMARK    2  A    between atoms: C_4  and  C_5
REMARK    3  A    between atoms: C_9  and  N_10
REMARK    4  A    between atoms: C_22  and  C_23
REMARK    5  A    between atoms: C_23  and  O_24
REMARK    6  A    between atoms: C_27  and  C_28
REMARK                            x       y       z     vdW  Elec       q    Type
REMARK                         _______ _______ _______ _____ _____    ______ ____
ROOT
ATOM      1  N   UNL     1       2.009   7.539  17.993  0.00  0.00    +0.000 N 
ATOM      2  C   UNL     1       2.578   6.854  19.070  0.00  0.00    +0.000 C 
ATOM      3  O   UNL     1       2.768   7.332  20.163  0.00  0.00    +0.000 OA
ATOM      4  N   UNL     1       2.983   5.525  18.757  0.00  0.00    +0.000 N 
ATOM      5  C   UNL     1       3.617   4.786  19.910  0.00  0.00    +0.000 C 
ATOM      6  C   UNL     1       4.819   3.927  19.491  0.00  0.00    +0.000 C 
ATOM      7  C   UNL     1       5.714   4.884  18.743  0.00  0.00    +0.000 A 
ATOM      8  C   UNL     1       6.922   5.347  19.262  0.00  0.00    +0.000 A 
ATOM      9  C   UNL     1       7.575   6.411  18.640  0.00  0.00    +0.000 A 
ATOM     10  C   UNL     1       7.062   6.967  17.465  0.00  0.00    +0.000 A 
ATOM     11  C   UNL     1       5.844   6.524  16.955  0.00  0.00    +0.000 A 
ATOM     12  C   UNL     1       5.135   5.528  17.633  0.00  0.00    +0.000 A 
ATOM     13  C   UNL     1       3.641   5.345  17.427  0.00  0.00    +0.000 C 
ATOM     14  H   UNL     1       1.969   7.087  17.101  0.00  0.00    +0.000 HD
ENDROOT
BRANCH   1  19
ATOM     15  C   UNL     1      -0.278  10.490  18.248  0.00  0.00    +0.000 A 
ATOM     16  C   UNL     1       0.665  11.525  18.348  0.00  0.00    +0.000 A 
ATOM     17  C   UNL     1       2.016  11.265  18.210  0.00  0.00    +0.000 A 
ATOM     18  C   UNL     1       2.447   9.956  18.028  0.00  0.00    +0.000 A 
ATOM     19  C   UNL     1       1.553   8.885  18.026  0.00  0.00    +0.000 A 
ATOM     20  C   UNL     1       0.173   9.161  18.099  0.00  0.00    +0.000 A 
BRANCH  15  24
ATOM     21  C   UNL     1      -4.917  11.643  17.122  0.00  0.00    +0.000 C 
ATOM     22  C   UNL     1      -3.680  11.480  17.913  0.00  0.00    +0.000 A 
ATOM     23  N   UNL     1      -2.608  10.791  17.409  0.00  0.00    +0.000 NA
ATOM     24  C   UNL     1      -1.683  10.886  18.348  0.00  0.00    +0.000 A 
ATOM     25  O   UNL     1      -2.092  11.547  19.473  0.00  0.00    +0.000 OA
ATOM     26  C   UNL     1      -3.365  11.957  19.166  0.00  0.00    +0.000 A 
ATOM     27  C   UNL     1      -4.082  12.791  20.146  0.00  0.00    +0.000 C 
ENDBRANCH  15  24
ENDBRANCH   1  19
BRANCH  13  28
ATOM     28  C   UNL     1       3.207   4.089  16.657  0.00  0.00    +0.000 C 
BRANCH  28  29
ATOM     29  O   UNL     1       1.931   3.600  17.076  0.00  0.00    +0.000 OA
ATOM     30  H   UNL     1       1.252   4.039  16.535  0.00  0.00    +0.000 HD
ENDBRANCH  28  29
ENDBRANCH  13  28
TORSDOF 4
ENDMDL
MODEL 8
REMARK VINA RESULT:      -7.7      4.705      8.349
REMARK  Name = 
REMARK  6 active torsions:
REMARK  status: ('A' for Active; 'I' for Inactive)
REMARK    1  A    between atoms: C_1  and  C_2
REMARK    2  A    between atoms: C_4  and  C_5
REMARK    3  A    between atoms: C_9  and  N_10
REMARK    4  A    between atoms: C_22  and  C_23
REMARK    5  A    between atoms: C_23  and  O_24
REMARK    6  A    between atoms: C_27  and  C_28
REMARK                            x       y       z     vdW  Elec       q    Type
REMARK                         _______ _______ _______ _____ _____    ______ ____
ROOT
ATOM      1  N   UNL     1      -5.712  12.474  20.023  0.00  0.00    +0.000 N 
ATOM      2  C   UNL     1      -6.119  13.778  20.322  0.00  0.00    +0.000 C 
ATOM      3  O   UNL     1      -5.726  14.766  19.751  0.00  0.00    +0.000 OA
ATOM      4  N   UNL     1      -7.017  13.860  21.424  0.00  0.00    +0.000 N 
ATOM      5  C   UNL     1      -7.446  15.267  21.766  0.00  0.00    +0.000 C 
ATOM      6  C   UNL     1      -7.526  15.525  23.276  0.00  0.00    +0.000 C 
ATOM      7  C   UNL     1      -6.177  15.097  23.797  0.00  0.00    +0.000 A 
ATOM      8  C   UNL     1      -5.221  16.006  24.247  0.00  0.00    +0.000 A 
ATOM      9  C   UNL     1      -3.914  15.572  24.478  0.00  0.00    +0.000 A 
ATOM     10  C   UNL     1      -3.579  14.224  24.328  0.00  0.00    +0.000 A 
ATOM     11  C   UNL     1      -4.525  13.316  23.857  0.00  0.00    +0.000 A 
ATOM     12  C   UNL     1      -5.806  13.766  23.526  0.00  0.00    +0.000 A 
ATOM     13  C   UNL     1      -6.701  12.976  22.586  0.00  0.00    +0.000 C 
ATOM     14  H   UNL     1      -6.027  11.725  20.607  0.00  0.00    +0.000 HD
ENDROOT
BRANCH   1  19
ATOM     15  C   UNL     1      -2.519  11.563  18.298  0.00  0.00    +0.000 A 
ATOM     16  C   UNL     1      -3.019  11.167  17.047  0.00  0.00    +0.000 A 
ATOM     17  C   UNL     1      -4.359  11.314  16.744  0.00  0.00    +0.000 A 
ATOM     18  C   UNL     1      -5.230  11.808  17.708  0.00  0.00    +0.000 A 
ATOM     19  C   UNL     1      -4.795  12.117  18.997  0.00  0.00    +0.000 A 
ATOM     20  C   UNL     1      -3.418  12.028  19.281  0.00  0.00    +0.000 A 
BRANCH  15  24
ATOM     21  C   UNL     1       2.279  12.532  18.693  0.00  0.00    +0.000 C 
ATOM     22  C   UNL     1       1.022  11.763  18.586  0.00  0.00    +0.000 A 
ATOM     23  N   UNL     1      -0.194  12.387  18.673  0.00  0.00    +0.000 NA
ATOM     24  C   UNL     1      -1.075  11.419  18.489  0.00  0.00    +0.000 A 
ATOM     25  O   UNL     1      -0.522  10.177  18.343  0.00  0.00    +0.000 OA
ATOM     26  C   UNL     1       0.828  10.417  18.369  0.00  0.00    +0.000 A 
ATOM     27  C   UNL     1       1.740   9.281  18.144  0.00  0.00    +0.000 C 
ENDBRANCH  15  24
ENDBRANCH   1  19
BRANCH  13  28
ATOM     28  C   UNL     1      -7.917  12.285  23.221  0.00  0.00    +0.000 C 
BRANCH  28  29
ATOM     29  O   UNL     1      -7.571  11.074  23.897  0.00  0.00    +0.000 OA
ATOM     30  H   UNL     1      -8.260  10.897  24.560  0.00  0.00    +0.000 HD
ENDBRANCH  28  29
ENDBRANCH  13  28
TORSDOF 4
ENDMDL
MODEL 9
REMARK VINA RESULT:      -7.7      4.599      8.330
REMARK  Name = 
REMARK  6 active torsions:
REMARK  status: ('A' for Active; 'I' for Inactive)
REMARK    1  A    between atoms: C_1  and  C_2
REMARK    2  A    between atoms: C_4  and  C_5
REMARK    3  A    between atoms: C_9  and  N_10
REMARK    4  A    between atoms: C_22  and  C_23
REMARK    5  A    between atoms: C_23  and  O_24
REMARK    6  A    between atoms: C_27  and  C_28
REMARK                            x       y       z     vdW  Elec       q    Type
REMARK                         _______ _______ _______ _____ _____    ______ ____
ROOT
ATOM      1  N   UNL     1      -5.790  12.288  19.769  0.00  0.00    +0.000 N 
ATOM      2  C   UNL     1      -6.207  13.575  20.121  0.00  0.00    +0.000 C 
ATOM      3  O   UNL     1      -5.840  14.587  19.575  0.00  0.00    +0.000 OA
ATOM      4  N   UNL     1      -7.080  13.608  21.246  0.00  0.00    +0.000 N 
ATOM      5  C   UNL     1      -7.519  14.996  21.645  0.00  0.00    +0.000 C 
ATOM      6  C   UNL     1      -7.567  15.201  23.165  0.00  0.00    +0.000 C 
ATOM      7  C   UNL     1      -6.200  14.775  23.640  0.00  0.00    +0.000 A 
ATOM      8  C   UNL     1      -5.245  15.681  24.098  0.00  0.00    +0.000 A 
ATOM      9  C   UNL     1      -3.928  15.257  24.284  0.00  0.00    +0.000 A 
ATOM     10  C   UNL     1      -3.579  13.920  24.080  0.00  0.00    +0.000 A 
ATOM     11  C   UNL     1      -4.524  13.016  23.600  0.00  0.00    +0.000 A 
ATOM     12  C   UNL     1      -5.818  13.459  23.315  0.00  0.00    +0.000 A 
ATOM     13  C   UNL     1      -6.725  12.689  22.370  0.00  0.00    +0.000 C 
ATOM     14  H   UNL     1      -6.081  11.515  20.333  0.00  0.00    +0.000 HD
ENDROOT
BRANCH   1  19
ATOM     15  C   UNL     1      -2.646  11.387  17.951  0.00  0.00    +0.000 A 
ATOM     16  C   UNL     1      -3.167  11.118  16.675  0.00  0.00    +0.000 A 
ATOM     17  C   UNL     1      -4.500  11.348  16.395  0.00  0.00    +0.000 A 
ATOM     18  C   UNL     1      -5.346  11.797  17.403  0.00  0.00    +0.000 A 
ATOM     19  C   UNL     1      -4.894  11.978  18.710  0.00  0.00    +0.000 A 
ATOM     20  C   UNL     1      -3.520  11.807  18.976  0.00  0.00    +0.000 A 
BRANCH  15  24
ATOM     21  C   UNL     1       1.740   9.234  18.452  0.00  0.00    +0.000 C 
ATOM     22  C   UNL     1       0.705  10.289  18.428  0.00  0.00    +0.000 A 
ATOM     23  N   UNL     1      -0.551  10.032  17.947  0.00  0.00    +0.000 NA
ATOM     24  C   UNL     1      -1.209  11.165  18.120  0.00  0.00    +0.000 A 
ATOM     25  O   UNL     1      -0.451  12.181  18.633  0.00  0.00    +0.000 OA
ATOM     26  C   UNL     1       0.768  11.595  18.862  0.00  0.00    +0.000 A 
ATOM     27  C   UNL     1       1.817  12.403  19.508  0.00  0.00    +0.000 C 
ENDBRANCH  15  24
ENDBRANCH   1  19
BRANCH  13  28
ATOM     28  C   UNL     1      -7.916  11.960  23.008  0.00  0.00    +0.000 C 
BRANCH  28  29
ATOM     29  O   UNL     1      -7.517  11.031  24.019  0.00  0.00    +0.000 OA
ATOM     30  H   UNL     1      -7.690  11.441  24.883  0.00  0.00    +0.000 HD
ENDBRANCH  28  29
ENDBRANCH  13  28
TORSDOF 4
ENDMDL
