MODEL 1
REMARK VINA RESULT:      -7.6      0.000      0.000
REMARK  Name = 
REMARK  5 active torsions:
REMARK  status: ('A' for Active; 'I' for Inactive)
REMARK    1  A    between atoms: C_2  and  C_3
REMARK    2  A    between atoms: C_3  and  C_4
REMARK    3  A    between atoms: N_13  and  C_14
REMARK    4  A    between atoms: N_18  and  C_19
REMARK    5  A    between atoms: C_19  and  C_20
REMARK                            x       y       z     vdW  Elec       q    Type
REMARK                         _______ _______ _______ _____ _____    ______ ____
ROOT
ATOM      1  O   UNL     1       4.536   2.486  18.782  0.00  0.00    +0.000 OA
ATOM      2  C   UNL     1       4.208   3.098  17.774  0.00  0.00    +0.000 C 
ATOM      3  N   UNL     1       2.889   3.692  17.665  0.00  0.00    +0.000 N 
ATOM      4  H   UNL     1       2.611   4.076  16.767  0.00  0.00    +0.000 HD
ENDROOT
BRANCH   3   5
ATOM      5  C   UNL     1       1.975   3.716  18.721  0.00  0.00    +0.000 A 
ATOM      6  C   UNL     1       0.914   2.859  18.928  0.00  0.00    +0.000 A 
ATOM      7  C   UNL     1       0.287   3.306  20.102  0.00  0.00    +0.000 A 
ATOM      8  N   UNL     1       0.898   4.364  20.627  0.00  0.00    +0.000 NA
ATOM      9  N   UNL     1       1.951   4.578  19.801  0.00  0.00    +0.000 N 
BRANCH   9  10
ATOM     10  C   UNL     1       2.848   5.693  20.098  0.00  0.00    +0.000 C 
BRANCH  10  11
ATOM     11  C   UNL     1       2.547   6.943  19.294  0.00  0.00    +0.000 A 
ATOM     12  C   UNL     1       3.147   7.157  18.037  0.00  0.00    +0.000 A 
ATOM     13  C   UNL     1       2.857   8.291  17.273  0.00  0.00    +0.000 A 
ATOM     14  C   UNL     1       1.978   9.251  17.760  0.00  0.00    +0.000 A 
ATOM     15  C   UNL     1       1.433   9.102  19.032  0.00  0.00    +0.000 A 
ATOM     16  C   UNL     1       1.735   7.972  19.804  0.00  0.00    +0.000 A 
ATOM     17 BR   UNL     1       1.055   7.942  21.578  0.00  0.00    +0.000 Br
ENDBRANCH  10  11
ENDBRANCH   9  10
ENDBRANCH   3   5
BRANCH   2  18
ATOM     18  C   UNL     1       5.159   3.322  16.623  0.00  0.00    +0.000 C 
BRANCH  18  19
ATOM     19  C   UNL     1       5.586   4.742  16.486  0.00  0.00    +0.000 A 
ATOM     20  C   UNL     1       5.223   5.621  15.481  0.00  0.00    +0.000 A 
ATOM     21  N   UNL     1       5.858   6.814  15.702  0.00  0.00    +0.000 N 
ATOM     22  C   UNL     1       6.628   6.735  16.840  0.00  0.00    +0.000 A 
ATOM     23  C   UNL     1       7.441   7.698  17.443  0.00  0.00    +0.000 A 
ATOM     24  C   UNL     1       8.140   7.324  18.595  0.00  0.00    +0.000 A 
ATOM     25  C   UNL     1       8.035   6.036  19.112  0.00  0.00    +0.000 A 
ATOM     26  C   UNL     1       7.216   5.085  18.499  0.00  0.00    +0.000 A 
ATOM     27  C   UNL     1       6.492   5.441  17.344  0.00  0.00    +0.000 A 
ATOM     28  H   UNL     1       5.791   7.633  15.110  0.00  0.00    +0.000 HD
ENDBRANCH  18  19
ENDBRANCH   2  18
TORSDOF 5
ENDMDL
MODEL 2
REMARK VINA RESULT:      -7.4      2.704      6.016
REMARK  Name = 
REMARK  5 active torsions:
REMARK  status: ('A' for Active; 'I' for Inactive)
REMARK    1  A    between atoms: C_2  and  C_3
REMARK    2  A    between atoms: C_3  and  C_4
REMARK    3  A    between atoms: N_13  and  C_14
REMARK    4  A    between atoms: N_18  and  C_19
REMARK    5  A    between atoms: C_19  and  C_20
REMARK                            x       y       z     vdW  Elec       q    Type
REMARK                         _______ _______ _______ _____ _____    ______ ____
ROOT
ATOM      1  O   UNL     1       1.750   6.012  17.841  0.00  0.00    +0.000 OA
ATOM      2  C   UNL     1       2.456   6.729  18.537  0.00  0.00    +0.000 C 
ATOM      3  N   UNL     1       3.229   6.170  19.630  0.00  0.00    +0.000 N 
ATOM      4  H   UNL     1       3.696   6.812  20.261  0.00  0.00    +0.000 HD
ENDROOT
BRANCH   3   5
ATOM      5  C   UNL     1       3.316   4.798  19.876  0.00  0.00    +0.000 A 
ATOM      6  C   UNL     1       2.696   4.088  20.884  0.00  0.00    +0.000 A 
ATOM      7  C   UNL     1       3.113   2.757  20.724  0.00  0.00    +0.000 A 
ATOM      8  N   UNL     1       3.932   2.608  19.687  0.00  0.00    +0.000 NA
ATOM      9  N   UNL     1       4.013   3.849  19.152  0.00  0.00    +0.000 N 
BRANCH   9  10
ATOM     10  C   UNL     1       4.853   4.040  17.971  0.00  0.00    +0.000 C 
BRANCH  10  11
ATOM     11  C   UNL     1       5.977   5.035  18.183  0.00  0.00    +0.000 A 
ATOM     12  C   UNL     1       6.781   4.984  19.339  0.00  0.00    +0.000 A 
ATOM     13  C   UNL     1       7.838   5.878  19.534  0.00  0.00    +0.000 A 
ATOM     14  C   UNL     1       8.101   6.860  18.588  0.00  0.00    +0.000 A 
ATOM     15  C   UNL     1       7.274   6.982  17.475  0.00  0.00    +0.000 A 
ATOM     16  C   UNL     1       6.205   6.095  17.287  0.00  0.00    +0.000 A 
ATOM     17 BR   UNL     1       5.055   6.443  15.815  0.00  0.00    +0.000 Br
ENDBRANCH  10  11
ENDBRANCH   9  10
ENDBRANCH   3   5
BRANCH   2  18
ATOM     18  C   UNL     1       2.614   8.207  18.271  0.00  0.00    +0.000 C 
BRANCH  18  19
ATOM     19  C   UNL     1       1.449   9.011  18.731  0.00  0.00    +0.000 A 
ATOM     20  C   UNL     1       0.585   9.744  17.936  0.00  0.00    +0.000 A 
ATOM     21  N   UNL     1      -0.326  10.364  18.747  0.00  0.00    +0.000 N 
ATOM     22  C   UNL     1      -0.079  10.047  20.063  0.00  0.00    +0.000 A 
ATOM     23  C   UNL     1      -0.745  10.448  21.224  0.00  0.00    +0.000 A 
ATOM     24  C   UNL     1      -0.249   9.984  22.447  0.00  0.00    +0.000 A 
ATOM     25  C   UNL     1       0.874   9.164  22.501  0.00  0.00    +0.000 A 
ATOM     26  C   UNL     1       1.528   8.770  21.330  0.00  0.00    +0.000 A 
ATOM     27  C   UNL     1       1.040   9.214  20.086  0.00  0.00    +0.000 A 
ATOM     28  H   UNL     1      -1.064  10.983  18.435  0.00  0.00    +0.000 HD
ENDBRANCH  18  19
ENDBRANCH   2  18
TORSDOF 5
ENDMDL
MODEL 3
REMARK VINA RESULT:      -7.4      2.675      5.772
REMARK  Name = 
REMARK  5 active torsions:
REMARK  status: ('A' for Active; 'I' for Inactive)
REMARK    1  A    between atoms: C_2  and  C_3
REMARK    2  A    between atoms: C_3  and  C_4
REMARK    3  A    between atoms: N_13  and  C_14
REMARK    4  A    between atoms: N_18  and  C_19
REMARK    5  A    between atoms: C_19  and  C_20
REMARK                            x       y       z     vdW  Elec       q    Type
REMARK                         _______ _______ _______ _____ _____    ______ ____
ROOT
ATOM      1  O   UNL     1       1.898   5.871  17.703  0.00  0.00    +0.000 OA
ATOM      2  C   UNL     1       2.502   6.517  18.547  0.00  0.00    +0.000 C 
ATOM      3  N   UNL     1       2.942   5.894  19.782  0.00  0.00    +0.000 N 
ATOM      4  H   UNL     1       3.322   6.492  20.509  0.00  0.00    +0.000 HD
ENDROOT
BRANCH   3   5
ATOM      5  C   UNL     1       2.821   4.525  20.029  0.00  0.00    +0.000 A 
ATOM      6  C   UNL     1       1.694   3.847  20.448  0.00  0.00    +0.000 A 
ATOM      7  C   UNL     1       2.083   2.504  20.574  0.00  0.00    +0.000 A 
ATOM      8  N   UNL     1       3.360   2.318  20.252  0.00  0.00    +0.000 NA
ATOM      9  N   UNL     1       3.787   3.548  19.880  0.00  0.00    +0.000 N 
BRANCH   9  10
ATOM     10  C   UNL     1       5.178   3.698  19.458  0.00  0.00    +0.000 C 
BRANCH  10  11
ATOM     11  C   UNL     1       5.328   4.270  18.061  0.00  0.00    +0.000 A 
ATOM     12  C   UNL     1       4.560   3.772  16.988  0.00  0.00    +0.000 A 
ATOM     13  C   UNL     1       4.669   4.307  15.702  0.00  0.00    +0.000 A 
ATOM     14  C   UNL     1       5.566   5.338  15.452  0.00  0.00    +0.000 A 
ATOM     15  C   UNL     1       6.391   5.795  16.476  0.00  0.00    +0.000 A 
ATOM     16  C   UNL     1       6.293   5.248  17.762  0.00  0.00    +0.000 A 
ATOM     17 BR   UNL     1       7.566   5.841  19.043  0.00  0.00    +0.000 Br
ENDBRANCH  10  11
ENDBRANCH   9  10
ENDBRANCH   3   5
BRANCH   2  18
ATOM     18  C   UNL     1       2.878   7.964  18.339  0.00  0.00    +0.000 C 
BRANCH  18  19
ATOM     19  C   UNL     1       1.758   8.905  18.620  0.00  0.00    +0.000 A 
ATOM     20  C   UNL     1       1.125   9.731  17.708  0.00  0.00    +0.000 A 
ATOM     21  N   UNL     1       0.176  10.460  18.374  0.00  0.00    +0.000 N 
ATOM     22  C   UNL     1       0.172  10.122  19.708  0.00  0.00    +0.000 A 
ATOM     23  C   UNL     1      -0.618  10.605  20.755  0.00  0.00    +0.000 A 
ATOM     24  C   UNL     1      -0.381  10.091  22.034  0.00  0.00    +0.000 A 
ATOM     25  C   UNL     1       0.614   9.142  22.253  0.00  0.00    +0.000 A 
ATOM     26  C   UNL     1       1.394   8.668  21.195  0.00  0.00    +0.000 A 
ATOM     27  C   UNL     1       1.166   9.161  19.896  0.00  0.00    +0.000 A 
ATOM     28  H   UNL     1      -0.424  11.162  17.958  0.00  0.00    +0.000 HD
ENDBRANCH  18  19
ENDBRANCH   2  18
TORSDOF 5
ENDMDL
MODEL 4
REMARK VINA RESULT:      -7.2      4.059      6.330
REMARK  Name = 
REMARK  5 active torsions:
REMARK  status: ('A' for Active; 'I' for Inactive)
REMARK    1  A    between atoms: C_2  and  C_3
REMARK    2  A    between atoms: C_3  and  C_4
REMARK    3  A    between atoms: N_13  and  C_14
REMARK    4  A    between atoms: N_18  and  C_19
REMARK    5  A    between atoms: C_19  and  C_20
REMARK                            x       y       z     vdW  Elec       q    Type
REMARK                         _______ _______ _______ _____ _____    ______ ____
ROOT
ATOM      1  O   UNL     1       2.119   8.082  19.716  0.00  0.00    +0.000 OA
ATOM      2  C   UNL     1       2.046   8.019  18.497  0.00  0.00    +0.000 C 
ATOM      3  N   UNL     1       1.683   9.186  17.715  0.00  0.00    +0.000 N 
ATOM      4  H   UNL     1       1.506   9.061  16.724  0.00  0.00    +0.000 HD
ENDROOT
BRANCH   3   5
ATOM      5  C   UNL     1       1.521  10.456  18.275  0.00  0.00    +0.000 A 
ATOM      6  C   UNL     1       2.419  11.503  18.246  0.00  0.00    +0.000 A 
ATOM      7  C   UNL     1       1.811  12.547  18.961  0.00  0.00    +0.000 A 
ATOM      8  N   UNL     1       0.605  12.211  19.412  0.00  0.00    +0.000 NA
ATOM      9  N   UNL     1       0.421  10.951  18.950  0.00  0.00    +0.000 N 
BRANCH   9  10
ATOM     10  C   UNL     1      -0.831  10.271  19.275  0.00  0.00    +0.000 C 
BRANCH  10  11
ATOM     11  C   UNL     1      -1.925  10.498  18.249  0.00  0.00    +0.000 A 
ATOM     12  C   UNL     1      -1.882   9.863  16.991  0.00  0.00    +0.000 A 
ATOM     13  C   UNL     1      -2.898  10.042  16.048  0.00  0.00    +0.000 A 
ATOM     14  C   UNL     1      -3.969  10.881  16.331  0.00  0.00    +0.000 A 
ATOM     15  C   UNL     1      -3.996  11.580  17.534  0.00  0.00    +0.000 A 
ATOM     16  C   UNL     1      -2.970  11.412  18.474  0.00  0.00    +0.000 A 
ATOM     17 BR   UNL     1      -3.031  12.524  20.014  0.00  0.00    +0.000 Br
ENDBRANCH  10  11
ENDBRANCH   9  10
ENDBRANCH   3   5
BRANCH   2  18
ATOM     18  C   UNL     1       2.381   6.760  17.733  0.00  0.00    +0.000 C 
BRANCH  18  19
ATOM     19  C   UNL     1       3.089   5.745  18.561  0.00  0.00    +0.000 A 
ATOM     20  C   UNL     1       4.457   5.562  18.651  0.00  0.00    +0.000 A 
ATOM     21  N   UNL     1       4.697   4.506  19.489  0.00  0.00    +0.000 N 
ATOM     22  C   UNL     1       3.507   3.996  19.955  0.00  0.00    +0.000 A 
ATOM     23  C   UNL     1       3.266   2.927  20.824  0.00  0.00    +0.000 A 
ATOM     24  C   UNL     1       1.934   2.611  21.106  0.00  0.00    +0.000 A 
ATOM     25  C   UNL     1       0.889   3.329  20.532  0.00  0.00    +0.000 A 
ATOM     26  C   UNL     1       1.145   4.396  19.666  0.00  0.00    +0.000 A 
ATOM     27  C   UNL     1       2.480   4.741  19.377  0.00  0.00    +0.000 A 
ATOM     28  H   UNL     1       5.610   4.135  19.721  0.00  0.00    +0.000 HD
ENDBRANCH  18  19
ENDBRANCH   2  18
TORSDOF 5
ENDMDL
MODEL 5
REMARK VINA RESULT:      -7.0      3.260      6.894
REMARK  Name = 
REMARK  5 active torsions:
REMARK  status: ('A' for Active; 'I' for Inactive)
REMARK    1  A    between atoms: C_2  and  C_3
REMARK    2  A    between atoms: C_3  and  C_4
REMARK    3  A    between atoms: N_13  and  C_14
REMARK    4  A    between atoms: N_18  and  C_19
REMARK    5  A    between atoms: C_19  and  C_20
REMARK                            x       y       z     vdW  Elec       q    Type
REMARK                         _______ _______ _______ _____ _____    ______ ____
ROOT
ATOM      1  O   UNL     1       2.195   8.132  20.054  0.00  0.00    +0.000 OA
ATOM      2  C   UNL     1       2.069   7.906  18.859  0.00  0.00    +0.000 C 
ATOM      3  N   UNL     1       2.278   6.571  18.330  0.00  0.00    +0.000 N 
ATOM      4  H   UNL     1       2.292   6.453  17.323  0.00  0.00    +0.000 HD
ENDROOT
BRANCH   3   5
ATOM      5  C   UNL     1       2.506   5.459  19.144  0.00  0.00    +0.000 A 
ATOM      6  C   UNL     1       1.818   5.102  20.285  0.00  0.00    +0.000 A 
ATOM      7  C   UNL     1       2.434   3.930  20.752  0.00  0.00    +0.000 A 
ATOM      8  N   UNL     1       3.438   3.545  19.969  0.00  0.00    +0.000 NA
ATOM      9  N   UNL     1       3.444   4.459  18.969  0.00  0.00    +0.000 N 
BRANCH   9  10
ATOM     10  C   UNL     1       4.449   4.325  17.916  0.00  0.00    +0.000 C 
BRANCH  10  11
ATOM     11  C   UNL     1       5.685   5.173  18.148  0.00  0.00    +0.000 A 
ATOM     12  C   UNL     1       6.443   5.041  19.329  0.00  0.00    +0.000 A 
ATOM     13  C   UNL     1       7.599   5.796  19.543  0.00  0.00    +0.000 A 
ATOM     14  C   UNL     1       8.011   6.720  18.591  0.00  0.00    +0.000 A 
ATOM     15  C   UNL     1       7.238   6.925  17.452  0.00  0.00    +0.000 A 
ATOM     16  C   UNL     1       6.071   6.179  17.244  0.00  0.00    +0.000 A 
ATOM     17 BR   UNL     1       5.017   6.644  15.733  0.00  0.00    +0.000 Br
ENDBRANCH  10  11
ENDBRANCH   9  10
ENDBRANCH   3   5
BRANCH   2  18
ATOM     18  C   UNL     1       1.636   8.971  17.879  0.00  0.00    +0.000 C 
BRANCH  18  19
ATOM     19  C   UNL     1       0.757  10.005  18.490  0.00  0.00    +0.000 A 
ATOM     20  C   UNL     1       1.097  10.882  19.506  0.00  0.00    +0.000 A 
ATOM     21  N   UNL     1      -0.001  11.644  19.803  0.00  0.00    +0.000 N 
ATOM     22  C   UNL     1      -1.056  11.286  18.995  0.00  0.00    +0.000 A 
ATOM     23  C   UNL     1      -2.360  11.787  18.945  0.00  0.00    +0.000 A 
ATOM     24  C   UNL     1      -3.241  11.205  18.028  0.00  0.00    +0.000 A 
ATOM     25  C   UNL     1      -2.833  10.158  17.206  0.00  0.00    +0.000 A 
ATOM     26  C   UNL     1      -1.526   9.670  17.266  0.00  0.00    +0.000 A 
ATOM     27  C   UNL     1      -0.616  10.248  18.173  0.00  0.00    +0.000 A 
ATOM     28  H   UNL     1      -0.046  12.354  20.523  0.00  0.00    +0.000 HD
ENDBRANCH  18  19
ENDBRANCH   2  18
TORSDOF 5
ENDMDL
MODEL 6
REMARK VINA RESULT:      -7.0      2.673      5.709
REMARK  Name = 
REMARK  5 active torsions:
REMARK  status: ('A' for Active; 'I' for Inactive)
REMARK    1  A    between atoms: C_2  and  C_3
REMARK    2  A    between atoms: C_3  and  C_4
REMARK    3  A    between atoms: N_13  and  C_14
REMARK    4  A    between atoms: N_18  and  C_19
REMARK    5  A    between atoms: C_19  and  C_20
REMARK                            x       y       z     vdW  Elec       q    Type
REMARK                         _______ _______ _______ _____ _____    ______ ____
ROOT
ATOM      1  O   UNL     1       1.790   5.713  17.922  0.00  0.00    +0.000 OA
ATOM      2  C   UNL     1       2.367   6.398  18.755  0.00  0.00    +0.000 C 
ATOM      3  N   UNL     1       2.686   5.860  20.065  0.00  0.00    +0.000 N 
ATOM      4  H   UNL     1       3.045   6.496  20.768  0.00  0.00    +0.000 HD
ENDROOT
BRANCH   3   5
ATOM      5  C   UNL     1       2.475   4.522  20.409  0.00  0.00    +0.000 A 
ATOM      6  C   UNL     1       1.303   3.948  20.856  0.00  0.00    +0.000 A 
ATOM      7  C   UNL     1       1.605   2.597  21.087  0.00  0.00    +0.000 A 
ATOM      8  N   UNL     1       2.872   2.309  20.803  0.00  0.00    +0.000 NA
ATOM      9  N   UNL     1       3.381   3.479  20.348  0.00  0.00    +0.000 N 
BRANCH   9  10
ATOM     10  C   UNL     1       4.784   3.512  19.941  0.00  0.00    +0.000 C 
BRANCH  10  11
ATOM     11  C   UNL     1       5.005   4.160  18.587  0.00  0.00    +0.000 A 
ATOM     12  C   UNL     1       5.742   5.355  18.468  0.00  0.00    +0.000 A 
ATOM     13  C   UNL     1       5.976   5.947  17.224  0.00  0.00    +0.000 A 
ATOM     14  C   UNL     1       5.458   5.371  16.071  0.00  0.00    +0.000 A 
ATOM     15  C   UNL     1       4.661   4.234  16.169  0.00  0.00    +0.000 A 
ATOM     16  C   UNL     1       4.413   3.648  17.418  0.00  0.00    +0.000 A 
ATOM     17 BR   UNL     1       3.195   2.190  17.452  0.00  0.00    +0.000 Br
ENDBRANCH  10  11
ENDBRANCH   9  10
ENDBRANCH   3   5
BRANCH   2  18
ATOM     18  C   UNL     1       2.831   7.804  18.461  0.00  0.00    +0.000 C 
BRANCH  18  19
ATOM     19  C   UNL     1       1.771   8.827  18.678  0.00  0.00    +0.000 A 
ATOM     20  C   UNL     1       1.235   9.675  17.725  0.00  0.00    +0.000 A 
ATOM     21  N   UNL     1       0.315  10.484  18.336  0.00  0.00    +0.000 N 
ATOM     22  C   UNL     1       0.233  10.177  19.675  0.00  0.00    +0.000 A 
ATOM     23  C   UNL     1      -0.562  10.737  20.679  0.00  0.00    +0.000 A 
ATOM     24  C   UNL     1      -0.413  10.237  21.976  0.00  0.00    +0.000 A 
ATOM     25  C   UNL     1       0.502   9.226  22.255  0.00  0.00    +0.000 A 
ATOM     26  C   UNL     1       1.288   8.674  21.240  0.00  0.00    +0.000 A 
ATOM     27  C   UNL     1       1.148   9.153  19.923  0.00  0.00    +0.000 A 
ATOM     28  H   UNL     1      -0.217  11.217  17.882  0.00  0.00    +0.000 HD
ENDBRANCH  18  19
ENDBRANCH   2  18
TORSDOF 5
ENDMDL
MODEL 7
REMARK VINA RESULT:      -7.0      1.135      1.633
REMARK  Name = 
REMARK  5 active torsions:
REMARK  status: ('A' for Active; 'I' for Inactive)
REMARK    1  A    between atoms: C_2  and  C_3
REMARK    2  A    between atoms: C_3  and  C_4
REMARK    3  A    between atoms: N_13  and  C_14
REMARK    4  A    between atoms: N_18  and  C_19
REMARK    5  A    between atoms: C_19  and  C_20
REMARK                            x       y       z     vdW  Elec       q    Type
REMARK                         _______ _______ _______ _____ _____    ______ ____
ROOT
ATOM      1  O   UNL     1       4.536   2.586  18.727  0.00  0.00    +0.000 OA
ATOM      2  C   UNL     1       4.166   3.232  17.757  0.00  0.00    +0.000 C 
ATOM      3  N   UNL     1       2.861   3.866  17.742  0.00  0.00    +0.000 N 
ATOM      4  H   UNL     1       2.541   4.280  16.873  0.00  0.00    +0.000 HD
ENDROOT
BRANCH   3   5
ATOM      5  C   UNL     1       2.014   3.888  18.853  0.00  0.00    +0.000 A 
ATOM      6  C   UNL     1       1.048   2.961  19.187  0.00  0.00    +0.000 A 
ATOM      7  C   UNL     1       0.455   3.437  20.367  0.00  0.00    +0.000 A 
ATOM      8  N   UNL     1       0.999   4.580  20.777  0.00  0.00    +0.000 NA
ATOM      9  N   UNL     1       1.976   4.822  19.871  0.00  0.00    +0.000 N 
BRANCH   9  10
ATOM     10  C   UNL     1       2.785   6.028  20.033  0.00  0.00    +0.000 C 
BRANCH  10  11
ATOM     11  C   UNL     1       1.963   7.300  20.118  0.00  0.00    +0.000 A 
ATOM     12  C   UNL     1       1.100   7.533  21.207  0.00  0.00    +0.000 A 
ATOM     13  C   UNL     1       0.358   8.713  21.312  0.00  0.00    +0.000 A 
ATOM     14  C   UNL     1       0.443   9.678  20.315  0.00  0.00    +0.000 A 
ATOM     15  C   UNL     1       1.228   9.438  19.191  0.00  0.00    +0.000 A 
ATOM     16  C   UNL     1       1.960   8.249  19.079  0.00  0.00    +0.000 A 
ATOM     17 BR   UNL     1       2.878   7.961  17.441  0.00  0.00    +0.000 Br
ENDBRANCH  10  11
ENDBRANCH   9  10
ENDBRANCH   3   5
BRANCH   2  18
ATOM     18  C   UNL     1       5.051   3.459  16.555  0.00  0.00    +0.000 C 
BRANCH  18  19
ATOM     19  C   UNL     1       5.554   4.857  16.455  0.00  0.00    +0.000 A 
ATOM     20  C   UNL     1       5.250   5.775  15.465  0.00  0.00    +0.000 A 
ATOM     21  N   UNL     1       5.942   6.929  15.720  0.00  0.00    +0.000 N 
ATOM     22  C   UNL     1       6.692   6.785  16.865  0.00  0.00    +0.000 A 
ATOM     23  C   UNL     1       7.546   7.692  17.499  0.00  0.00    +0.000 A 
ATOM     24  C   UNL     1       8.209   7.258  18.652  0.00  0.00    +0.000 A 
ATOM     25  C   UNL     1       8.030   5.967  19.139  0.00  0.00    +0.000 A 
ATOM     26  C   UNL     1       7.171   5.072  18.495  0.00  0.00    +0.000 A 
ATOM     27  C   UNL     1       6.483   5.490  17.339  0.00  0.00    +0.000 A 
ATOM     28  H   UNL     1       5.927   7.762  15.145  0.00  0.00    +0.000 HD
ENDBRANCH  18  19
ENDBRANCH   2  18
TORSDOF 5
ENDMDL
MODEL 8
REMARK VINA RESULT:      -6.9      3.673      5.714
REMARK  Name = 
REMARK  5 active torsions:
REMARK  status: ('A' for Active; 'I' for Inactive)
REMARK    1  A    between atoms: C_2  and  C_3
REMARK    2  A    between atoms: C_3  and  C_4
REMARK    3  A    between atoms: N_13  and  C_14
REMARK    4  A    between atoms: N_18  and  C_19
REMARK    5  A    between atoms: C_19  and  C_20
REMARK                            x       y       z     vdW  Elec       q    Type
REMARK                         _______ _______ _______ _____ _____    ______ ____
ROOT
ATOM      1  O   UNL     1       1.778   6.538  20.500  0.00  0.00    +0.000 OA
ATOM      2  C   UNL     1       2.113   7.313  19.615  0.00  0.00    +0.000 C 
ATOM      3  N   UNL     1       1.673   8.696  19.636  0.00  0.00    +0.000 N 
ATOM      4  H   UNL     1       1.863   9.269  18.821  0.00  0.00    +0.000 HD
ENDROOT
BRANCH   3   5
ATOM      5  C   UNL     1       0.963   9.252  20.702  0.00  0.00    +0.000 A 
ATOM      6  C   UNL     1       0.859   8.758  21.986  0.00  0.00    +0.000 A 
ATOM      7  C   UNL     1       0.025   9.654  22.673  0.00  0.00    +0.000 A 
ATOM      8  N   UNL     1      -0.375  10.661  21.901  0.00  0.00    +0.000 NA
ATOM      9  N   UNL     1       0.238  10.429  20.716  0.00  0.00    +0.000 N 
BRANCH   9  10
ATOM     10  C   UNL     1       0.006  11.370  19.622  0.00  0.00    +0.000 C 
BRANCH  10  11
ATOM     11  C   UNL     1      -1.251  11.073  18.826  0.00  0.00    +0.000 A 
ATOM     12  C   UNL     1      -1.228  10.164  17.749  0.00  0.00    +0.000 A 
ATOM     13  C   UNL     1      -2.384   9.862  17.025  0.00  0.00    +0.000 A 
ATOM     14  C   UNL     1      -3.587  10.481  17.345  0.00  0.00    +0.000 A 
ATOM     15  C   UNL     1      -3.619  11.440  18.352  0.00  0.00    +0.000 A 
ATOM     16  C   UNL     1      -2.457  11.754  19.069  0.00  0.00    +0.000 A 
ATOM     17 BR   UNL     1      -2.583  13.180  20.319  0.00  0.00    +0.000 Br
ENDBRANCH  10  11
ENDBRANCH   9  10
ENDBRANCH   3   5
BRANCH   2  18
ATOM     18  C   UNL     1       3.039   6.906  18.495  0.00  0.00    +0.000 C 
BRANCH  18  19
ATOM     19  C   UNL     1       3.751   5.626  18.761  0.00  0.00    +0.000 A 
ATOM     20  C   UNL     1       5.066   5.481  19.168  0.00  0.00    +0.000 A 
ATOM     21  N   UNL     1       5.342   4.144  19.266  0.00  0.00    +0.000 N 
ATOM     22  C   UNL     1       4.228   3.407  18.937  0.00  0.00    +0.000 A 
ATOM     23  C   UNL     1       4.046   2.021  18.896  0.00  0.00    +0.000 A 
ATOM     24  C   UNL     1       2.795   1.545  18.492  0.00  0.00    +0.000 A 
ATOM     25  C   UNL     1       1.775   2.421  18.135  0.00  0.00    +0.000 A 
ATOM     26  C   UNL     1       1.971   3.804  18.183  0.00  0.00    +0.000 A 
ATOM     27  C   UNL     1       3.219   4.308  18.598  0.00  0.00    +0.000 A 
ATOM     28  H   UNL     1       6.237   3.746  19.523  0.00  0.00    +0.000 HD
ENDBRANCH  18  19
ENDBRANCH   2  18
TORSDOF 5
ENDMDL
MODEL 9
REMARK VINA RESULT:      -6.9      4.163      5.877
REMARK  Name = 
REMARK  5 active torsions:
REMARK  status: ('A' for Active; 'I' for Inactive)
REMARK    1  A    between atoms: C_2  and  C_3
REMARK    2  A    between atoms: C_3  and  C_4
REMARK    3  A    between atoms: N_13  and  C_14
REMARK    4  A    between atoms: N_18  and  C_19
REMARK    5  A    between atoms: C_19  and  C_20
REMARK                            x       y       z     vdW  Elec       q    Type
REMARK                         _______ _______ _______ _____ _____    ______ ____
ROOT
ATOM      1  O   UNL     1       1.903   8.533  19.578  0.00  0.00    +0.000 OA
ATOM      2  C   UNL     1       2.003   8.621  18.362  0.00  0.00    +0.000 C 
ATOM      3  N   UNL     1       1.710   9.869  17.682  0.00  0.00    +0.000 N 
ATOM      4  H   UNL     1       1.678   9.864  16.668  0.00  0.00    +0.000 HD
ENDROOT
BRANCH   3   5
ATOM      5  C   UNL     1       1.424  11.056  18.361  0.00  0.00    +0.000 A 
ATOM      6  C   UNL     1       2.208  12.189  18.430  0.00  0.00    +0.000 A 
ATOM      7  C   UNL     1       1.503  13.091  19.243  0.00  0.00    +0.000 A 
ATOM      8  N   UNL     1       0.345  12.589  19.663  0.00  0.00    +0.000 NA
ATOM      9  N   UNL     1       0.287  11.366  19.083  0.00  0.00    +0.000 N 
BRANCH   9  10
ATOM     10  C   UNL     1      -0.883  10.532  19.344  0.00  0.00    +0.000 C 
BRANCH  10  11
ATOM     11  C   UNL     1      -1.969  10.667  18.293  0.00  0.00    +0.000 A 
ATOM     12  C   UNL     1      -1.839  10.048  17.034  0.00  0.00    +0.000 A 
ATOM     13  C   UNL     1      -2.843  10.142  16.067  0.00  0.00    +0.000 A 
ATOM     14  C   UNL     1      -3.992  10.879  16.327  0.00  0.00    +0.000 A 
ATOM     15  C   UNL     1      -4.110  11.564  17.533  0.00  0.00    +0.000 A 
ATOM     16  C   UNL     1      -3.097  11.482  18.497  0.00  0.00    +0.000 A 
ATOM     17 BR   UNL     1      -3.295  12.573  20.040  0.00  0.00    +0.000 Br
ENDBRANCH  10  11
ENDBRANCH   9  10
ENDBRANCH   3   5
BRANCH   2  18
ATOM     18  C   UNL     1       2.489   7.473  17.509  0.00  0.00    +0.000 C 
BRANCH  18  19
ATOM     19  C   UNL     1       3.397   6.546  18.238  0.00  0.00    +0.000 A 
ATOM     20  C   UNL     1       3.043   5.669  19.248  0.00  0.00    +0.000 A 
ATOM     21  N   UNL     1       4.173   5.026  19.676  0.00  0.00    +0.000 N 
ATOM     22  C   UNL     1       5.263   5.462  18.959  0.00  0.00    +0.000 A 
ATOM     23  C   UNL     1       6.607   5.088  19.051  0.00  0.00    +0.000 A 
ATOM     24  C   UNL     1       7.515   5.727  18.201  0.00  0.00    +0.000 A 
ATOM     25  C   UNL     1       7.094   6.706  17.306  0.00  0.00    +0.000 A 
ATOM     26  C   UNL     1       5.746   7.067  17.225  0.00  0.00    +0.000 A 
ATOM     27  C   UNL     1       4.811   6.429  18.062  0.00  0.00    +0.000 A 
ATOM     28  H   UNL     1       4.213   4.343  20.423  0.00  0.00    +0.000 HD
ENDBRANCH  18  19
ENDBRANCH   2  18
TORSDOF 5
ENDMDL
