MODEL 1
REMARK VINA RESULT:      -8.2      0.000      0.000
REMARK  Name = 
REMARK  6 active torsions:
REMARK  status: ('A' for Active; 'I' for Inactive)
REMARK    1  A    between atoms: C_2  and  C_16
REMARK    2  A    between atoms: N_3  and  C_4
REMARK    3  A    between atoms: C_6  and  C_7
REMARK    4  A    between atoms: C_7  and  N_8
REMARK    5  A    between atoms: C_14  and  O_15
REMARK    6  A    between atoms: C_16  and  C_17
REMARK                            x       y       z     vdW  Elec       q    Type
REMARK                         _______ _______ _______ _____ _____    ______ ____
ROOT
ATOM      1  O   UNL     1       4.981   5.683  19.440  0.00  0.00    +0.000 OA
ATOM      2  C   UNL     1       4.133   5.676  18.545  0.00  0.00    +0.000 C 
ATOM      3  N   UNL     1       4.512   5.674  17.211  0.00  0.00    +0.000 N 
ATOM      4  H   UNL     1       3.797   5.640  16.497  0.00  0.00    +0.000 HD
ENDROOT
BRANCH   2   5
ATOM      5  C   UNL     1       2.555   5.701  18.793  0.00  0.00    +0.000 C 
ATOM      6  C   UNL     1       1.992   4.713  19.902  0.00  0.00    +0.000 C 
ATOM      7  C   UNL     1       1.797   3.707  18.794  0.00  0.00    +0.000 C 
ATOM      8  C   UNL     1       2.827   2.607  18.649  0.00  0.00    +0.000 C 
ATOM      9  C   UNL     1       1.778   1.671  19.301  0.00  0.00    +0.000 C 
ATOM     10  C   UNL     1       0.687   2.693  18.892  0.00  0.00    +0.000 C 
ATOM     11  C   UNL     1       1.737   4.801  17.764  0.00  0.00    +0.000 C 
BRANCH   5  12
ATOM     12  C   UNL     1       2.110   7.233  18.899  0.00  0.00    +0.000 A 
ATOM     13  C   UNL     1       2.112   8.106  17.797  0.00  0.00    +0.000 A 
ATOM     14  C   UNL     1       1.687   9.427  17.917  0.00  0.00    +0.000 A 
ATOM     15  C   UNL     1       1.272   9.870  19.158  0.00  0.00    +0.000 A 
ATOM     16  N   UNL     1       1.264   9.093  20.257  0.00  0.00    +0.000 NA
ATOM     17  C   UNL     1       1.680   7.814  20.099  0.00  0.00    +0.000 A 
ENDBRANCH   5  12
ENDBRANCH   2   5
BRANCH   3  18
ATOM     18  C   UNL     1       5.920   5.693  16.820  0.00  0.00    +0.000 C 
ATOM     19  C   UNL     1       6.073   5.978  15.315  0.00  0.00    +0.000 C 
ATOM     20  C   UNL     1       6.335   4.624  14.625  0.00  0.00    +0.000 C 
ATOM     21  C   UNL     1       6.250   3.568  15.736  0.00  0.00    +0.000 C 
ATOM     22  C   UNL     1       6.592   4.325  17.013  0.00  0.00    +0.000 C 
BRANCH  22  23
ATOM     23  O   UNL     1       8.006   4.435  17.151  0.00  0.00    +0.000 OA
ATOM     24  H   UNL     1       8.222   4.731  18.051  0.00  0.00    +0.000 HD
ENDBRANCH  22  23
BRANCH  20  25
ATOM     25  C   UNL     1       5.374   4.306  13.474  0.00  0.00    +0.000 C 
BRANCH  25  26
ATOM     26  N   UNL     1       5.889   3.355  12.511  0.00  0.00    +0.000 N 
ATOM     27  C   UNL     1       5.182   2.381  11.865  0.00  0.00    +0.000 A 
ATOM     28  C   UNL     1       6.098   1.761  11.048  0.00  0.00    +0.000 A 
ATOM     29  N   UNL     1       7.330   2.348  11.166  0.00  0.00    +0.000 NA
ATOM     30  C   UNL     1       7.173   3.312  12.045  0.00  0.00    +0.000 A 
ENDBRANCH  25  26
ENDBRANCH  20  25
ENDBRANCH   3  18
TORSDOF 6
ENDMDL
MODEL 2
REMARK VINA RESULT:      -7.1      3.386      5.238
REMARK  Name = 
REMARK  6 active torsions:
REMARK  status: ('A' for Active; 'I' for Inactive)
REMARK    1  A    between atoms: C_2  and  C_16
REMARK    2  A    between atoms: N_3  and  C_4
REMARK    3  A    between atoms: C_6  and  C_7
REMARK    4  A    between atoms: C_7  and  N_8
REMARK    5  A    between atoms: C_14  and  O_15
REMARK    6  A    between atoms: C_16  and  C_17
REMARK                            x       y       z     vdW  Elec       q    Type
REMARK                         _______ _______ _______ _____ _____    ______ ____
ROOT
ATOM      1  O   UNL     1       4.476   4.350  17.594  0.00  0.00    +0.000 OA
ATOM      2  C   UNL     1       4.330   5.132  18.536  0.00  0.00    +0.000 C 
ATOM      3  N   UNL     1       5.427   5.756  19.114  0.00  0.00    +0.000 N 
ATOM      4  H   UNL     1       5.277   6.414  19.867  0.00  0.00    +0.000 HD
ENDROOT
BRANCH   2   5
ATOM      5  C   UNL     1       2.926   5.488  19.208  0.00  0.00    +0.000 C 
ATOM      6  C   UNL     1       2.756   5.118  20.743  0.00  0.00    +0.000 C 
ATOM      7  C   UNL     1       2.194   3.796  20.281  0.00  0.00    +0.000 C 
ATOM      8  C   UNL     1       3.108   2.589  20.316  0.00  0.00    +0.000 C 
ATOM      9  C   UNL     1       2.329   2.156  21.583  0.00  0.00    +0.000 C 
ATOM     10  C   UNL     1       1.172   3.081  21.125  0.00  0.00    +0.000 C 
ATOM     11  C   UNL     1       1.804   4.386  18.954  0.00  0.00    +0.000 C 
BRANCH   5  12
ATOM     12  C   UNL     1       2.554   6.984  18.783  0.00  0.00    +0.000 A 
ATOM     13  C   UNL     1       1.810   7.848  19.606  0.00  0.00    +0.000 A 
ATOM     14  C   UNL     1       1.531   9.157  19.218  0.00  0.00    +0.000 A 
ATOM     15  C   UNL     1       1.993   9.588  17.989  0.00  0.00    +0.000 A 
ATOM     16  N   UNL     1       2.693   8.806  17.146  0.00  0.00    +0.000 NA
ATOM     17  C   UNL     1       2.948   7.542  17.560  0.00  0.00    +0.000 A 
ENDBRANCH   5  12
ENDBRANCH   2   5
BRANCH   3  18
ATOM     18  C   UNL     1       6.785   5.502  18.639  0.00  0.00    +0.000 C 
ATOM     19  C   UNL     1       7.716   6.683  18.965  0.00  0.00    +0.000 C 
ATOM     20  C   UNL     1       7.869   7.506  17.669  0.00  0.00    +0.000 C 
ATOM     21  C   UNL     1       6.958   6.827  16.636  0.00  0.00    +0.000 C 
ATOM     22  C   UNL     1       6.850   5.383  17.109  0.00  0.00    +0.000 C 
BRANCH  22  23
ATOM     23  O   UNL     1       7.987   4.641  16.675  0.00  0.00    +0.000 OA
ATOM     24  H   UNL     1       8.394   4.195  17.437  0.00  0.00    +0.000 HD
ENDBRANCH  22  23
BRANCH  20  25
ATOM     25  C   UNL     1       7.532   8.993  17.822  0.00  0.00    +0.000 C 
BRANCH  25  26
ATOM     26  N   UNL     1       8.620   9.803  18.328  0.00  0.00    +0.000 N 
ATOM     27  C   UNL     1       9.069   9.856  19.618  0.00  0.00    +0.000 A 
ATOM     28  C   UNL     1      10.120  10.743  19.591  0.00  0.00    +0.000 A 
ATOM     29  N   UNL     1      10.331  11.207  18.320  0.00  0.00    +0.000 NA
ATOM     30  C   UNL     1       9.421  10.616  17.579  0.00  0.00    +0.000 A 
ENDBRANCH  25  26
ENDBRANCH  20  25
ENDBRANCH   3  18
TORSDOF 6
ENDMDL
MODEL 3
REMARK VINA RESULT:      -7.1      1.950      7.329
REMARK  Name = 
REMARK  6 active torsions:
REMARK  status: ('A' for Active; 'I' for Inactive)
REMARK    1  A    between atoms: C_2  and  C_16
REMARK    2  A    between atoms: N_3  and  C_4
REMARK    3  A    between atoms: C_6  and  C_7
REMARK    4  A    between atoms: C_7  and  N_8
REMARK    5  A    between atoms: C_14  and  O_15
REMARK    6  A    between atoms: C_16  and  C_17
REMARK                            x       y       z     vdW  Elec       q    Type
REMARK                         _______ _______ _______ _____ _____    ______ ____
ROOT
ATOM      1  O   UNL     1       5.019   2.489  16.535  0.00  0.00    +0.000 OA
ATOM      2  C   UNL     1       5.028   3.722  16.550  0.00  0.00    +0.000 C 
ATOM      3  N   UNL     1       3.908   4.434  16.954  0.00  0.00    +0.000 N 
ATOM      4  H   UNL     1       3.952   5.444  16.982  0.00  0.00    +0.000 HD
ENDROOT
BRANCH   2   5
ATOM      5  C   UNL     1       6.266   4.624  16.093  0.00  0.00    +0.000 C 
ATOM      6  C   UNL     1       7.577   4.537  16.984  0.00  0.00    +0.000 C 
ATOM      7  C   UNL     1       7.025   5.702  17.769  0.00  0.00    +0.000 C 
ATOM      8  C   UNL     1       6.365   5.408  19.100  0.00  0.00    +0.000 C 
ATOM      9  C   UNL     1       7.662   5.947  19.753  0.00  0.00    +0.000 C 
ATOM     10  C   UNL     1       7.968   6.679  18.422  0.00  0.00    +0.000 C 
ATOM     11  C   UNL     1       6.176   6.130  16.604  0.00  0.00    +0.000 C 
BRANCH   5  12
ATOM     12  C   UNL     1       6.451   4.424  14.518  0.00  0.00    +0.000 A 
ATOM     13  C   UNL     1       5.567   3.656  13.738  0.00  0.00    +0.000 A 
ATOM     14  C   UNL     1       5.739   3.528  12.361  0.00  0.00    +0.000 A 
ATOM     15  C   UNL     1       6.815   4.166  11.774  0.00  0.00    +0.000 A 
ATOM     16  N   UNL     1       7.708   4.899  12.466  0.00  0.00    +0.000 NA
ATOM     17  C   UNL     1       7.504   5.003  13.800  0.00  0.00    +0.000 A 
ENDBRANCH   5  12
ENDBRANCH   2   5
BRANCH   3  18
ATOM     18  C   UNL     1       2.681   3.754  17.362  0.00  0.00    +0.000 C 
ATOM     19  C   UNL     1       1.679   4.744  17.983  0.00  0.00    +0.000 C 
ATOM     20  C   UNL     1       1.778   4.583  19.514  0.00  0.00    +0.000 C 
ATOM     21  C   UNL     1       2.894   3.556  19.752  0.00  0.00    +0.000 C 
ATOM     22  C   UNL     1       2.932   2.726  18.475  0.00  0.00    +0.000 C 
BRANCH  22  23
ATOM     23  O   UNL     1       1.923   1.721  18.516  0.00  0.00    +0.000 OA
ATOM     24  H   UNL     1       1.875   1.273  17.655  0.00  0.00    +0.000 HD
ENDBRANCH  22  23
BRANCH  20  25
ATOM     25  C   UNL     1       2.047   5.888  20.269  0.00  0.00    +0.000 C 
BRANCH  25  26
ATOM     26  N   UNL     1       2.162   7.057  19.421  0.00  0.00    +0.000 N 
ATOM     27  C   UNL     1       1.441   8.213  19.520  0.00  0.00    +0.000 A 
ATOM     28  C   UNL     1       1.924   9.019  18.516  0.00  0.00    +0.000 A 
ATOM     29  N   UNL     1       2.930   8.390  17.830  0.00  0.00    +0.000 NA
ATOM     30  C   UNL     1       3.059   7.215  18.403  0.00  0.00    +0.000 A 
ENDBRANCH  25  26
ENDBRANCH  20  25
ENDBRANCH   3  18
TORSDOF 6
ENDMDL
MODEL 4
REMARK VINA RESULT:      -7.0      0.986      1.414
REMARK  Name = 
REMARK  6 active torsions:
REMARK  status: ('A' for Active; 'I' for Inactive)
REMARK    1  A    between atoms: C_2  and  C_16
REMARK    2  A    between atoms: N_3  and  C_4
REMARK    3  A    between atoms: C_6  and  C_7
REMARK    4  A    between atoms: C_7  and  N_8
REMARK    5  A    between atoms: C_14  and  O_15
REMARK    6  A    between atoms: C_16  and  C_17
REMARK                            x       y       z     vdW  Elec       q    Type
REMARK                         _______ _______ _______ _____ _____    ______ ____
ROOT
ATOM      1  O   UNL     1       4.819   5.685  19.924  0.00  0.00    +0.000 OA
ATOM      2  C   UNL     1       4.045   5.995  19.015  0.00  0.00    +0.000 C 
ATOM      3  N   UNL     1       4.530   6.452  17.798  0.00  0.00    +0.000 N 
ATOM      4  H   UNL     1       3.874   6.674  17.061  0.00  0.00    +0.000 HD
ENDROOT
BRANCH   2   5
ATOM      5  C   UNL     1       2.452   5.947  19.127  0.00  0.00    +0.000 C 
ATOM      6  C   UNL     1       1.840   4.869  20.120  0.00  0.00    +0.000 C 
ATOM      7  C   UNL     1       1.781   3.931  18.939  0.00  0.00    +0.000 C 
ATOM      8  C   UNL     1       2.865   2.881  18.815  0.00  0.00    +0.000 C 
ATOM      9  C   UNL     1       1.806   1.867  19.314  0.00  0.00    +0.000 C 
ATOM     10  C   UNL     1       0.711   2.873  18.876  0.00  0.00    +0.000 C 
ATOM     11  C   UNL     1       1.762   5.088  17.977  0.00  0.00    +0.000 C 
BRANCH   5  12
ATOM     12  C   UNL     1       1.936   7.451  19.290  0.00  0.00    +0.000 A 
ATOM     13  C   UNL     1       1.857   8.351  18.211  0.00  0.00    +0.000 A 
ATOM     14  C   UNL     1       1.372   9.646  18.381  0.00  0.00    +0.000 A 
ATOM     15  C   UNL     1       0.979  10.036  19.647  0.00  0.00    +0.000 A 
ATOM     16  N   UNL     1       1.048   9.232  20.725  0.00  0.00    +0.000 NA
ATOM     17  C   UNL     1       1.521   7.979  20.518  0.00  0.00    +0.000 A 
ENDBRANCH   5  12
ENDBRANCH   2   5
BRANCH   3  18
ATOM     18  C   UNL     1       5.964   6.593  17.554  0.00  0.00    +0.000 C 
ATOM     19  C   UNL     1       6.318   6.220  16.103  0.00  0.00    +0.000 C 
ATOM     20  C   UNL     1       6.891   4.789  16.134  0.00  0.00    +0.000 C 
ATOM     21  C   UNL     1       6.785   4.330  17.595  0.00  0.00    +0.000 C 
ATOM     22  C   UNL     1       6.794   5.620  18.405  0.00  0.00    +0.000 C 
BRANCH  22  23
ATOM     23  O   UNL     1       8.132   6.073  18.588  0.00  0.00    +0.000 OA
ATOM     24  H   UNL     1       8.395   6.625  17.832  0.00  0.00    +0.000 HD
ENDBRANCH  22  23
BRANCH  20  25
ATOM     25  C   UNL     1       6.192   3.809  15.186  0.00  0.00    +0.000 C 
BRANCH  25  26
ATOM     26  N   UNL     1       6.532   3.984  13.789  0.00  0.00    +0.000 N 
ATOM     27  C   UNL     1       7.443   4.861  13.273  0.00  0.00    +0.000 A 
ATOM     28  C   UNL     1       7.422   4.637  11.916  0.00  0.00    +0.000 A 
ATOM     29  N   UNL     1       6.541   3.635  11.603  0.00  0.00    +0.000 NA
ATOM     30  C   UNL     1       6.028   3.253  12.751  0.00  0.00    +0.000 A 
ENDBRANCH  25  26
ENDBRANCH  20  25
ENDBRANCH   3  18
TORSDOF 6
ENDMDL
MODEL 5
REMARK VINA RESULT:      -7.0      2.951      4.802
REMARK  Name = 
REMARK  6 active torsions:
REMARK  status: ('A' for Active; 'I' for Inactive)
REMARK    1  A    between atoms: C_2  and  C_16
REMARK    2  A    between atoms: N_3  and  C_4
REMARK    3  A    between atoms: C_6  and  C_7
REMARK    4  A    between atoms: C_7  and  N_8
REMARK    5  A    between atoms: C_14  and  O_15
REMARK    6  A    between atoms: C_16  and  C_17
REMARK                            x       y       z     vdW  Elec       q    Type
REMARK                         _______ _______ _______ _____ _____    ______ ____
ROOT
ATOM      1  O   UNL     1       4.563   4.818  20.443  0.00  0.00    +0.000 OA
ATOM      2  C   UNL     1       4.092   5.029  19.323  0.00  0.00    +0.000 C 
ATOM      3  N   UNL     1       4.919   5.108  18.212  0.00  0.00    +0.000 N 
ATOM      4  H   UNL     1       4.504   5.255  17.301  0.00  0.00    +0.000 HD
ENDROOT
BRANCH   2   5
ATOM      5  C   UNL     1       2.541   5.262  19.022  0.00  0.00    +0.000 C 
ATOM      6  C   UNL     1       1.512   4.412  19.885  0.00  0.00    +0.000 C 
ATOM      7  C   UNL     1       1.565   3.380  18.786  0.00  0.00    +0.000 C 
ATOM      8  C   UNL     1       2.427   2.155  19.008  0.00  0.00    +0.000 C 
ATOM      9  C   UNL     1       1.106   1.392  19.276  0.00  0.00    +0.000 C 
ATOM     10  C   UNL     1       0.361   2.517  18.511  0.00  0.00    +0.000 C 
ATOM     11  C   UNL     1       2.000   4.415  17.786  0.00  0.00    +0.000 C 
BRANCH   5  12
ATOM     12  C   UNL     1       2.295   6.840  18.958  0.00  0.00    +0.000 A 
ATOM     13  C   UNL     1       2.514   7.598  17.794  0.00  0.00    +0.000 A 
ATOM     14  C   UNL     1       2.259   8.968  17.762  0.00  0.00    +0.000 A 
ATOM     15  C   UNL     1       1.796   9.574  18.913  0.00  0.00    +0.000 A 
ATOM     16  N   UNL     1       1.585   8.910  20.066  0.00  0.00    +0.000 NA
ATOM     17  C   UNL     1       1.839   7.580  20.055  0.00  0.00    +0.000 A 
ENDBRANCH   5  12
ENDBRANCH   2   5
BRANCH   3  18
ATOM     18  C   UNL     1       6.368   4.959  18.328  0.00  0.00    +0.000 C 
ATOM     19  C   UNL     1       7.018   6.251  18.853  0.00  0.00    +0.000 C 
ATOM     20  C   UNL     1       7.615   6.981  17.632  0.00  0.00    +0.000 C 
ATOM     21  C   UNL     1       7.229   6.134  16.411  0.00  0.00    +0.000 C 
ATOM     22  C   UNL     1       7.037   4.728  16.964  0.00  0.00    +0.000 C 
BRANCH  22  23
ATOM     23  O   UNL     1       8.297   4.075  17.087  0.00  0.00    +0.000 OA
ATOM     24  H   UNL     1       8.832   4.525  17.762  0.00  0.00    +0.000 HD
ENDBRANCH  22  23
BRANCH  20  25
ATOM     25  C   UNL     1       7.150   8.433  17.477  0.00  0.00    +0.000 C 
BRANCH  25  26
ATOM     26  N   UNL     1       8.058   9.414  18.036  0.00  0.00    +0.000 N 
ATOM     27  C   UNL     1       8.957   9.214  19.044  0.00  0.00    +0.000 A 
ATOM     28  C   UNL     1       9.591  10.425  19.199  0.00  0.00    +0.000 A 
ATOM     29  N   UNL     1       9.115  11.341  18.298  0.00  0.00    +0.000 NA
ATOM     30  C   UNL     1       8.201  10.702  17.604  0.00  0.00    +0.000 A 
ENDBRANCH  25  26
ENDBRANCH  20  25
ENDBRANCH   3  18
TORSDOF 6
ENDMDL
MODEL 6
REMARK VINA RESULT:      -7.0      1.845      7.423
REMARK  Name = 
REMARK  6 active torsions:
REMARK  status: ('A' for Active; 'I' for Inactive)
REMARK    1  A    between atoms: C_2  and  C_16
REMARK    2  A    between atoms: N_3  and  C_4
REMARK    3  A    between atoms: C_6  and  C_7
REMARK    4  A    between atoms: C_7  and  N_8
REMARK    5  A    between atoms: C_14  and  O_15
REMARK    6  A    between atoms: C_16  and  C_17
REMARK                            x       y       z     vdW  Elec       q    Type
REMARK                         _______ _______ _______ _____ _____    ______ ____
ROOT
ATOM      1  O   UNL     1       5.034   2.576  16.421  0.00  0.00    +0.000 OA
ATOM      2  C   UNL     1       5.097   3.802  16.530  0.00  0.00    +0.000 C 
ATOM      3  N   UNL     1       4.008   4.528  16.992  0.00  0.00    +0.000 N 
ATOM      4  H   UNL     1       4.096   5.531  17.098  0.00  0.00    +0.000 HD
ENDROOT
BRANCH   2   5
ATOM      5  C   UNL     1       6.371   4.682  16.138  0.00  0.00    +0.000 C 
ATOM      6  C   UNL     1       7.655   4.526  17.061  0.00  0.00    +0.000 C 
ATOM      7  C   UNL     1       7.115   5.678  17.872  0.00  0.00    +0.000 C 
ATOM      8  C   UNL     1       6.411   5.358  19.173  0.00  0.00    +0.000 C 
ATOM      9  C   UNL     1       7.705   5.834  19.879  0.00  0.00    +0.000 C 
ATOM     10  C   UNL     1       8.068   6.603  18.583  0.00  0.00    +0.000 C 
ATOM     11  C   UNL     1       6.311   6.171  16.700  0.00  0.00    +0.000 C 
BRANCH   5  12
ATOM     12  C   UNL     1       6.594   4.531  14.563  0.00  0.00    +0.000 A 
ATOM     13  C   UNL     1       7.553   5.276  13.853  0.00  0.00    +0.000 A 
ATOM     14  C   UNL     1       7.743   5.097  12.484  0.00  0.00    +0.000 A 
ATOM     15  C   UNL     1       6.952   4.173  11.830  0.00  0.00    +0.000 A 
ATOM     16  N   UNL     1       6.003   3.442  12.445  0.00  0.00    +0.000 NA
ATOM     17  C   UNL     1       5.852   3.642  13.776  0.00  0.00    +0.000 A 
ENDBRANCH   5  12
ENDBRANCH   2   5
BRANCH   3  18
ATOM     18  C   UNL     1       2.753   3.873  17.352  0.00  0.00    +0.000 C 
ATOM     19  C   UNL     1       1.772   4.869  17.995  0.00  0.00    +0.000 C 
ATOM     20  C   UNL     1       1.838   4.645  19.520  0.00  0.00    +0.000 C 
ATOM     21  C   UNL     1       2.917   3.574  19.736  0.00  0.00    +0.000 C 
ATOM     22  C   UNL     1       2.952   2.794  18.428  0.00  0.00    +0.000 C 
BRANCH  22  23
ATOM     23  O   UNL     1       1.911   1.821  18.412  0.00  0.00    +0.000 OA
ATOM     24  H   UNL     1       1.082   2.226  18.716  0.00  0.00    +0.000 HD
ENDBRANCH  22  23
BRANCH  20  25
ATOM     25  C   UNL     1       2.134   5.911  20.331  0.00  0.00    +0.000 C 
BRANCH  25  26
ATOM     26  N   UNL     1       2.099   7.136  19.561  0.00  0.00    +0.000 N 
ATOM     27  C   UNL     1       2.785   7.397  18.408  0.00  0.00    +0.000 A 
ATOM     28  C   UNL     1       2.408   8.672  18.052  0.00  0.00    +0.000 A 
ATOM     29  N   UNL     1       1.498   9.176  18.944  0.00  0.00    +0.000 NA
ATOM     30  C   UNL     1       1.323   8.226  19.835  0.00  0.00    +0.000 A 
ENDBRANCH  25  26
ENDBRANCH  20  25
ENDBRANCH   3  18
TORSDOF 6
ENDMDL
MODEL 7
REMARK VINA RESULT:      -6.9      1.119      1.581
REMARK  Name = 
REMARK  6 active torsions:
REMARK  status: ('A' for Active; 'I' for Inactive)
REMARK    1  A    between atoms: C_2  and  C_16
REMARK    2  A    between atoms: N_3  and  C_4
REMARK    3  A    between atoms: C_6  and  C_7
REMARK    4  A    between atoms: C_7  and  N_8
REMARK    5  A    between atoms: C_14  and  O_15
REMARK    6  A    between atoms: C_16  and  C_17
REMARK                            x       y       z     vdW  Elec       q    Type
REMARK                         _______ _______ _______ _____ _____    ______ ____
ROOT
ATOM      1  O   UNL     1       4.860   5.575  19.894  0.00  0.00    +0.000 OA
ATOM      2  C   UNL     1       4.026   5.913  19.051  0.00  0.00    +0.000 C 
ATOM      3  N   UNL     1       4.425   6.465  17.842  0.00  0.00    +0.000 N 
ATOM      4  H   UNL     1       3.722   6.709  17.157  0.00  0.00    +0.000 HD
ENDROOT
BRANCH   2   5
ATOM      5  C   UNL     1       2.444   5.797  19.244  0.00  0.00    +0.000 C 
ATOM      6  C   UNL     1       1.923   4.602  20.151  0.00  0.00    +0.000 C 
ATOM      7  C   UNL     1       1.822   3.789  18.884  0.00  0.00    +0.000 C 
ATOM      8  C   UNL     1       2.927   2.796  18.591  0.00  0.00    +0.000 C 
ATOM      9  C   UNL     1       1.930   1.699  19.040  0.00  0.00    +0.000 C 
ATOM     10  C   UNL     1       0.782   2.706  18.770  0.00  0.00    +0.000 C 
ATOM     11  C   UNL     1       1.714   5.036  18.051  0.00  0.00    +0.000 C 
BRANCH   5  12
ATOM     12  C   UNL     1       1.894   7.257  19.591  0.00  0.00    +0.000 A 
ATOM     13  C   UNL     1       1.409   7.607  20.865  0.00  0.00    +0.000 A 
ATOM     14  C   UNL     1       0.967   8.899  21.143  0.00  0.00    +0.000 A 
ATOM     15  C   UNL     1       1.002   9.835  20.128  0.00  0.00    +0.000 A 
ATOM     16  N   UNL     1       1.434   9.560  18.882  0.00  0.00    +0.000 NA
ATOM     17  C   UNL     1       1.861   8.296  18.653  0.00  0.00    +0.000 A 
ENDBRANCH   5  12
ENDBRANCH   2   5
BRANCH   3  18
ATOM     18  C   UNL     1       5.838   6.675  17.531  0.00  0.00    +0.000 C 
ATOM     19  C   UNL     1       6.146   6.295  16.072  0.00  0.00    +0.000 C 
ATOM     20  C   UNL     1       6.795   4.895  16.101  0.00  0.00    +0.000 C 
ATOM     21  C   UNL     1       6.778   4.459  17.572  0.00  0.00    +0.000 C 
ATOM     22  C   UNL     1       6.755   5.763  18.360  0.00  0.00    +0.000 C 
BRANCH  22  23
ATOM     23  O   UNL     1       8.074   6.288  18.474  0.00  0.00    +0.000 OA
ATOM     24  H   UNL     1       8.634   5.915  17.773  0.00  0.00    +0.000 HD
ENDBRANCH  22  23
BRANCH  20  25
ATOM     25  C   UNL     1       6.108   3.863  15.201  0.00  0.00    +0.000 C 
BRANCH  25  26
ATOM     26  N   UNL     1       6.469   3.954  13.802  0.00  0.00    +0.000 N 
ATOM     27  C   UNL     1       5.856   3.325  12.756  0.00  0.00    +0.000 A 
ATOM     28  C   UNL     1       6.544   3.740  11.640  0.00  0.00    +0.000 A 
ATOM     29  N   UNL     1       7.539   4.618  11.981  0.00  0.00    +0.000 NA
ATOM     30  C   UNL     1       7.464   4.737  13.287  0.00  0.00    +0.000 A 
ENDBRANCH  25  26
ENDBRANCH  20  25
ENDBRANCH   3  18
TORSDOF 6
ENDMDL
MODEL 8
REMARK VINA RESULT:      -6.9      1.275      3.880
REMARK  Name = 
REMARK  6 active torsions:
REMARK  status: ('A' for Active; 'I' for Inactive)
REMARK    1  A    between atoms: C_2  and  C_16
REMARK    2  A    between atoms: N_3  and  C_4
REMARK    3  A    between atoms: C_6  and  C_7
REMARK    4  A    between atoms: C_7  and  N_8
REMARK    5  A    between atoms: C_14  and  O_15
REMARK    6  A    between atoms: C_16  and  C_17
REMARK                            x       y       z     vdW  Elec       q    Type
REMARK                         _______ _______ _______ _____ _____    ______ ____
ROOT
ATOM      1  O   UNL     1       4.989   5.847  19.357  0.00  0.00    +0.000 OA
ATOM      2  C   UNL     1       4.151   5.898  18.454  0.00  0.00    +0.000 C 
ATOM      3  N   UNL     1       4.541   5.867  17.123  0.00  0.00    +0.000 N 
ATOM      4  H   UNL     1       3.832   5.883  16.402  0.00  0.00    +0.000 HD
ENDROOT
BRANCH   2   5
ATOM      5  C   UNL     1       2.576   6.034  18.687  0.00  0.00    +0.000 C 
ATOM      6  C   UNL     1       1.772   6.900  17.627  0.00  0.00    +0.000 C 
ATOM      7  C   UNL     1       2.004   8.083  18.535  0.00  0.00    +0.000 C 
ATOM      8  C   UNL     1       3.106   9.053  18.164  0.00  0.00    +0.000 C 
ATOM      9  C   UNL     1       1.979  10.001  17.684  0.00  0.00    +0.000 C 
ATOM     10  C   UNL     1       0.996   9.202  18.579  0.00  0.00    +0.000 C 
ATOM     11  C   UNL     1       2.186   7.180  19.723  0.00  0.00    +0.000 C 
BRANCH   5  12
ATOM     12  C   UNL     1       2.009   4.574  19.004  0.00  0.00    +0.000 A 
ATOM     13  C   UNL     1       1.773   4.115  20.312  0.00  0.00    +0.000 A 
ATOM     14  C   UNL     1       1.247   2.847  20.552  0.00  0.00    +0.000 A 
ATOM     15  C   UNL     1       0.973   2.037  19.467  0.00  0.00    +0.000 A 
ATOM     16  N   UNL     1       1.194   2.407  18.192  0.00  0.00    +0.000 NA
ATOM     17  C   UNL     1       1.701   3.648  18.000  0.00  0.00    +0.000 A 
ENDBRANCH   5  12
ENDBRANCH   2   5
BRANCH   3  18
ATOM     18  C   UNL     1       5.951   5.787  16.745  0.00  0.00    +0.000 C 
ATOM     19  C   UNL     1       6.129   5.976  15.228  0.00  0.00    +0.000 C 
ATOM     20  C   UNL     1       6.320   4.571  14.619  0.00  0.00    +0.000 C 
ATOM     21  C   UNL     1       6.171   3.588  15.788  0.00  0.00    +0.000 C 
ATOM     22  C   UNL     1       6.546   4.398  17.023  0.00  0.00    +0.000 C 
BRANCH  22  23
ATOM     23  O   UNL     1       7.962   4.439  17.168  0.00  0.00    +0.000 OA
ATOM     24  H   UNL     1       8.191   4.531  18.108  0.00  0.00    +0.000 HD
ENDBRANCH  22  23
BRANCH  20  25
ATOM     25  C   UNL     1       5.351   4.240  13.480  0.00  0.00    +0.000 C 
BRANCH  25  26
ATOM     26  N   UNL     1       5.889   3.340  12.481  0.00  0.00    +0.000 N 
ATOM     27  C   UNL     1       7.178   3.296  12.030  0.00  0.00    +0.000 A 
ATOM     28  C   UNL     1       7.197   2.272  11.111  0.00  0.00    +0.000 A 
ATOM     29  N   UNL     1       5.963   1.685  11.012  0.00  0.00    +0.000 NA
ATOM     30  C   UNL     1       5.198   2.341  11.856  0.00  0.00    +0.000 A 
ENDBRANCH  25  26
ENDBRANCH  20  25
ENDBRANCH   3  18
TORSDOF 6
ENDMDL
MODEL 9
REMARK VINA RESULT:      -6.9      3.318      5.118
REMARK  Name = 
REMARK  6 active torsions:
REMARK  status: ('A' for Active; 'I' for Inactive)
REMARK    1  A    between atoms: C_2  and  C_16
REMARK    2  A    between atoms: N_3  and  C_4
REMARK    3  A    between atoms: C_6  and  C_7
REMARK    4  A    between atoms: C_7  and  N_8
REMARK    5  A    between atoms: C_14  and  O_15
REMARK    6  A    between atoms: C_16  and  C_17
REMARK                            x       y       z     vdW  Elec       q    Type
REMARK                         _______ _______ _______ _____ _____    ______ ____
ROOT
ATOM      1  O   UNL     1       4.384   4.606  17.458  0.00  0.00    +0.000 OA
ATOM      2  C   UNL     1       4.281   5.214  18.526  0.00  0.00    +0.000 C 
ATOM      3  N   UNL     1       5.410   5.661  19.197  0.00  0.00    +0.000 N 
ATOM      4  H   UNL     1       5.297   6.181  20.057  0.00  0.00    +0.000 HD
ENDROOT
BRANCH   2   5
ATOM      5  C   UNL     1       2.898   5.523  19.263  0.00  0.00    +0.000 C 
ATOM      6  C   UNL     1       2.782   5.067  20.780  0.00  0.00    +0.000 C 
ATOM      7  C   UNL     1       2.212   3.768  20.264  0.00  0.00    +0.000 C 
ATOM      8  C   UNL     1       3.132   2.568  20.202  0.00  0.00    +0.000 C 
ATOM      9  C   UNL     1       2.399   2.060  21.468  0.00  0.00    +0.000 C 
ATOM     10  C   UNL     1       1.222   3.001  21.101  0.00  0.00    +0.000 C 
ATOM     11  C   UNL     1       1.774   4.428  18.985  0.00  0.00    +0.000 C 
BRANCH   5  12
ATOM     12  C   UNL     1       2.505   7.036  18.933  0.00  0.00    +0.000 A 
ATOM     13  C   UNL     1       2.854   7.669  17.726  0.00  0.00    +0.000 A 
ATOM     14  C   UNL     1       2.467   8.981  17.457  0.00  0.00    +0.000 A 
ATOM     15  C   UNL     1       1.738   9.658  18.415  0.00  0.00    +0.000 A 
ATOM     16  N   UNL     1       1.389   9.118  19.598  0.00  0.00    +0.000 NA
ATOM     17  C   UNL     1       1.779   7.840  19.821  0.00  0.00    +0.000 A 
ENDBRANCH   5  12
ENDBRANCH   2   5
BRANCH   3  18
ATOM     18  C   UNL     1       6.753   5.420  18.673  0.00  0.00    +0.000 C 
ATOM     19  C   UNL     1       7.677   6.621  18.943  0.00  0.00    +0.000 C 
ATOM     20  C   UNL     1       7.766   7.424  17.629  0.00  0.00    +0.000 C 
ATOM     21  C   UNL     1       6.826   6.715  16.644  0.00  0.00    +0.000 C 
ATOM     22  C   UNL     1       6.760   5.277  17.143  0.00  0.00    +0.000 C 
BRANCH  22  23
ATOM     23  O   UNL     1       7.890   4.546  16.677  0.00  0.00    +0.000 OA
ATOM     24  H   UNL     1       7.955   3.705  17.159  0.00  0.00    +0.000 HD
ENDBRANCH  22  23
BRANCH  20  25
ATOM     25  C   UNL     1       7.411   8.908  17.772  0.00  0.00    +0.000 C 
BRANCH  25  26
ATOM     26  N   UNL     1       8.495   9.737  18.258  0.00  0.00    +0.000 N 
ATOM     27  C   UNL     1       9.081  10.783  17.602  0.00  0.00    +0.000 A 
ATOM     28  C   UNL     1      10.035  11.257  18.473  0.00  0.00    +0.000 A 
ATOM     29  N   UNL     1      10.025  10.541  19.641  0.00  0.00    +0.000 NA
ATOM     30  C   UNL     1       9.081   9.640  19.488  0.00  0.00    +0.000 A 
ENDBRANCH  25  26
ENDBRANCH  20  25
ENDBRANCH   3  18
TORSDOF 6
ENDMDL
