MODEL 1
REMARK VINA RESULT:      -8.8      0.000      0.000
REMARK  Name = 
REMARK  4 active torsions:
REMARK  status: ('A' for Active; 'I' for Inactive)
REMARK    1  A    between atoms: C_1  and  C_2
REMARK    2  A    between atoms: C_4  and  C_5
REMARK    3  A    between atoms: C_11  and  C_12
REMARK    4  A    between atoms: N_23  and  C_24
REMARK                            x       y       z     vdW  Elec       q    Type
REMARK                         _______ _______ _______ _____ _____    ______ ____
ROOT
ATOM      1  C   UNL     1       4.631   3.382  19.244  0.00  0.00    +0.000 C 
ATOM      2  O   UNL     1       5.065   2.300  19.643  0.00  0.00    +0.000 OA
ATOM      3  N   UNL     1       3.439   3.918  19.780  0.00  0.00    +0.000 N 
ATOM      4  C   UNL     1       2.794   3.166  20.850  0.00  0.00    +0.000 C 
ATOM      5  C   UNL     1       1.288   3.408  20.860  0.00  0.00    +0.000 C 
ATOM      6  C   UNL     1       0.960   4.893  20.935  0.00  0.00    +0.000 C 
ATOM      7  C   UNL     1       1.718   5.707  19.868  0.00  0.00    +0.000 C 
ATOM      8  C   UNL     1       3.208   5.356  19.831  0.00  0.00    +0.000 C 
ENDROOT
BRANCH   7   9
ATOM      9  C   UNL     1       1.600   7.174  20.171  0.00  0.00    +0.000 A 
ATOM     10  N   UNL     1       1.342   7.637  21.378  0.00  0.00    +0.000 NA
ATOM     11  C   UNL     1       0.887   8.931  21.269  0.00  0.00    +0.000 A 
ATOM     12  C   UNL     1       0.300   9.696  22.290  0.00  0.00    +0.000 A 
ATOM     13  C   UNL     1      -0.616  10.656  21.891  0.00  0.00    +0.000 A 
ATOM     14  C   UNL     1      -0.413  11.289  20.679  0.00  0.00    +0.000 A 
ATOM     15  C   UNL     1       0.539  10.806  19.769  0.00  0.00    +0.000 A 
ATOM     16  C   UNL     1       1.011   9.510  20.014  0.00  0.00    +0.000 A 
ATOM     17  S   UNL     1       1.791   8.384  18.965  0.00  0.00    +0.000 S 
ENDBRANCH   7   9
BRANCH   1  21
ATOM     18  C   UNL     1       7.622   6.661  17.117  0.00  0.00    +0.000 C 
ATOM     19  C   UNL     1       6.782   5.458  17.313  0.00  0.00    +0.000 A 
ATOM     20  N   UNL     1       6.289   5.088  18.491  0.00  0.00    +0.000 NA
ATOM     21  C   UNL     1       5.355   4.127  18.180  0.00  0.00    +0.000 A 
ATOM     22  N   UNL     1       5.229   3.906  16.859  0.00  0.00    +0.000 NA
ATOM     23  N   UNL     1       6.220   4.681  16.336  0.00  0.00    +0.000 N 
BRANCH  23  24
ATOM     24  C   UNL     1       6.552   4.582  14.955  0.00  0.00    +0.000 A 
ATOM     25  C   UNL     1       7.589   5.364  14.436  0.00  0.00    +0.000 A 
ATOM     26  C   UNL     1       7.918   5.275  13.082  0.00  0.00    +0.000 A 
ATOM     27  C   UNL     1       7.189   4.429  12.254  0.00  0.00    +0.000 A 
ATOM     28  F   UNL     1       7.487   4.356  10.953  0.00  0.00    +0.000 F 
ATOM     29  C   UNL     1       6.142   3.665  12.751  0.00  0.00    +0.000 A 
ATOM     30  C   UNL     1       5.818   3.736  14.112  0.00  0.00    +0.000 A 
ENDBRANCH  23  24
ENDBRANCH   1  21
TORSDOF 3
ENDMDL
MODEL 2
REMARK VINA RESULT:      -8.1      5.746      9.343
REMARK  Name = 
REMARK  4 active torsions:
REMARK  status: ('A' for Active; 'I' for Inactive)
REMARK    1  A    between atoms: C_1  and  C_2
REMARK    2  A    between atoms: C_4  and  C_5
REMARK    3  A    between atoms: C_11  and  C_12
REMARK    4  A    between atoms: N_23  and  C_24
REMARK                            x       y       z     vdW  Elec       q    Type
REMARK                         _______ _______ _______ _____ _____    ______ ____
ROOT
ATOM      1  C   UNL     1       0.392  13.226  21.571  0.00  0.00    +0.000 C 
ATOM      2  O   UNL     1       1.460  13.834  21.655  0.00  0.00    +0.000 OA
ATOM      3  N   UNL     1      -0.733  13.647  22.313  0.00  0.00    +0.000 N 
ATOM      4  C   UNL     1      -0.583  14.849  23.123  0.00  0.00    +0.000 C 
ATOM      5  C   UNL     1      -1.514  14.817  24.331  0.00  0.00    +0.000 C 
ATOM      6  C   UNL     1      -2.961  14.591  23.917  0.00  0.00    +0.000 C 
ATOM      7  C   UNL     1      -3.111  13.378  22.979  0.00  0.00    +0.000 C 
ATOM      8  C   UNL     1      -2.090  13.406  21.838  0.00  0.00    +0.000 C 
ENDROOT
BRANCH   7   9
ATOM      9  C   UNL     1      -4.484  13.378  22.366  0.00  0.00    +0.000 A 
ATOM     10  N   UNL     1      -5.195  12.280  22.203  0.00  0.00    +0.000 NA
ATOM     11  C   UNL     1      -6.177  12.523  21.270  0.00  0.00    +0.000 A 
ATOM     12  C   UNL     1      -6.997  11.561  20.657  0.00  0.00    +0.000 A 
ATOM     13  C   UNL     1      -7.444  11.859  19.379  0.00  0.00    +0.000 A 
ATOM     14  C   UNL     1      -7.696  13.182  19.067  0.00  0.00    +0.000 A 
ATOM     15  C   UNL     1      -7.279  14.213  19.923  0.00  0.00    +0.000 A 
ATOM     16  C   UNL     1      -6.343  13.849  20.899  0.00  0.00    +0.000 A 
ATOM     17  S   UNL     1      -5.252  14.817  21.821  0.00  0.00    +0.000 S 
ENDBRANCH   7   9
BRANCH   1  21
ATOM     18  C   UNL     1      -1.183  10.261  17.971  0.00  0.00    +0.000 C 
ATOM     19  C   UNL     1      -0.320  10.844  19.023  0.00  0.00    +0.000 A 
ATOM     20  N   UNL     1      -0.560  12.014  19.607  0.00  0.00    +0.000 NA
ATOM     21  C   UNL     1       0.284  12.030  20.693  0.00  0.00    +0.000 A 
ATOM     22  N   UNL     1       1.017  10.908  20.822  0.00  0.00    +0.000 NA
ATOM     23  N   UNL     1       0.697  10.218  19.691  0.00  0.00    +0.000 N 
BRANCH  23  24
ATOM     24  C   UNL     1       1.417   9.039  19.346  0.00  0.00    +0.000 A 
ATOM     25  C   UNL     1       1.561   8.016  20.288  0.00  0.00    +0.000 A 
ATOM     26  C   UNL     1       2.268   6.859  19.958  0.00  0.00    +0.000 A 
ATOM     27  C   UNL     1       2.852   6.748  18.700  0.00  0.00    +0.000 A 
ATOM     28  F   UNL     1       3.547   5.651  18.387  0.00  0.00    +0.000 F 
ATOM     29  C   UNL     1       2.737   7.766  17.764  0.00  0.00    +0.000 A 
ATOM     30  C   UNL     1       2.013   8.922  18.082  0.00  0.00    +0.000 A 
ENDBRANCH  23  24
ENDBRANCH   1  21
TORSDOF 3
ENDMDL
MODEL 3
REMARK VINA RESULT:      -7.7      5.583      9.099
REMARK  Name = 
REMARK  4 active torsions:
REMARK  status: ('A' for Active; 'I' for Inactive)
REMARK    1  A    between atoms: C_1  and  C_2
REMARK    2  A    between atoms: C_4  and  C_5
REMARK    3  A    between atoms: C_11  and  C_12
REMARK    4  A    between atoms: N_23  and  C_24
REMARK                            x       y       z     vdW  Elec       q    Type
REMARK                         _______ _______ _______ _____ _____    ______ ____
ROOT
ATOM      1  C   UNL     1       0.700  13.344  20.486  0.00  0.00    +0.000 C 
ATOM      2  O   UNL     1       1.534  14.133  20.041  0.00  0.00    +0.000 OA
ATOM      3  N   UNL     1      -0.109  13.700  21.588  0.00  0.00    +0.000 N 
ATOM      4  C   UNL     1       0.054  15.046  22.124  0.00  0.00    +0.000 C 
ATOM      5  C   UNL     1      -0.289  15.090  23.609  0.00  0.00    +0.000 C 
ATOM      6  C   UNL     1      -1.682  14.538  23.879  0.00  0.00    +0.000 C 
ATOM      7  C   UNL     1      -1.893  13.157  23.229  0.00  0.00    +0.000 C 
ATOM      8  C   UNL     1      -1.442  13.138  21.766  0.00  0.00    +0.000 C 
ENDROOT
BRANCH   7   9
ATOM      9  C   UNL     1      -3.352  12.797  23.264  0.00  0.00    +0.000 A 
ATOM     10  N   UNL     1      -4.045  12.513  22.179  0.00  0.00    +0.000 NA
ATOM     11  C   UNL     1      -5.385  12.641  22.465  0.00  0.00    +0.000 A 
ATOM     12  C   UNL     1      -6.437  12.642  21.533  0.00  0.00    +0.000 A 
ATOM     13  C   UNL     1      -7.565  13.368  21.881  0.00  0.00    +0.000 A 
ATOM     14  C   UNL     1      -7.917  13.431  23.216  0.00  0.00    +0.000 A 
ATOM     15  C   UNL     1      -7.032  12.990  24.212  0.00  0.00    +0.000 A 
ATOM     16  C   UNL     1      -5.705  12.802  23.805  0.00  0.00    +0.000 A 
ATOM     17  S   UNL     1      -4.250  12.724  24.729  0.00  0.00    +0.000 S 
ENDBRANCH   7   9
BRANCH   1  21
ATOM     18  C   UNL     1      -1.010   9.757  17.580  0.00  0.00    +0.000 C 
ATOM     19  C   UNL     1      -0.116  10.517  18.482  0.00  0.00    +0.000 A 
ATOM     20  N   UNL     1      -0.315  11.787  18.820  0.00  0.00    +0.000 NA
ATOM     21  C   UNL     1       0.547  11.998  19.870  0.00  0.00    +0.000 A 
ATOM     22  N   UNL     1       1.252  10.906  20.216  0.00  0.00    +0.000 NA
ATOM     23  N   UNL     1       0.896  10.010  19.253  0.00  0.00    +0.000 N 
BRANCH  23  24
ATOM     24  C   UNL     1       1.579   8.766  19.146  0.00  0.00    +0.000 A 
ATOM     25  C   UNL     1       1.598   7.892  20.237  0.00  0.00    +0.000 A 
ATOM     26  C   UNL     1       2.269   6.671  20.141  0.00  0.00    +0.000 A 
ATOM     27  C   UNL     1       2.941   6.349  18.967  0.00  0.00    +0.000 A 
ATOM     28  F   UNL     1       3.601   5.191  18.877  0.00  0.00    +0.000 F 
ATOM     29  C   UNL     1       2.950   7.218  17.884  0.00  0.00    +0.000 A 
ATOM     30  C   UNL     1       2.263   8.436  17.968  0.00  0.00    +0.000 A 
ENDBRANCH  23  24
ENDBRANCH   1  21
TORSDOF 3
ENDMDL
MODEL 4
REMARK VINA RESULT:      -7.6      3.629      9.035
REMARK  Name = 
REMARK  4 active torsions:
REMARK  status: ('A' for Active; 'I' for Inactive)
REMARK    1  A    between atoms: C_1  and  C_2
REMARK    2  A    between atoms: C_4  and  C_5
REMARK    3  A    between atoms: C_11  and  C_12
REMARK    4  A    between atoms: N_23  and  C_24
REMARK                            x       y       z     vdW  Elec       q    Type
REMARK                         _______ _______ _______ _____ _____    ______ ____
ROOT
ATOM      1  C   UNL     1       1.927   5.277  20.236  0.00  0.00    +0.000 C 
ATOM      2  O   UNL     1       1.121   4.695  20.963  0.00  0.00    +0.000 OA
ATOM      3  N   UNL     1       2.972   4.563  19.610  0.00  0.00    +0.000 N 
ATOM      4  C   UNL     1       3.011   3.121  19.818  0.00  0.00    +0.000 C 
ATOM      5  C   UNL     1       4.438   2.591  19.722  0.00  0.00    +0.000 C 
ATOM      6  C   UNL     1       5.097   2.991  18.409  0.00  0.00    +0.000 C 
ATOM      7  C   UNL     1       4.971   4.502  18.136  0.00  0.00    +0.000 C 
ATOM      8  C   UNL     1       3.539   5.004  18.341  0.00  0.00    +0.000 C 
ENDROOT
BRANCH   7   9
ATOM      9  C   UNL     1       5.360   4.793  16.713  0.00  0.00    +0.000 A 
ATOM     10  N   UNL     1       4.645   4.396  15.680  0.00  0.00    +0.000 NA
ATOM     11  C   UNL     1       5.435   4.433  14.554  0.00  0.00    +0.000 A 
ATOM     12  C   UNL     1       5.121   3.884  13.300  0.00  0.00    +0.000 A 
ATOM     13  C   UNL     1       6.193   3.468  12.525  0.00  0.00    +0.000 A 
ATOM     14  C   UNL     1       7.378   4.173  12.617  0.00  0.00    +0.000 A 
ATOM     15  C   UNL     1       7.573   5.118  13.635  0.00  0.00    +0.000 A 
ATOM     16  C   UNL     1       6.664   5.060  14.699  0.00  0.00    +0.000 A 
ATOM     17  S   UNL     1       6.779   5.676  16.307  0.00  0.00    +0.000 S 
ENDBRANCH   7   9
BRANCH   1  21
ATOM     18  C   UNL     1       2.063   9.644  17.970  0.00  0.00    +0.000 C 
ATOM     19  C   UNL     1       1.733   8.593  18.959  0.00  0.00    +0.000 A 
ATOM     20  N   UNL     1       2.005   7.304  18.783  0.00  0.00    +0.000 NA
ATOM     21  C   UNL     1       1.812   6.744  20.024  0.00  0.00    +0.000 A 
ATOM     22  N   UNL     1       1.459   7.636  20.968  0.00  0.00    +0.000 NA
ATOM     23  N   UNL     1       1.307   8.782  20.246  0.00  0.00    +0.000 N 
BRANCH  23  24
ATOM     24  C   UNL     1       0.744   9.940  20.853  0.00  0.00    +0.000 A 
ATOM     25  C   UNL     1      -0.106   9.798  21.955  0.00  0.00    +0.000 A 
ATOM     26  C   UNL     1      -0.666  10.929  22.553  0.00  0.00    +0.000 A 
ATOM     27  C   UNL     1      -0.397  12.187  22.026  0.00  0.00    +0.000 A 
ATOM     28  F   UNL     1      -0.947  13.271  22.582  0.00  0.00    +0.000 F 
ATOM     29  C   UNL     1       0.426  12.340  20.917  0.00  0.00    +0.000 A 
ATOM     30  C   UNL     1       1.005  11.211  20.324  0.00  0.00    +0.000 A 
ENDBRANCH  23  24
ENDBRANCH   1  21
TORSDOF 3
ENDMDL
MODEL 5
REMARK VINA RESULT:      -7.6      4.534      7.468
REMARK  Name = 
REMARK  4 active torsions:
REMARK  status: ('A' for Active; 'I' for Inactive)
REMARK    1  A    between atoms: C_1  and  C_2
REMARK    2  A    between atoms: C_4  and  C_5
REMARK    3  A    between atoms: C_11  and  C_12
REMARK    4  A    between atoms: N_23  and  C_24
REMARK                            x       y       z     vdW  Elec       q    Type
REMARK                         _______ _______ _______ _____ _____    ______ ____
ROOT
ATOM      1  C   UNL     1       0.106   9.598  22.052  0.00  0.00    +0.000 C 
ATOM      2  O   UNL     1      -0.122   9.141  23.173  0.00  0.00    +0.000 OA
ATOM      3  N   UNL     1      -0.286  10.914  21.720  0.00  0.00    +0.000 N 
ATOM      4  C   UNL     1      -0.911  11.706  22.771  0.00  0.00    +0.000 C 
ATOM      5  C   UNL     1      -1.866  12.741  22.184  0.00  0.00    +0.000 C 
ATOM      6  C   UNL     1      -1.174  13.618  21.150  0.00  0.00    +0.000 C 
ATOM      7  C   UNL     1      -0.427  12.784  20.092  0.00  0.00    +0.000 C 
ATOM      8  C   UNL     1       0.441  11.696  20.728  0.00  0.00    +0.000 C 
ENDROOT
BRANCH   7   9
ATOM      9  C   UNL     1       0.474  13.678  19.286  0.00  0.00    +0.000 A 
ATOM     10  N   UNL     1       1.586  13.251  18.722  0.00  0.00    +0.000 NA
ATOM     11  C   UNL     1       2.380  14.337  18.431  0.00  0.00    +0.000 A 
ATOM     12  C   UNL     1       3.726  14.300  18.032  0.00  0.00    +0.000 A 
ATOM     13  C   UNL     1       4.501  15.394  18.380  0.00  0.00    +0.000 A 
ATOM     14  C   UNL     1       3.898  16.638  18.416  0.00  0.00    +0.000 A 
ATOM     15  C   UNL     1       2.501  16.759  18.351  0.00  0.00    +0.000 A 
ATOM     16  C   UNL     1       1.779  15.579  18.572  0.00  0.00    +0.000 A 
ATOM     17  S   UNL     1       0.131  15.343  19.028  0.00  0.00    +0.000 S 
ENDBRANCH   7   9
BRANCH   1  21
ATOM     18  C   UNL     1       2.286   8.311  17.831  0.00  0.00    +0.000 C 
ATOM     19  C   UNL     1       1.867   8.288  19.250  0.00  0.00    +0.000 A 
ATOM     20  N   UNL     1       1.244   9.297  19.851  0.00  0.00    +0.000 NA
ATOM     21  C   UNL     1       0.788   8.758  21.031  0.00  0.00    +0.000 A 
ATOM     22  N   UNL     1       1.078   7.452  21.175  0.00  0.00    +0.000 NA
ATOM     23  N   UNL     1       1.857   7.203  20.085  0.00  0.00    +0.000 N 
BRANCH  23  24
ATOM     24  C   UNL     1       2.539   5.960  19.962  0.00  0.00    +0.000 A 
ATOM     25  C   UNL     1       3.793   5.917  19.344  0.00  0.00    +0.000 A 
ATOM     26  C   UNL     1       4.467   4.701  19.217  0.00  0.00    +0.000 A 
ATOM     27  C   UNL     1       3.869   3.535  19.680  0.00  0.00    +0.000 A 
ATOM     28  F   UNL     1       4.501   2.365  19.541  0.00  0.00    +0.000 F 
ATOM     29  C   UNL     1       2.614   3.559  20.274  0.00  0.00    +0.000 A 
ATOM     30  C   UNL     1       1.941   4.778  20.421  0.00  0.00    +0.000 A 
ENDBRANCH  23  24
ENDBRANCH   1  21
TORSDOF 3
ENDMDL
MODEL 6
REMARK VINA RESULT:      -7.6      5.428      9.370
REMARK  Name = 
REMARK  4 active torsions:
REMARK  status: ('A' for Active; 'I' for Inactive)
REMARK    1  A    between atoms: C_1  and  C_2
REMARK    2  A    between atoms: C_4  and  C_5
REMARK    3  A    between atoms: C_11  and  C_12
REMARK    4  A    between atoms: N_23  and  C_24
REMARK                            x       y       z     vdW  Elec       q    Type
REMARK                         _______ _______ _______ _____ _____    ______ ____
ROOT
ATOM      1  C   UNL     1      -0.378  13.352  21.434  0.00  0.00    +0.000 C 
ATOM      2  O   UNL     1      -1.311  13.993  21.921  0.00  0.00    +0.000 OA
ATOM      3  N   UNL     1      -0.235  11.974  21.706  0.00  0.00    +0.000 N 
ATOM      4  C   UNL     1      -1.261  11.349  22.532  0.00  0.00    +0.000 C 
ATOM      5  C   UNL     1      -0.697  10.160  23.302  0.00  0.00    +0.000 C 
ATOM      6  C   UNL     1      -0.030   9.156  22.373  0.00  0.00    +0.000 C 
ATOM      7  C   UNL     1       0.985   9.828  21.428  0.00  0.00    +0.000 C 
ATOM      8  C   UNL     1       0.403  11.073  20.754  0.00  0.00    +0.000 C 
ENDROOT
BRANCH   7   9
ATOM      9  C   UNL     1       1.385   8.865  20.346  0.00  0.00    +0.000 A 
ATOM     10  N   UNL     1       1.592   7.582  20.570  0.00  0.00    +0.000 NA
ATOM     11  C   UNL     1       2.329   7.065  19.530  0.00  0.00    +0.000 A 
ATOM     12  C   UNL     1       2.943   5.802  19.493  0.00  0.00    +0.000 A 
ATOM     13  C   UNL     1       4.088   5.696  18.720  0.00  0.00    +0.000 A 
ATOM     14  C   UNL     1       4.176   6.464  17.573  0.00  0.00    +0.000 A 
ATOM     15  C   UNL     1       3.257   7.495  17.329  0.00  0.00    +0.000 A 
ATOM     16  C   UNL     1       2.486   7.895  18.429  0.00  0.00    +0.000 A 
ATOM     17  S   UNL     1       1.609   9.353  18.712  0.00  0.00    +0.000 S 
ENDBRANCH   7   9
BRANCH   1  21
ATOM     18  C   UNL     1       1.522  16.563  18.223  0.00  0.00    +0.000 C 
ATOM     19  C   UNL     1       1.434  15.541  19.290  0.00  0.00    +0.000 A 
ATOM     20  N   UNL     1       0.294  15.177  19.870  0.00  0.00    +0.000 NA
ATOM     21  C   UNL     1       0.616  14.033  20.562  0.00  0.00    +0.000 A 
ATOM     22  N   UNL     1       1.900  13.658  20.414  0.00  0.00    +0.000 NA
ATOM     23  N   UNL     1       2.426  14.688  19.694  0.00  0.00    +0.000 N 
BRANCH  23  24
ATOM     24  C   UNL     1       3.831  14.770  19.485  0.00  0.00    +0.000 A 
ATOM     25  C   UNL     1       4.673  15.068  20.562  0.00  0.00    +0.000 A 
ATOM     26  C   UNL     1       6.052  15.154  20.365  0.00  0.00    +0.000 A 
ATOM     27  C   UNL     1       6.575  14.974  19.089  0.00  0.00    +0.000 A 
ATOM     28  F   UNL     1       7.893  15.076  18.892  0.00  0.00    +0.000 F 
ATOM     29  C   UNL     1       5.749  14.702  18.007  0.00  0.00    +0.000 A 
ATOM     30  C   UNL     1       4.366  14.596  18.201  0.00  0.00    +0.000 A 
ENDBRANCH  23  24
ENDBRANCH   1  21
TORSDOF 3
ENDMDL
MODEL 7
REMARK VINA RESULT:      -7.5      7.045     10.547
REMARK  Name = 
REMARK  4 active torsions:
REMARK  status: ('A' for Active; 'I' for Inactive)
REMARK    1  A    between atoms: C_1  and  C_2
REMARK    2  A    between atoms: C_4  and  C_5
REMARK    3  A    between atoms: C_11  and  C_12
REMARK    4  A    between atoms: N_23  and  C_24
REMARK                            x       y       z     vdW  Elec       q    Type
REMARK                         _______ _______ _______ _____ _____    ______ ____
ROOT
ATOM      1  C   UNL     1      -1.267  13.984  23.314  0.00  0.00    +0.000 C 
ATOM      2  O   UNL     1      -0.489  14.818  23.780  0.00  0.00    +0.000 OA
ATOM      3  N   UNL     1      -2.652  14.250  23.256  0.00  0.00    +0.000 N 
ATOM      4  C   UNL     1      -3.099  15.560  23.714  0.00  0.00    +0.000 C 
ATOM      5  C   UNL     1      -4.525  15.497  24.249  0.00  0.00    +0.000 C 
ATOM      6  C   UNL     1      -5.482  14.901  23.226  0.00  0.00    +0.000 C 
ATOM      7  C   UNL     1      -4.965  13.562  22.663  0.00  0.00    +0.000 C 
ATOM      8  C   UNL     1      -3.499  13.650  22.232  0.00  0.00    +0.000 C 
ENDROOT
BRANCH   7   9
ATOM      9  C   UNL     1      -5.776  13.172  21.459  0.00  0.00    +0.000 A 
ATOM     10  N   UNL     1      -5.452  12.162  20.676  0.00  0.00    +0.000 NA
ATOM     11  C   UNL     1      -6.104  12.309  19.473  0.00  0.00    +0.000 A 
ATOM     12  C   UNL     1      -5.861  11.574  18.301  0.00  0.00    +0.000 A 
ATOM     13  C   UNL     1      -6.118  12.223  17.104  0.00  0.00    +0.000 A 
ATOM     14  C   UNL     1      -7.159  13.132  17.063  0.00  0.00    +0.000 A 
ATOM     15  C   UNL     1      -7.774  13.571  18.246  0.00  0.00    +0.000 A 
ATOM     16  C   UNL     1      -7.077  13.297  19.430  0.00  0.00    +0.000 A 
ATOM     17  S   UNL     1      -7.203  14.012  20.995  0.00  0.00    +0.000 S 
ENDBRANCH   7   9
BRANCH   1  21
ATOM     18  C   UNL     1      -0.421   9.142  23.064  0.00  0.00    +0.000 C 
ATOM     19  C   UNL     1      -0.542  10.561  22.662  0.00  0.00    +0.000 A 
ATOM     20  N   UNL     1      -1.108  11.496  23.419  0.00  0.00    +0.000 NA
ATOM     21  C   UNL     1      -0.750  12.680  22.820  0.00  0.00    +0.000 A 
ATOM     22  N   UNL     1       0.037  12.521  21.740  0.00  0.00    +0.000 NA
ATOM     23  N   UNL     1       0.066  11.166  21.594  0.00  0.00    +0.000 N 
BRANCH  23  24
ATOM     24  C   UNL     1       0.646  10.583  20.433  0.00  0.00    +0.000 A 
ATOM     25  C   UNL     1       0.881   9.205  20.396  0.00  0.00    +0.000 A 
ATOM     26  C   UNL     1       1.454   8.626  19.262  0.00  0.00    +0.000 A 
ATOM     27  C   UNL     1       1.815   9.434  18.189  0.00  0.00    +0.000 A 
ATOM     28  F   UNL     1       2.382   8.887  17.109  0.00  0.00    +0.000 F 
ATOM     29  C   UNL     1       1.610  10.806  18.222  0.00  0.00    +0.000 A 
ATOM     30  C   UNL     1       1.019  11.391  19.350  0.00  0.00    +0.000 A 
ENDBRANCH  23  24
ENDBRANCH   1  21
TORSDOF 3
ENDMDL
MODEL 8
REMARK VINA RESULT:      -7.5      9.525     13.137
REMARK  Name = 
REMARK  4 active torsions:
REMARK  status: ('A' for Active; 'I' for Inactive)
REMARK    1  A    between atoms: C_1  and  C_2
REMARK    2  A    between atoms: C_4  and  C_5
REMARK    3  A    between atoms: C_11  and  C_12
REMARK    4  A    between atoms: N_23  and  C_24
REMARK                            x       y       z     vdW  Elec       q    Type
REMARK                         _______ _______ _______ _____ _____    ______ ____
ROOT
ATOM      1  C   UNL     1      -5.665  12.119  19.351  0.00  0.00    +0.000 C 
ATOM      2  O   UNL     1      -6.706  12.074  18.693  0.00  0.00    +0.000 OA
ATOM      3  N   UNL     1      -4.448  11.666  18.797  0.00  0.00    +0.000 N 
ATOM      4  C   UNL     1      -4.476  11.206  17.414  0.00  0.00    +0.000 C 
ATOM      5  C   UNL     1      -3.395  10.161  17.161  0.00  0.00    +0.000 C 
ATOM      6  C   UNL     1      -2.017  10.671  17.559  0.00  0.00    +0.000 C 
ATOM      7  C   UNL     1      -2.006  11.251  18.987  0.00  0.00    +0.000 C 
ATOM      8  C   UNL     1      -3.168  12.220  19.221  0.00  0.00    +0.000 C 
ENDROOT
BRANCH   7   9
ATOM      9  C   UNL     1      -0.726  12.005  19.217  0.00  0.00    +0.000 A 
ATOM     10  N   UNL     1      -0.697  13.253  19.638  0.00  0.00    +0.000 NA
ATOM     11  C   UNL     1       0.539  13.787  19.356  0.00  0.00    +0.000 A 
ATOM     12  C   UNL     1       0.899  15.142  19.441  0.00  0.00    +0.000 A 
ATOM     13  C   UNL     1       1.894  15.570  18.577  0.00  0.00    +0.000 A 
ATOM     14  C   UNL     1       2.898  14.680  18.244  0.00  0.00    +0.000 A 
ATOM     15  C   UNL     1       2.785  13.319  18.565  0.00  0.00    +0.000 A 
ATOM     16  C   UNL     1       1.503  12.886  18.928  0.00  0.00    +0.000 A 
ATOM     17  S   UNL     1       0.821  11.301  18.951  0.00  0.00    +0.000 S 
ENDBRANCH   7   9
BRANCH   1  21
ATOM     18  C   UNL     1      -6.845  12.538  24.111  0.00  0.00    +0.000 C 
ATOM     19  C   UNL     1      -6.106  12.685  22.837  0.00  0.00    +0.000 A 
ATOM     20  N   UNL     1      -6.394  11.999  21.735  0.00  0.00    +0.000 NA
ATOM     21  C   UNL     1      -5.688  12.640  20.744  0.00  0.00    +0.000 A 
ATOM     22  N   UNL     1      -4.996  13.709  21.180  0.00  0.00    +0.000 NA
ATOM     23  N   UNL     1      -5.189  13.653  22.528  0.00  0.00    +0.000 N 
BRANCH  23  24
ATOM     24  C   UNL     1      -4.454  14.513  23.391  0.00  0.00    +0.000 A 
ATOM     25  C   UNL     1      -3.287  14.045  24.003  0.00  0.00    +0.000 A 
ATOM     26  C   UNL     1      -2.562  14.881  24.854  0.00  0.00    +0.000 A 
ATOM     27  C   UNL     1      -3.027  16.167  25.111  0.00  0.00    +0.000 A 
ATOM     28  F   UNL     1      -2.349  16.964  25.941  0.00  0.00    +0.000 F 
ATOM     29  C   UNL     1      -4.197  16.636  24.529  0.00  0.00    +0.000 A 
ATOM     30  C   UNL     1      -4.919  15.808  23.660  0.00  0.00    +0.000 A 
ENDBRANCH  23  24
ENDBRANCH   1  21
TORSDOF 3
ENDMDL
MODEL 9
REMARK VINA RESULT:      -7.5      5.980      9.925
REMARK  Name = 
REMARK  4 active torsions:
REMARK  status: ('A' for Active; 'I' for Inactive)
REMARK    1  A    between atoms: C_1  and  C_2
REMARK    2  A    between atoms: C_4  and  C_5
REMARK    3  A    between atoms: C_11  and  C_12
REMARK    4  A    between atoms: N_23  and  C_24
REMARK                            x       y       z     vdW  Elec       q    Type
REMARK                         _______ _______ _______ _____ _____    ______ ____
ROOT
ATOM      1  C   UNL     1       0.187  13.348  21.622  0.00  0.00    +0.000 C 
ATOM      2  O   UNL     1      -0.695  14.119  22.002  0.00  0.00    +0.000 OA
ATOM      3  N   UNL     1       0.062  11.957  21.830  0.00  0.00    +0.000 N 
ATOM      4  C   UNL     1      -1.168  11.486  22.454  0.00  0.00    +0.000 C 
ATOM      5  C   UNL     1      -0.931  10.193  23.228  0.00  0.00    +0.000 C 
ATOM      6  C   UNL     1      -0.297   9.123  22.350  0.00  0.00    +0.000 C 
ATOM      7  C   UNL     1       0.948   9.647  21.609  0.00  0.00    +0.000 C 
ATOM      8  C   UNL     1       0.687  10.995  20.931  0.00  0.00    +0.000 C 
ENDROOT
BRANCH   7   9
ATOM      9  C   UNL     1       1.353   8.668  20.543  0.00  0.00    +0.000 A 
ATOM     10  N   UNL     1       1.550   7.387  20.784  0.00  0.00    +0.000 NA
ATOM     11  C   UNL     1       2.294   6.852  19.758  0.00  0.00    +0.000 A 
ATOM     12  C   UNL     1       2.900   5.585  19.743  0.00  0.00    +0.000 A 
ATOM     13  C   UNL     1       4.052   5.463  18.982  0.00  0.00    +0.000 A 
ATOM     14  C   UNL     1       4.155   6.215  17.827  0.00  0.00    +0.000 A 
ATOM     15  C   UNL     1       3.244   7.249  17.561  0.00  0.00    +0.000 A 
ATOM     16  C   UNL     1       2.466   7.667  18.649  0.00  0.00    +0.000 A 
ATOM     17  S   UNL     1       1.595   9.134  18.905  0.00  0.00    +0.000 S 
ENDBRANCH   7   9
BRANCH   1  21
ATOM     18  C   UNL     1       3.169  14.933  18.041  0.00  0.00    +0.000 C 
ATOM     19  C   UNL     1       2.603  14.708  19.390  0.00  0.00    +0.000 A 
ATOM     20  N   UNL     1       1.403  14.178  19.607  0.00  0.00    +0.000 NA
ATOM     21  C   UNL     1       1.402  13.882  20.950  0.00  0.00    +0.000 A 
ATOM     22  N   UNL     1       2.559  14.180  21.569  0.00  0.00    +0.000 NA
ATOM     23  N   UNL     1       3.265  14.804  20.585  0.00  0.00    +0.000 N 
BRANCH  23  24
ATOM     24  C   UNL     1       4.493  15.456  20.889  0.00  0.00    +0.000 A 
ATOM     25  C   UNL     1       5.624  14.692  21.195  0.00  0.00    +0.000 A 
ATOM     26  C   UNL     1       6.832  15.324  21.498  0.00  0.00    +0.000 A 
ATOM     27  C   UNL     1       6.890  16.713  21.524  0.00  0.00    +0.000 A 
ATOM     28  F   UNL     1       8.038  17.323  21.834  0.00  0.00    +0.000 F 
ATOM     29  C   UNL     1       5.769  17.484  21.247  0.00  0.00    +0.000 A 
ATOM     30  C   UNL     1       4.559  16.856  20.924  0.00  0.00    +0.000 A 
ENDBRANCH  23  24
ENDBRANCH   1  21
TORSDOF 3
ENDMDL
