MODEL 1
REMARK VINA RESULT:      -8.5      0.000      0.000
REMARK  Name = 
REMARK  6 active torsions:
REMARK  status: ('A' for Active; 'I' for Inactive)
REMARK    1  A    between atoms: C_1  and  C_2
REMARK    2  A    between atoms: C_4  and  C_5
REMARK    3  A    between atoms: C_8  and  C_9
REMARK    4  A    between atoms: C_10  and  C_11
REMARK    5  A    between atoms: N_19  and  C_20
REMARK    6  A    between atoms: C_20  and  C_21
REMARK                            x       y       z     vdW  Elec       q    Type
REMARK                         _______ _______ _______ _____ _____    ______ ____
ROOT
ATOM      1  C   UNL     1       2.671   6.647  19.336  0.00  0.00    +0.000 C 
ATOM      2  O   UNL     1       2.704   6.344  20.528  0.00  0.00    +0.000 OA
ATOM      3  N   UNL     1       2.031   7.806  18.905  0.00  0.00    +0.000 N 
ATOM      4  C   UNL     1       2.045   8.397  17.585  0.00  0.00    +0.000 C 
ATOM      5  C   UNL     1       1.842   9.874  17.843  0.00  0.00    +0.000 C 
ATOM      6  C   UNL     1       0.953   9.927  19.101  0.00  0.00    +0.000 C 
ATOM      7  C   UNL     1      -0.500  10.274  18.753  0.00  0.00    +0.000 C 
ATOM      8  C   UNL     1      -0.975  11.104  19.932  0.00  0.00    +0.000 C 
ATOM      9  N   UNL     1       0.207  11.881  20.304  0.00  0.00    +0.000 NA
ATOM     10  C   UNL     1       1.384  11.031  20.077  0.00  0.00    +0.000 C 
ATOM     11  C   UNL     1       1.103   8.528  19.753  0.00  0.00    +0.000 C 
ENDROOT
BRANCH   1  21
ATOM     12  C   UNL     1       7.660   7.955  17.594  0.00  0.00    +0.000 C 
ATOM     13  C   UNL     1       6.616   6.903  17.322  0.00  0.00    +0.000 A 
ATOM     14  C   UNL     1       6.965   5.787  16.395  0.00  0.00    +0.000 A 
ATOM     15  C   UNL     1       6.016   4.851  16.209  0.00  0.00    +0.000 A 
ATOM     16  C   UNL     1       6.194   3.692  15.281  0.00  0.00    +0.000 C 
ATOM     17  N   UNL     1       4.798   4.959  16.896  0.00  0.00    +0.000 N 
ATOM     18  N   UNL     1       3.735   4.119  16.846  0.00  0.00    +0.000 NA
ATOM     19  C   UNL     1       2.833   4.650  17.680  0.00  0.00    +0.000 A 
ATOM     20  C   UNL     1       1.507   3.993  17.818  0.00  0.00    +0.000 C 
ATOM     21  C   UNL     1       3.325   5.807  18.346  0.00  0.00    +0.000 A 
ATOM     22  C   UNL     1       4.564   6.026  17.759  0.00  0.00    +0.000 A 
ATOM     23  N   UNL     1       5.479   7.027  17.931  0.00  0.00    +0.000 NA
ENDBRANCH   1  21
BRANCH   9  24
ATOM     24  C   UNL     1       0.113  12.359  21.692  0.00  0.00    +0.000 C 
BRANCH  24  25
ATOM     25  C   UNL     1      -1.296  12.711  22.127  0.00  0.00    +0.000 A 
ATOM     26  C   UNL     1      -1.961  13.818  21.582  0.00  0.00    +0.000 A 
ATOM     27  C   UNL     1      -3.251  14.147  22.006  0.00  0.00    +0.000 A 
ATOM     28  C   UNL     1      -3.888  13.374  22.975  0.00  0.00    +0.000 A 
ATOM     29  C   UNL     1      -3.240  12.266  23.519  0.00  0.00    +0.000 A 
ATOM     30  C   UNL     1      -1.952  11.935  23.095  0.00  0.00    +0.000 A 
ENDBRANCH  24  25
ENDBRANCH   9  24
TORSDOF 3
ENDMDL
MODEL 2
REMARK VINA RESULT:      -8.2      2.171      9.084
REMARK  Name = 
REMARK  6 active torsions:
REMARK  status: ('A' for Active; 'I' for Inactive)
REMARK    1  A    between atoms: C_1  and  C_2
REMARK    2  A    between atoms: C_4  and  C_5
REMARK    3  A    between atoms: C_8  and  C_9
REMARK    4  A    between atoms: C_10  and  C_11
REMARK    5  A    between atoms: N_19  and  C_20
REMARK    6  A    between atoms: C_20  and  C_21
REMARK                            x       y       z     vdW  Elec       q    Type
REMARK                         _______ _______ _______ _____ _____    ______ ____
ROOT
ATOM      1  C   UNL     1       1.441   9.199  18.386  0.00  0.00    +0.000 C 
ATOM      2  O   UNL     1       2.185   9.603  17.492  0.00  0.00    +0.000 OA
ATOM      3  N   UNL     1       1.593   7.924  18.927  0.00  0.00    +0.000 N 
ATOM      4  C   UNL     1       0.932   7.360  20.083  0.00  0.00    +0.000 C 
ATOM      5  C   UNL     1       1.920   6.342  20.609  0.00  0.00    +0.000 C 
ATOM      6  C   UNL     1       2.646   5.825  19.352  0.00  0.00    +0.000 C 
ATOM      7  C   UNL     1       2.152   4.431  18.945  0.00  0.00    +0.000 C 
ATOM      8  C   UNL     1       3.388   3.747  18.391  0.00  0.00    +0.000 C 
ATOM      9  N   UNL     1       4.469   4.247  19.240  0.00  0.00    +0.000 NA
ATOM     10  C   UNL     1       4.154   5.642  19.579  0.00  0.00    +0.000 C 
ATOM     11  C   UNL     1       2.381   6.902  18.268  0.00  0.00    +0.000 C 
ENDROOT
BRANCH   1  21
ATOM     12  C   UNL     1      -3.169   9.866  15.568  0.00  0.00    +0.000 C 
ATOM     13  C   UNL     1      -2.552  10.371  16.847  0.00  0.00    +0.000 A 
ATOM     14  C   UNL     1      -3.380  11.238  17.734  0.00  0.00    +0.000 A 
ATOM     15  C   UNL     1      -2.802  11.636  18.883  0.00  0.00    +0.000 A 
ATOM     16  C   UNL     1      -3.483  12.540  19.860  0.00  0.00    +0.000 C 
ATOM     17  N   UNL     1      -1.501  11.206  19.185  0.00  0.00    +0.000 N 
ATOM     18  N   UNL     1      -0.763  11.490  20.285  0.00  0.00    +0.000 NA
ATOM     19  C   UNL     1       0.393  10.841  20.105  0.00  0.00    +0.000 A 
ATOM     20  C   UNL     1       1.467  10.990  21.123  0.00  0.00    +0.000 C 
ATOM     21  C   UNL     1       0.397  10.058  18.917  0.00  0.00    +0.000 A 
ATOM     22  C   UNL     1      -0.807  10.378  18.305  0.00  0.00    +0.000 A 
ATOM     23  N   UNL     1      -1.337  10.000  17.103  0.00  0.00    +0.000 NA
ENDBRANCH   1  21
BRANCH   9  24
ATOM     24  C   UNL     1       5.774   4.108  18.576  0.00  0.00    +0.000 C 
BRANCH  24  25
ATOM     25  C   UNL     1       6.452   5.428  18.270  0.00  0.00    +0.000 A 
ATOM     26  C   UNL     1       5.973   6.262  17.249  0.00  0.00    +0.000 A 
ATOM     27  C   UNL     1       6.619   7.467  16.959  0.00  0.00    +0.000 A 
ATOM     28  C   UNL     1       7.745   7.850  17.686  0.00  0.00    +0.000 A 
ATOM     29  C   UNL     1       8.226   7.033  18.708  0.00  0.00    +0.000 A 
ATOM     30  C   UNL     1       7.581   5.830  19.000  0.00  0.00    +0.000 A 
ENDBRANCH  24  25
ENDBRANCH   9  24
TORSDOF 3
ENDMDL
MODEL 3
REMARK VINA RESULT:      -8.0      2.166      9.422
REMARK  Name = 
REMARK  6 active torsions:
REMARK  status: ('A' for Active; 'I' for Inactive)
REMARK    1  A    between atoms: C_1  and  C_2
REMARK    2  A    between atoms: C_4  and  C_5
REMARK    3  A    between atoms: C_8  and  C_9
REMARK    4  A    between atoms: C_10  and  C_11
REMARK    5  A    between atoms: N_19  and  C_20
REMARK    6  A    between atoms: C_20  and  C_21
REMARK                            x       y       z     vdW  Elec       q    Type
REMARK                         _______ _______ _______ _____ _____    ______ ____
ROOT
ATOM      1  C   UNL     1       1.352   9.357  18.388  0.00  0.00    +0.000 C 
ATOM      2  O   UNL     1       2.074   9.768  17.481  0.00  0.00    +0.000 OA
ATOM      3  N   UNL     1       1.542   8.093  18.942  0.00  0.00    +0.000 N 
ATOM      4  C   UNL     1       0.910   7.527  20.113  0.00  0.00    +0.000 C 
ATOM      5  C   UNL     1       1.929   6.540  20.639  0.00  0.00    +0.000 C 
ATOM      6  C   UNL     1       2.652   6.026  19.378  0.00  0.00    +0.000 C 
ATOM      7  C   UNL     1       2.187   4.615  18.994  0.00  0.00    +0.000 C 
ATOM      8  C   UNL     1       3.433   3.955  18.432  0.00  0.00    +0.000 C 
ATOM      9  N   UNL     1       4.511   4.492  19.261  0.00  0.00    +0.000 NA
ATOM     10  C   UNL     1       4.166   5.883  19.588  0.00  0.00    +0.000 C 
ATOM     11  C   UNL     1       2.347   7.083  18.285  0.00  0.00    +0.000 C 
ENDROOT
BRANCH   1  21
ATOM     12  C   UNL     1      -3.265   9.969  15.567  0.00  0.00    +0.000 C 
ATOM     13  C   UNL     1      -2.658  10.476  16.850  0.00  0.00    +0.000 A 
ATOM     14  C   UNL     1      -3.500  11.325  17.741  0.00  0.00    +0.000 A 
ATOM     15  C   UNL     1      -2.930  11.725  18.893  0.00  0.00    +0.000 A 
ATOM     16  C   UNL     1      -3.626  12.612  19.874  0.00  0.00    +0.000 C 
ATOM     17  N   UNL     1      -1.623  11.313  19.195  0.00  0.00    +0.000 N 
ATOM     18  N   UNL     1      -0.891  11.603  20.298  0.00  0.00    +0.000 NA
ATOM     19  C   UNL     1       0.276  10.973  20.116  0.00  0.00    +0.000 A 
ATOM     20  C   UNL     1       1.346  11.133  21.136  0.00  0.00    +0.000 C 
ATOM     21  C   UNL     1       0.294  10.197  18.923  0.00  0.00    +0.000 A 
ATOM     22  C   UNL     1      -0.915  10.502  18.311  0.00  0.00    +0.000 A 
ATOM     23  N   UNL     1      -1.437  10.122  17.106  0.00  0.00    +0.000 NA
ENDBRANCH   1  21
BRANCH   9  24
ATOM     24  C   UNL     1       5.811   4.377  18.582  0.00  0.00    +0.000 C 
BRANCH  24  25
ATOM     25  C   UNL     1       5.752   4.648  17.092  0.00  0.00    +0.000 A 
ATOM     26  C   UNL     1       5.997   3.626  16.164  0.00  0.00    +0.000 A 
ATOM     27  C   UNL     1       5.963   3.892  14.793  0.00  0.00    +0.000 A 
ATOM     28  C   UNL     1       5.682   5.178  14.337  0.00  0.00    +0.000 A 
ATOM     29  C   UNL     1       5.429   6.202  15.248  0.00  0.00    +0.000 A 
ATOM     30  C   UNL     1       5.461   5.938  16.619  0.00  0.00    +0.000 A 
ENDBRANCH  24  25
ENDBRANCH   9  24
TORSDOF 3
ENDMDL
MODEL 4
REMARK VINA RESULT:      -7.9      1.063      1.524
REMARK  Name = 
REMARK  6 active torsions:
REMARK  status: ('A' for Active; 'I' for Inactive)
REMARK    1  A    between atoms: C_1  and  C_2
REMARK    2  A    between atoms: C_4  and  C_5
REMARK    3  A    between atoms: C_8  and  C_9
REMARK    4  A    between atoms: C_10  and  C_11
REMARK    5  A    between atoms: N_19  and  C_20
REMARK    6  A    between atoms: C_20  and  C_21
REMARK                            x       y       z     vdW  Elec       q    Type
REMARK                         _______ _______ _______ _____ _____    ______ ____
ROOT
ATOM      1  C   UNL     1       2.682   6.651  19.345  0.00  0.00    +0.000 C 
ATOM      2  O   UNL     1       2.715   6.336  20.534  0.00  0.00    +0.000 OA
ATOM      3  N   UNL     1       2.044   7.816  18.926  0.00  0.00    +0.000 N 
ATOM      4  C   UNL     1       2.059   8.420  17.613  0.00  0.00    +0.000 C 
ATOM      5  C   UNL     1       1.858   9.894  17.885  0.00  0.00    +0.000 C 
ATOM      6  C   UNL     1       0.969   9.936  19.144  0.00  0.00    +0.000 C 
ATOM      7  C   UNL     1      -0.484  10.288  18.799  0.00  0.00    +0.000 C 
ATOM      8  C   UNL     1      -0.958  11.107  19.986  0.00  0.00    +0.000 C 
ATOM      9  N   UNL     1       0.225  11.879  20.366  0.00  0.00    +0.000 NA
ATOM     10  C   UNL     1       1.401  11.030  20.131  0.00  0.00    +0.000 C 
ATOM     11  C   UNL     1       1.117   8.530  19.782  0.00  0.00    +0.000 C 
ENDROOT
BRANCH   1  21
ATOM     12  C   UNL     1       7.665   7.983  17.600  0.00  0.00    +0.000 C 
ATOM     13  C   UNL     1       6.622   6.931  17.323  0.00  0.00    +0.000 A 
ATOM     14  C   UNL     1       6.970   5.824  16.386  0.00  0.00    +0.000 A 
ATOM     15  C   UNL     1       6.023   4.887  16.195  0.00  0.00    +0.000 A 
ATOM     16  C   UNL     1       6.201   3.736  15.258  0.00  0.00    +0.000 C 
ATOM     17  N   UNL     1       4.806   4.987  16.886  0.00  0.00    +0.000 N 
ATOM     18  N   UNL     1       3.745   4.145  16.833  0.00  0.00    +0.000 NA
ATOM     19  C   UNL     1       2.844   4.668  17.673  0.00  0.00    +0.000 A 
ATOM     20  C   UNL     1       1.520   4.007  17.809  0.00  0.00    +0.000 C 
ATOM     21  C   UNL     1       3.336   5.821  18.347  0.00  0.00    +0.000 A 
ATOM     22  C   UNL     1       4.573   6.047  17.759  0.00  0.00    +0.000 A 
ATOM     23  N   UNL     1       5.486   7.048  17.936  0.00  0.00    +0.000 NA
ENDBRANCH   1  21
BRANCH   9  24
ATOM     24  C   UNL     1       0.132  12.343  21.759  0.00  0.00    +0.000 C 
BRANCH  24  25
ATOM     25  C   UNL     1      -0.383  13.761  21.900  0.00  0.00    +0.000 A 
ATOM     26  C   UNL     1      -1.040  14.175  23.068  0.00  0.00    +0.000 A 
ATOM     27  C   UNL     1      -1.532  15.478  23.179  0.00  0.00    +0.000 A 
ATOM     28  C   UNL     1      -1.369  16.379  22.129  0.00  0.00    +0.000 A 
ATOM     29  C   UNL     1      -0.711  15.983  20.966  0.00  0.00    +0.000 A 
ATOM     30  C   UNL     1      -0.219  14.681  20.853  0.00  0.00    +0.000 A 
ENDBRANCH  24  25
ENDBRANCH   9  24
TORSDOF 3
ENDMDL
MODEL 5
REMARK VINA RESULT:      -7.9      1.295      1.849
REMARK  Name = 
REMARK  6 active torsions:
REMARK  status: ('A' for Active; 'I' for Inactive)
REMARK    1  A    between atoms: C_1  and  C_2
REMARK    2  A    between atoms: C_4  and  C_5
REMARK    3  A    between atoms: C_8  and  C_9
REMARK    4  A    between atoms: C_10  and  C_11
REMARK    5  A    between atoms: N_19  and  C_20
REMARK    6  A    between atoms: C_20  and  C_21
REMARK                            x       y       z     vdW  Elec       q    Type
REMARK                         _______ _______ _______ _____ _____    ______ ____
ROOT
ATOM      1  C   UNL     1       2.604   6.612  19.322  0.00  0.00    +0.000 C 
ATOM      2  O   UNL     1       2.587   6.285  20.509  0.00  0.00    +0.000 OA
ATOM      3  N   UNL     1       2.004   7.793  18.892  0.00  0.00    +0.000 N 
ATOM      4  C   UNL     1       2.079   8.408  17.586  0.00  0.00    +0.000 C 
ATOM      5  C   UNL     1       1.897   9.884  17.865  0.00  0.00    +0.000 C 
ATOM      6  C   UNL     1       0.963   9.931  19.091  0.00  0.00    +0.000 C 
ATOM      7  C   UNL     1      -0.469  10.316  18.697  0.00  0.00    +0.000 C 
ATOM      8  C   UNL     1      -0.969  11.133  19.874  0.00  0.00    +0.000 C 
ATOM      9  N   UNL     1       0.213  11.878  20.305  0.00  0.00    +0.000 NA
ATOM     10  C   UNL     1       1.380  11.008  20.103  0.00  0.00    +0.000 C 
ATOM     11  C   UNL     1       1.061   8.518  19.720  0.00  0.00    +0.000 C 
ENDROOT
BRANCH   1  21
ATOM     12  C   UNL     1       7.580   7.993  17.597  0.00  0.00    +0.000 C 
ATOM     13  C   UNL     1       6.555   6.922  17.326  0.00  0.00    +0.000 A 
ATOM     14  C   UNL     1       6.926   5.807  16.407  0.00  0.00    +0.000 A 
ATOM     15  C   UNL     1       5.994   4.854  16.222  0.00  0.00    +0.000 A 
ATOM     16  C   UNL     1       6.196   3.694  15.301  0.00  0.00    +0.000 C 
ATOM     17  N   UNL     1       4.771   4.946  16.902  0.00  0.00    +0.000 N 
ATOM     18  N   UNL     1       3.722   4.088  16.852  0.00  0.00    +0.000 NA
ATOM     19  C   UNL     1       2.807   4.609  17.678  0.00  0.00    +0.000 A 
ATOM     20  C   UNL     1       1.492   3.930  17.814  0.00  0.00    +0.000 C 
ATOM     21  C   UNL     1       3.277   5.778  18.341  0.00  0.00    +0.000 A 
ATOM     22  C   UNL     1       4.515   6.014  17.759  0.00  0.00    +0.000 A 
ATOM     23  N   UNL     1       5.412   7.031  17.929  0.00  0.00    +0.000 NA
ENDBRANCH   1  21
BRANCH   9  24
ATOM     24  C   UNL     1       0.078  12.331  21.697  0.00  0.00    +0.000 C 
BRANCH  24  25
ATOM     25  C   UNL     1       0.270  13.823  21.879  0.00  0.00    +0.000 A 
ATOM     26  C   UNL     1       1.280  14.508  21.188  0.00  0.00    +0.000 A 
ATOM     27  C   UNL     1       1.463  15.879  21.380  0.00  0.00    +0.000 A 
ATOM     28  C   UNL     1       0.641  16.579  22.261  0.00  0.00    +0.000 A 
ATOM     29  C   UNL     1      -0.371  15.911  22.948  0.00  0.00    +0.000 A 
ATOM     30  C   UNL     1      -0.557  14.541  22.757  0.00  0.00    +0.000 A 
ENDBRANCH  24  25
ENDBRANCH   9  24
TORSDOF 3
ENDMDL
MODEL 6
REMARK VINA RESULT:      -7.7      5.080      9.934
REMARK  Name = 
REMARK  6 active torsions:
REMARK  status: ('A' for Active; 'I' for Inactive)
REMARK    1  A    between atoms: C_1  and  C_2
REMARK    2  A    between atoms: C_4  and  C_5
REMARK    3  A    between atoms: C_8  and  C_9
REMARK    4  A    between atoms: C_10  and  C_11
REMARK    5  A    between atoms: N_19  and  C_20
REMARK    6  A    between atoms: C_20  and  C_21
REMARK                            x       y       z     vdW  Elec       q    Type
REMARK                         _______ _______ _______ _____ _____    ______ ____
ROOT
ATOM      1  C   UNL     1       2.739  13.747  20.515  0.00  0.00    +0.000 C 
ATOM      2  O   UNL     1       3.132  13.335  21.606  0.00  0.00    +0.000 OA
ATOM      3  N   UNL     1       3.582  14.466  19.671  0.00  0.00    +0.000 N 
ATOM      4  C   UNL     1       3.345  14.868  18.302  0.00  0.00    +0.000 C 
ATOM      5  C   UNL     1       4.730  14.943  17.697  0.00  0.00    +0.000 C 
ATOM      6  C   UNL     1       5.638  15.373  18.866  0.00  0.00    +0.000 C 
ATOM      7  C   UNL     1       6.031  16.853  18.763  0.00  0.00    +0.000 C 
ATOM      8  C   UNL     1       7.444  16.900  19.315  0.00  0.00    +0.000 C 
ATOM      9  N   UNL     1       8.036  15.644  18.855  0.00  0.00    +0.000 NA
ATOM     10  C   UNL     1       6.978  14.624  18.874  0.00  0.00    +0.000 C 
ATOM     11  C   UNL     1       4.821  15.051  20.144  0.00  0.00    +0.000 C 
ENDROOT
BRANCH   1  21
ATOM     12  C   UNL     1       1.648   9.009  18.064  0.00  0.00    +0.000 C 
ATOM     13  C   UNL     1       0.918  10.274  18.438  0.00  0.00    +0.000 A 
ATOM     14  C   UNL     1      -0.554  10.333  18.206  0.00  0.00    +0.000 A 
ATOM     15  C   UNL     1      -1.170  11.467  18.588  0.00  0.00    +0.000 A 
ATOM     16  C   UNL     1      -2.633  11.699  18.388  0.00  0.00    +0.000 C 
ATOM     17  N   UNL     1      -0.421  12.490  19.187  0.00  0.00    +0.000 N 
ATOM     18  N   UNL     1      -0.860  13.689  19.642  0.00  0.00    +0.000 NA
ATOM     19  C   UNL     1       0.229  14.296  20.129  0.00  0.00    +0.000 A 
ATOM     20  C   UNL     1       0.102  15.678  20.664  0.00  0.00    +0.000 C 
ATOM     21  C   UNL     1       1.384  13.468  20.069  0.00  0.00    +0.000 A 
ATOM     22  C   UNL     1       0.950  12.342  19.384  0.00  0.00    +0.000 A 
ATOM     23  N   UNL     1       1.622  11.230  18.958  0.00  0.00    +0.000 NA
ENDBRANCH   1  21
BRANCH   9  24
ATOM     24  C   UNL     1       9.197  15.272  19.678  0.00  0.00    +0.000 C 
BRANCH  24  25
ATOM     25  C   UNL     1       9.938  14.048  19.176  0.00  0.00    +0.000 A 
ATOM     26  C   UNL     1      10.327  13.031  20.058  0.00  0.00    +0.000 A 
ATOM     27  C   UNL     1      11.030  11.919  19.589  0.00  0.00    +0.000 A 
ATOM     28  C   UNL     1      11.347  11.810  18.237  0.00  0.00    +0.000 A 
ATOM     29  C   UNL     1      10.959  12.811  17.348  0.00  0.00    +0.000 A 
ATOM     30  C   UNL     1      10.256  13.923  17.814  0.00  0.00    +0.000 A 
ENDBRANCH  24  25
ENDBRANCH   9  24
TORSDOF 3
ENDMDL
MODEL 7
REMARK VINA RESULT:      -7.7      2.180      8.843
REMARK  Name = 
REMARK  6 active torsions:
REMARK  status: ('A' for Active; 'I' for Inactive)
REMARK    1  A    between atoms: C_1  and  C_2
REMARK    2  A    between atoms: C_4  and  C_5
REMARK    3  A    between atoms: C_8  and  C_9
REMARK    4  A    between atoms: C_10  and  C_11
REMARK    5  A    between atoms: N_19  and  C_20
REMARK    6  A    between atoms: C_20  and  C_21
REMARK                            x       y       z     vdW  Elec       q    Type
REMARK                         _______ _______ _______ _____ _____    ______ ____
ROOT
ATOM      1  C   UNL     1       1.548   9.726  18.243  0.00  0.00    +0.000 C 
ATOM      2  O   UNL     1       2.274   9.937  17.272  0.00  0.00    +0.000 OA
ATOM      3  N   UNL     1       1.587   8.510  18.921  0.00  0.00    +0.000 N 
ATOM      4  C   UNL     1       0.942   8.161  20.167  0.00  0.00    +0.000 C 
ATOM      5  C   UNL     1       1.838   7.094  20.757  0.00  0.00    +0.000 C 
ATOM      6  C   UNL     1       2.417   6.358  19.533  0.00  0.00    +0.000 C 
ATOM      7  C   UNL     1       1.741   4.998  19.318  0.00  0.00    +0.000 C 
ATOM      8  C   UNL     1       2.851   4.112  18.784  0.00  0.00    +0.000 C 
ATOM      9  N   UNL     1       4.035   4.568  19.512  0.00  0.00    +0.000 NA
ATOM     10  C   UNL     1       3.905   6.019  19.702  0.00  0.00    +0.000 C 
ATOM     11  C   UNL     1       2.208   7.334  18.346  0.00  0.00    +0.000 C 
ENDROOT
BRANCH   1  21
ATOM     12  C   UNL     1       3.544  13.898  21.117  0.00  0.00    +0.000 C 
ATOM     13  C   UNL     1       2.203  13.405  20.637  0.00  0.00    +0.000 A 
ATOM     14  C   UNL     1       1.009  14.266  20.875  0.00  0.00    +0.000 A 
ATOM     15  C   UNL     1      -0.162  13.803  20.399  0.00  0.00    +0.000 A 
ATOM     16  C   UNL     1      -1.456  14.528  20.590  0.00  0.00    +0.000 C 
ATOM     17  N   UNL     1      -0.190  12.585  19.704  0.00  0.00    +0.000 N 
ATOM     18  N   UNL     1      -1.260  11.966  19.148  0.00  0.00    +0.000 NA
ATOM     19  C   UNL     1      -0.769  10.849  18.600  0.00  0.00    +0.000 A 
ATOM     20  C   UNL     1      -1.705   9.898  17.944  0.00  0.00    +0.000 C 
ATOM     21  C   UNL     1       0.646  10.760  18.724  0.00  0.00    +0.000 A 
ATOM     22  C   UNL     1       0.980  11.854  19.510  0.00  0.00    +0.000 A 
ATOM     23  N   UNL     1       2.177  12.261  20.028  0.00  0.00    +0.000 NA
ENDBRANCH   1  21
BRANCH   9  24
ATOM     24  C   UNL     1       5.270   4.198  18.803  0.00  0.00    +0.000 C 
BRANCH  24  25
ATOM     25  C   UNL     1       6.124   5.383  18.399  0.00  0.00    +0.000 A 
ATOM     26  C   UNL     1       7.317   5.674  19.076  0.00  0.00    +0.000 A 
ATOM     27  C   UNL     1       8.085   6.782  18.712  0.00  0.00    +0.000 A 
ATOM     28  C   UNL     1       7.672   7.607  17.668  0.00  0.00    +0.000 A 
ATOM     29  C   UNL     1       6.492   7.325  16.982  0.00  0.00    +0.000 A 
ATOM     30  C   UNL     1       5.724   6.218  17.344  0.00  0.00    +0.000 A 
ENDBRANCH  24  25
ENDBRANCH   9  24
TORSDOF 3
ENDMDL
MODEL 8
REMARK VINA RESULT:      -7.7      3.128      9.775
REMARK  Name = 
REMARK  6 active torsions:
REMARK  status: ('A' for Active; 'I' for Inactive)
REMARK    1  A    between atoms: C_1  and  C_2
REMARK    2  A    between atoms: C_4  and  C_5
REMARK    3  A    between atoms: C_8  and  C_9
REMARK    4  A    between atoms: C_10  and  C_11
REMARK    5  A    between atoms: N_19  and  C_20
REMARK    6  A    between atoms: C_20  and  C_21
REMARK                            x       y       z     vdW  Elec       q    Type
REMARK                         _______ _______ _______ _____ _____    ______ ____
ROOT
ATOM      1  C   UNL     1       0.158  13.206  20.784  0.00  0.00    +0.000 C 
ATOM      2  O   UNL     1       0.833  13.125  21.810  0.00  0.00    +0.000 OA
ATOM      3  N   UNL     1       0.223  12.222  19.800  0.00  0.00    +0.000 N 
ATOM      4  C   UNL     1      -0.616  12.070  18.633  0.00  0.00    +0.000 C 
ATOM      5  C   UNL     1      -0.600  10.582  18.361  0.00  0.00    +0.000 C 
ATOM      6  C   UNL     1       0.797  10.122  18.823  0.00  0.00    +0.000 C 
ATOM      7  C   UNL     1       1.732   9.867  17.633  0.00  0.00    +0.000 C 
ATOM      8  C   UNL     1       2.594   8.703  18.083  0.00  0.00    +0.000 C 
ATOM      9  N   UNL     1       1.677   7.875  18.864  0.00  0.00    +0.000 NA
ATOM     10  C   UNL     1       0.756   8.779  19.567  0.00  0.00    +0.000 C 
ATOM     11  C   UNL     1       1.299  11.253  19.758  0.00  0.00    +0.000 C 
ENDROOT
BRANCH   1  21
ATOM     12  C   UNL     1       1.709  17.395  17.672  0.00  0.00    +0.000 C 
ATOM     13  C   UNL     1       0.522  17.000  18.512  0.00  0.00    +0.000 A 
ATOM     14  C   UNL     1      -0.678  17.884  18.496  0.00  0.00    +0.000 A 
ATOM     15  C   UNL     1      -1.728  17.475  19.232  0.00  0.00    +0.000 A 
ATOM     16  C   UNL     1      -2.990  18.268  19.353  0.00  0.00    +0.000 C 
ATOM     17  N   UNL     1      -1.647  16.263  19.933  0.00  0.00    +0.000 N 
ATOM     18  N   UNL     1      -2.594  15.685  20.713  0.00  0.00    +0.000 NA
ATOM     19  C   UNL     1      -2.040  14.545  21.144  0.00  0.00    +0.000 A 
ATOM     20  C   UNL     1      -2.807  13.684  22.083  0.00  0.00    +0.000 C 
ATOM     21  C   UNL     1      -0.749  14.325  20.588  0.00  0.00    +0.000 A 
ATOM     22  C   UNL     1      -0.491  15.488  19.876  0.00  0.00    +0.000 A 
ATOM     23  N   UNL     1       0.616  15.897  19.187  0.00  0.00    +0.000 NA
ENDBRANCH   1  21
BRANCH   9  24
ATOM     24  C   UNL     1       2.409   6.989  19.781  0.00  0.00    +0.000 C 
BRANCH  24  25
ATOM     25  C   UNL     1       2.012   5.530  19.674  0.00  0.00    +0.000 A 
ATOM     26  C   UNL     1       2.033   4.868  18.439  0.00  0.00    +0.000 A 
ATOM     27  C   UNL     1       1.643   3.529  18.346  0.00  0.00    +0.000 A 
ATOM     28  C   UNL     1       1.231   2.841  19.486  0.00  0.00    +0.000 A 
ATOM     29  C   UNL     1       1.212   3.485  20.721  0.00  0.00    +0.000 A 
ATOM     30  C   UNL     1       1.603   4.822  20.815  0.00  0.00    +0.000 A 
ENDBRANCH  24  25
ENDBRANCH   9  24
TORSDOF 3
ENDMDL
MODEL 9
REMARK VINA RESULT:      -7.5      3.030     10.250
REMARK  Name = 
REMARK  6 active torsions:
REMARK  status: ('A' for Active; 'I' for Inactive)
REMARK    1  A    between atoms: C_1  and  C_2
REMARK    2  A    between atoms: C_4  and  C_5
REMARK    3  A    between atoms: C_8  and  C_9
REMARK    4  A    between atoms: C_10  and  C_11
REMARK    5  A    between atoms: N_19  and  C_20
REMARK    6  A    between atoms: C_20  and  C_21
REMARK                            x       y       z     vdW  Elec       q    Type
REMARK                         _______ _______ _______ _____ _____    ______ ____
ROOT
ATOM      1  C   UNL     1       0.023  13.068  21.089  0.00  0.00    +0.000 C 
ATOM      2  O   UNL     1       0.881  13.060  21.972  0.00  0.00    +0.000 OA
ATOM      3  N   UNL     1      -0.009  12.080  20.108  0.00  0.00    +0.000 N 
ATOM      4  C   UNL     1      -1.033  11.840  19.116  0.00  0.00    +0.000 C 
ATOM      5  C   UNL     1      -0.936  10.355  18.842  0.00  0.00    +0.000 C 
ATOM      6  C   UNL     1       0.557  10.024  19.036  0.00  0.00    +0.000 C 
ATOM      7  C   UNL     1       1.274   9.835  17.693  0.00  0.00    +0.000 C 
ATOM      8  C   UNL     1       2.303   8.756  17.972  0.00  0.00    +0.000 C 
ATOM      9  N   UNL     1       1.622   7.862  18.908  0.00  0.00    +0.000 NA
ATOM     10  C   UNL     1       0.771   8.694  19.771  0.00  0.00    +0.000 C 
ATOM     11  C   UNL     1       1.122  11.207  19.864  0.00  0.00    +0.000 C 
ENDROOT
BRANCH   1  21
ATOM     12  C   UNL     1      -4.275  12.657  24.407  0.00  0.00    +0.000 C 
ATOM     13  C   UNL     1      -3.770  13.587  23.334  0.00  0.00    +0.000 A 
ATOM     14  C   UNL     1      -4.530  14.843  23.075  0.00  0.00    +0.000 A 
ATOM     15  C   UNL     1      -4.024  15.661  22.133  0.00  0.00    +0.000 A 
ATOM     16  C   UNL     1      -4.689  16.937  21.729  0.00  0.00    +0.000 C 
ATOM     17  N   UNL     1      -2.832  15.309  21.484  0.00  0.00    +0.000 N 
ATOM     18  N   UNL     1      -2.169  16.000  20.524  0.00  0.00    +0.000 NA
ATOM     19  C   UNL     1      -1.094  15.255  20.240  0.00  0.00    +0.000 A 
ATOM     20  C   UNL     1      -0.168  15.709  19.169  0.00  0.00    +0.000 C 
ATOM     21  C   UNL     1      -0.998  14.101  21.067  0.00  0.00    +0.000 A 
ATOM     22  C   UNL     1      -2.176  14.122  21.803  0.00  0.00    +0.000 A 
ATOM     23  N   UNL     1      -2.687  13.238  22.711  0.00  0.00    +0.000 NA
ENDBRANCH   1  21
BRANCH   9  24
ATOM     24  C   UNL     1       2.586   7.056  19.671  0.00  0.00    +0.000 C 
BRANCH  24  25
ATOM     25  C   UNL     1       2.230   5.584  19.749  0.00  0.00    +0.000 A 
ATOM     26  C   UNL     1       2.018   4.833  18.585  0.00  0.00    +0.000 A 
ATOM     27  C   UNL     1       1.667   3.483  18.668  0.00  0.00    +0.000 A 
ATOM     28  C   UNL     1       1.528   2.872  19.913  0.00  0.00    +0.000 A 
ATOM     29  C   UNL     1       1.744   3.606  21.078  0.00  0.00    +0.000 A 
ATOM     30  C   UNL     1       2.095   4.955  20.996  0.00  0.00    +0.000 A 
ENDBRANCH  24  25
ENDBRANCH   9  24
TORSDOF 3
ENDMDL
