MODEL 1
REMARK VINA RESULT:      -8.9      0.000      0.000
REMARK  Name = 
REMARK  5 active torsions:
REMARK  status: ('A' for Active; 'I' for Inactive)
REMARK    1  A    between atoms: C_1  and  C_2
REMARK    2  A    between atoms: C_4  and  C_5
REMARK    3  A    between atoms: C_9  and  N_10
REMARK    4  A    between atoms: C_11  and  C_13
REMARK    5  A    between atoms: C_24  and  C_25
REMARK                            x       y       z     vdW  Elec       q    Type
REMARK                         _______ _______ _______ _____ _____    ______ ____
ROOT
ATOM      1  N   UNL     1       1.432   6.494  21.110  0.00  0.00    +0.000 N 
ATOM      2  C   UNL     1       1.445   7.774  20.576  0.00  0.00    +0.000 C 
ATOM      3  O   UNL     1       1.892   8.006  19.456  0.00  0.00    +0.000 OA
ATOM      4  H   UNL     1       1.259   6.370  22.096  0.00  0.00    +0.000 HD
ENDROOT
BRANCH   2   5
ATOM      5  C   UNL     1       0.931   8.883  21.356  0.00  0.00    +0.000 A 
ATOM      6  N   UNL     1       1.024   9.179  22.689  0.00  0.00    +0.000 N 
ATOM      7  N   UNL     1       0.396  10.327  23.039  0.00  0.00    +0.000 NA
ATOM      8  C   UNL     1      -0.131  10.775  21.893  0.00  0.00    +0.000 A 
ATOM      9  C   UNL     1       0.167   9.914  20.832  0.00  0.00    +0.000 A 
ATOM     10  C   UNL     1      -0.251  10.147  19.425  0.00  0.00    +0.000 C 
ATOM     11  C   UNL     1      -1.361  11.167  19.272  0.00  0.00    +0.000 C 
ATOM     12  C   UNL     1      -1.523  12.244  20.357  0.00  0.00    +0.000 C 
ATOM     13  C   UNL     1      -0.918  12.023  21.758  0.00  0.00    +0.000 C 
ATOM     14  H   UNL     1       1.494   8.671  23.427  0.00  0.00    +0.000 HD
ENDBRANCH   2   5
BRANCH   1  19
ATOM     15  C   UNL     1       3.197   4.193  18.755  0.00  0.00    +0.000 A 
ATOM     16  C   UNL     1       2.435   3.023  18.879  0.00  0.00    +0.000 A 
ATOM     17  C   UNL     1       1.328   2.997  19.709  0.00  0.00    +0.000 A 
ATOM     18  C   UNL     1       0.982   4.137  20.432  0.00  0.00    +0.000 A 
ATOM     19  C   UNL     1       1.732   5.321  20.352  0.00  0.00    +0.000 A 
ATOM     20  C   UNL     1       2.844   5.334  19.506  0.00  0.00    +0.000 A 
BRANCH  15  24
ATOM     21  C   UNL     1       6.165   3.953  14.826  0.00  0.00    +0.000 C 
ATOM     22  C   UNL     1       5.696   4.146  16.212  0.00  0.00    +0.000 A 
ATOM     23  N   UNL     1       4.361   4.042  16.534  0.00  0.00    +0.000 NA
ATOM     24  C   UNL     1       4.327   4.242  17.836  0.00  0.00    +0.000 A 
ATOM     25  O   UNL     1       5.556   4.487  18.395  0.00  0.00    +0.000 OA
ATOM     26  C   UNL     1       6.427   4.413  17.350  0.00  0.00    +0.000 A 
ATOM     27  C   UNL     1       7.856   4.599  17.651  0.00  0.00    +0.000 C 
ENDBRANCH  15  24
ENDBRANCH   1  19
TORSDOF 3
ENDMDL
MODEL 2
REMARK VINA RESULT:      -8.8      0.685      1.229
REMARK  Name = 
REMARK  5 active torsions:
REMARK  status: ('A' for Active; 'I' for Inactive)
REMARK    1  A    between atoms: C_1  and  C_2
REMARK    2  A    between atoms: C_4  and  C_5
REMARK    3  A    between atoms: C_9  and  N_10
REMARK    4  A    between atoms: C_11  and  C_13
REMARK    5  A    between atoms: C_24  and  C_25
REMARK                            x       y       z     vdW  Elec       q    Type
REMARK                         _______ _______ _______ _____ _____    ______ ____
ROOT
ATOM      1  N   UNL     1       1.359   6.547  21.221  0.00  0.00    +0.000 N 
ATOM      2  C   UNL     1       1.383   7.822  20.678  0.00  0.00    +0.000 C 
ATOM      3  O   UNL     1       1.878   8.051  19.577  0.00  0.00    +0.000 OA
ATOM      4  H   UNL     1       1.142   6.428  22.198  0.00  0.00    +0.000 HD
ENDROOT
BRANCH   2   5
ATOM      5  C   UNL     1       0.821   8.931  21.424  0.00  0.00    +0.000 A 
ATOM      6  N   UNL     1       0.864   9.248  22.755  0.00  0.00    +0.000 N 
ATOM      7  N   UNL     1       0.202  10.387  23.068  0.00  0.00    +0.000 NA
ATOM      8  C   UNL     1      -0.295  10.809  21.899  0.00  0.00    +0.000 A 
ATOM      9  C   UNL     1       0.055   9.939  20.861  0.00  0.00    +0.000 A 
ATOM     10  C   UNL     1      -0.321  10.144  19.437  0.00  0.00    +0.000 C 
ATOM     11  C   UNL     1      -1.445  11.140  19.234  0.00  0.00    +0.000 C 
ATOM     12  C   UNL     1      -1.664  12.228  20.297  0.00  0.00    +0.000 C 
ATOM     13  C   UNL     1      -1.101  12.039  21.720  0.00  0.00    +0.000 C 
ATOM     14  H   UNL     1       1.320   8.759  23.516  0.00  0.00    +0.000 HD
ENDBRANCH   2   5
BRANCH   1  19
ATOM     15  C   UNL     1       3.323   4.197  19.080  0.00  0.00    +0.000 A 
ATOM     16  C   UNL     1       2.499   3.063  19.076  0.00  0.00    +0.000 A 
ATOM     17  C   UNL     1       1.288   3.078  19.747  0.00  0.00    +0.000 A 
ATOM     18  C   UNL     1       0.899   4.223  20.439  0.00  0.00    +0.000 A 
ATOM     19  C   UNL     1       1.706   5.371  20.487  0.00  0.00    +0.000 A 
ATOM     20  C   UNL     1       2.923   5.343  19.800  0.00  0.00    +0.000 A 
BRANCH  15  24
ATOM     21  C   UNL     1       8.023   4.548  17.638  0.00  0.00    +0.000 C 
ATOM     22  C   UNL     1       6.561   4.357  17.596  0.00  0.00    +0.000 A 
ATOM     23  N   UNL     1       5.806   4.373  18.748  0.00  0.00    +0.000 NA
ATOM     24  C   UNL     1       4.570   4.205  18.325  0.00  0.00    +0.000 A 
ATOM     25  O   UNL     1       4.458   4.064  16.966  0.00  0.00    +0.000 OA
ATOM     26  C   UNL     1       5.737   4.173  16.506  0.00  0.00    +0.000 A 
ATOM     27  C   UNL     1       5.936   4.099  15.050  0.00  0.00    +0.000 C 
ENDBRANCH  15  24
ENDBRANCH   1  19
TORSDOF 3
ENDMDL
MODEL 3
REMARK VINA RESULT:      -8.7      2.764      8.677
REMARK  Name = 
REMARK  5 active torsions:
REMARK  status: ('A' for Active; 'I' for Inactive)
REMARK    1  A    between atoms: C_1  and  C_2
REMARK    2  A    between atoms: C_4  and  C_5
REMARK    3  A    between atoms: C_9  and  N_10
REMARK    4  A    between atoms: C_11  and  C_13
REMARK    5  A    between atoms: C_24  and  C_25
REMARK                            x       y       z     vdW  Elec       q    Type
REMARK                         _______ _______ _______ _____ _____    ______ ____
ROOT
ATOM      1  N   UNL     1       2.023   8.546  18.661  0.00  0.00    +0.000 N 
ATOM      2  C   UNL     1       2.290   7.343  19.297  0.00  0.00    +0.000 C 
ATOM      3  O   UNL     1       1.844   7.085  20.412  0.00  0.00    +0.000 OA
ATOM      4  H   UNL     1       2.566   8.812  17.854  0.00  0.00    +0.000 HD
ENDROOT
BRANCH   2   5
ATOM      5  C   UNL     1       3.129   6.357  18.644  0.00  0.00    +0.000 A 
ATOM      6  N   UNL     1       4.346   6.461  18.028  0.00  0.00    +0.000 N 
ATOM      7  N   UNL     1       4.810   5.290  17.531  0.00  0.00    +0.000 NA
ATOM      8  C   UNL     1       3.849   4.405  17.826  0.00  0.00    +0.000 A 
ATOM      9  C   UNL     1       2.792   5.020  18.505  0.00  0.00    +0.000 A 
ATOM     10  C   UNL     1       1.586   4.302  18.996  0.00  0.00    +0.000 C 
ATOM     11  C   UNL     1       1.381   2.939  18.367  0.00  0.00    +0.000 C 
ATOM     12  C   UNL     1       2.608   2.189  17.824  0.00  0.00    +0.000 C 
ATOM     13  C   UNL     1       3.899   2.963  17.490  0.00  0.00    +0.000 C 
ATOM     14  H   UNL     1       4.934   7.276  17.904  0.00  0.00    +0.000 HD
ENDBRANCH   2   5
BRANCH   1  19
ATOM     15  C   UNL     1      -1.067  10.644  18.780  0.00  0.00    +0.000 A 
ATOM     16  C   UNL     1      -0.929  11.278  20.022  0.00  0.00    +0.000 A 
ATOM     17  C   UNL     1       0.188  11.045  20.805  0.00  0.00    +0.000 A 
ATOM     18  C   UNL     1       1.169  10.162  20.358  0.00  0.00    +0.000 A 
ATOM     19  C   UNL     1       1.058   9.489  19.131  0.00  0.00    +0.000 A 
ATOM     20  C   UNL     1      -0.073   9.739  18.348  0.00  0.00    +0.000 A 
BRANCH  15  24
ATOM     21  C   UNL     1      -5.417  12.079  16.959  0.00  0.00    +0.000 C 
ATOM     22  C   UNL     1      -4.067  11.489  17.049  0.00  0.00    +0.000 A 
ATOM     23  N   UNL     1      -3.321  11.588  18.203  0.00  0.00    +0.000 NA
ATOM     24  C   UNL     1      -2.212  10.934  17.926  0.00  0.00    +0.000 A 
ATOM     25  O   UNL     1      -2.169  10.419  16.655  0.00  0.00    +0.000 OA
ATOM     26  C   UNL     1      -3.366  10.771  16.105  0.00  0.00    +0.000 A 
ATOM     27  C   UNL     1      -3.632  10.318  14.730  0.00  0.00    +0.000 C 
ENDBRANCH  15  24
ENDBRANCH   1  19
TORSDOF 3
ENDMDL
MODEL 4
REMARK VINA RESULT:      -8.5      1.995      8.649
REMARK  Name = 
REMARK  5 active torsions:
REMARK  status: ('A' for Active; 'I' for Inactive)
REMARK    1  A    between atoms: C_1  and  C_2
REMARK    2  A    between atoms: C_4  and  C_5
REMARK    3  A    between atoms: C_9  and  N_10
REMARK    4  A    between atoms: C_11  and  C_13
REMARK    5  A    between atoms: C_24  and  C_25
REMARK                            x       y       z     vdW  Elec       q    Type
REMARK                         _______ _______ _______ _____ _____    ______ ____
ROOT
ATOM      1  N   UNL     1       5.058   5.144  17.978  0.00  0.00    +0.000 N 
ATOM      2  C   UNL     1       4.926   4.675  16.680  0.00  0.00    +0.000 C 
ATOM      3  O   UNL     1       3.927   4.064  16.308  0.00  0.00    +0.000 OA
ATOM      4  H   UNL     1       5.961   5.449  18.305  0.00  0.00    +0.000 HD
ENDROOT
BRANCH   2   5
ATOM      5  C   UNL     1       5.994   4.894  15.725  0.00  0.00    +0.000 A 
ATOM      6  N   UNL     1       7.152   5.619  15.805  0.00  0.00    +0.000 N 
ATOM      7  N   UNL     1       7.903   5.576  14.678  0.00  0.00    +0.000 NA
ATOM      8  C   UNL     1       7.195   4.809  13.841  0.00  0.00    +0.000 A 
ATOM      9  C   UNL     1       6.009   4.373  14.441  0.00  0.00    +0.000 A 
ATOM     10  C   UNL     1       5.018   3.481  13.781  0.00  0.00    +0.000 C 
ATOM     11  C   UNL     1       5.173   3.396  12.276  0.00  0.00    +0.000 C 
ATOM     12  C   UNL     1       6.555   3.668  11.663  0.00  0.00    +0.000 C 
ATOM     13  C   UNL     1       7.612   4.455  12.464  0.00  0.00    +0.000 C 
ATOM     14  H   UNL     1       7.516   6.163  16.577  0.00  0.00    +0.000 HD
ENDBRANCH   2   5
BRANCH   1  19
ATOM     15  C   UNL     1       2.232   6.402  20.073  0.00  0.00    +0.000 A 
ATOM     16  C   UNL     1       1.821   5.231  20.726  0.00  0.00    +0.000 A 
ATOM     17  C   UNL     1       2.488   4.039  20.505  0.00  0.00    +0.000 A 
ATOM     18  C   UNL     1       3.562   4.005  19.617  0.00  0.00    +0.000 A 
ATOM     19  C   UNL     1       3.990   5.150  18.926  0.00  0.00    +0.000 A 
ATOM     20  C   UNL     1       3.310   6.348  19.164  0.00  0.00    +0.000 A 
BRANCH  15  24
ATOM     21  C   UNL     1       0.546  11.032  19.935  0.00  0.00    +0.000 C 
ATOM     22  C   UNL     1       0.815   9.658  20.399  0.00  0.00    +0.000 A 
ATOM     23  N   UNL     1       1.495   8.757  19.609  0.00  0.00    +0.000 NA
ATOM     24  C   UNL     1       1.570   7.671  20.350  0.00  0.00    +0.000 A 
ATOM     25  O   UNL     1       0.970   7.789  21.578  0.00  0.00    +0.000 OA
ATOM     26  C   UNL     1       0.498   9.068  21.604  0.00  0.00    +0.000 A 
ATOM     27  C   UNL     1      -0.176   9.509  22.836  0.00  0.00    +0.000 C 
ENDBRANCH  15  24
ENDBRANCH   1  19
TORSDOF 3
ENDMDL
MODEL 5
REMARK VINA RESULT:      -8.5      3.045      8.645
REMARK  Name = 
REMARK  5 active torsions:
REMARK  status: ('A' for Active; 'I' for Inactive)
REMARK    1  A    between atoms: C_1  and  C_2
REMARK    2  A    between atoms: C_4  and  C_5
REMARK    3  A    between atoms: C_9  and  N_10
REMARK    4  A    between atoms: C_11  and  C_13
REMARK    5  A    between atoms: C_24  and  C_25
REMARK                            x       y       z     vdW  Elec       q    Type
REMARK                         _______ _______ _______ _____ _____    ______ ____
ROOT
ATOM      1  N   UNL     1       2.172   8.437  18.413  0.00  0.00    +0.000 N 
ATOM      2  C   UNL     1       2.391   7.298  19.173  0.00  0.00    +0.000 C 
ATOM      3  O   UNL     1       1.867   7.139  20.272  0.00  0.00    +0.000 OA
ATOM      4  H   UNL     1       2.771   8.630  17.625  0.00  0.00    +0.000 HD
ENDROOT
BRANCH   2   5
ATOM      5  C   UNL     1       3.271   6.259  18.673  0.00  0.00    +0.000 A 
ATOM      6  N   UNL     1       4.566   6.297  18.234  0.00  0.00    +0.000 N 
ATOM      7  N   UNL     1       5.045   5.093  17.840  0.00  0.00    +0.000 NA
ATOM      8  C   UNL     1       4.016   4.256  18.019  0.00  0.00    +0.000 A 
ATOM      9  C   UNL     1       2.901   4.932  18.524  0.00  0.00    +0.000 A 
ATOM     10  C   UNL     1       1.608   4.277  18.858  0.00  0.00    +0.000 C 
ATOM     11  C   UNL     1       1.436   2.903  18.243  0.00  0.00    +0.000 C 
ATOM     12  C   UNL     1       2.695   2.089  17.901  0.00  0.00    +0.000 C 
ATOM     13  C   UNL     1       4.052   2.802  17.733  0.00  0.00    +0.000 C 
ATOM     14  H   UNL     1       5.199   7.084  18.172  0.00  0.00    +0.000 HD
ENDBRANCH   2   5
BRANCH   1  19
ATOM     15  C   UNL     1      -0.974  10.440  18.193  0.00  0.00    +0.000 A 
ATOM     16  C   UNL     1      -0.862  11.266  19.319  0.00  0.00    +0.000 A 
ATOM     17  C   UNL     1       0.256  11.190  20.132  0.00  0.00    +0.000 A 
ATOM     18  C   UNL     1       1.264  10.276  19.832  0.00  0.00    +0.000 A 
ATOM     19  C   UNL     1       1.179   9.415  18.726  0.00  0.00    +0.000 A 
ATOM     20  C   UNL     1       0.047   9.507  17.911  0.00  0.00    +0.000 A 
BRANCH  15  24
ATOM     21  C   UNL     1      -4.074  10.299  14.363  0.00  0.00    +0.000 C 
ATOM     22  C   UNL     1      -3.524  10.574  15.704  0.00  0.00    +0.000 A 
ATOM     23  N   UNL     1      -2.284  10.102  16.077  0.00  0.00    +0.000 NA
ATOM     24  C   UNL     1      -2.121  10.560  17.301  0.00  0.00    +0.000 A 
ATOM     25  O   UNL     1      -3.181  11.294  17.770  0.00  0.00    +0.000 OA
ATOM     26  C   UNL     1      -4.069  11.306  16.736  0.00  0.00    +0.000 A 
ATOM     27  C   UNL     1      -5.316  12.065  16.931  0.00  0.00    +0.000 C 
ENDBRANCH  15  24
ENDBRANCH   1  19
TORSDOF 3
ENDMDL
MODEL 6
REMARK VINA RESULT:      -8.5      1.879      8.678
REMARK  Name = 
REMARK  5 active torsions:
REMARK  status: ('A' for Active; 'I' for Inactive)
REMARK    1  A    between atoms: C_1  and  C_2
REMARK    2  A    between atoms: C_4  and  C_5
REMARK    3  A    between atoms: C_9  and  N_10
REMARK    4  A    between atoms: C_11  and  C_13
REMARK    5  A    between atoms: C_24  and  C_25
REMARK                            x       y       z     vdW  Elec       q    Type
REMARK                         _______ _______ _______ _____ _____    ______ ____
ROOT
ATOM      1  N   UNL     1       5.045   5.269  17.954  0.00  0.00    +0.000 N 
ATOM      2  C   UNL     1       4.973   4.665  16.708  0.00  0.00    +0.000 C 
ATOM      3  O   UNL     1       4.041   3.930  16.395  0.00  0.00    +0.000 OA
ATOM      4  H   UNL     1       5.911   5.689  18.253  0.00  0.00    +0.000 HD
ENDROOT
BRANCH   2   5
ATOM      5  C   UNL     1       6.029   4.889  15.740  0.00  0.00    +0.000 A 
ATOM      6  N   UNL     1       7.189   5.612  15.809  0.00  0.00    +0.000 N 
ATOM      7  N   UNL     1       7.924   5.576  14.671  0.00  0.00    +0.000 NA
ATOM      8  C   UNL     1       7.203   4.814  13.839  0.00  0.00    +0.000 A 
ATOM      9  C   UNL     1       6.025   4.376  14.452  0.00  0.00    +0.000 A 
ATOM     10  C   UNL     1       5.024   3.491  13.801  0.00  0.00    +0.000 C 
ATOM     11  C   UNL     1       5.157   3.414  12.293  0.00  0.00    +0.000 C 
ATOM     12  C   UNL     1       6.531   3.689  11.663  0.00  0.00    +0.000 C 
ATOM     13  C   UNL     1       7.600   4.470  12.454  0.00  0.00    +0.000 C 
ATOM     14  H   UNL     1       7.564   6.150  16.579  0.00  0.00    +0.000 HD
ENDBRANCH   2   5
BRANCH   1  19
ATOM     15  C   UNL     1       2.226   6.519  20.065  0.00  0.00    +0.000 A 
ATOM     16  C   UNL     1       1.787   5.338  20.678  0.00  0.00    +0.000 A 
ATOM     17  C   UNL     1       2.432   4.139  20.425  0.00  0.00    +0.000 A 
ATOM     18  C   UNL     1       3.512   4.111  19.545  0.00  0.00    +0.000 A 
ATOM     19  C   UNL     1       3.969   5.268  18.894  0.00  0.00    +0.000 A 
ATOM     20  C   UNL     1       3.311   6.472  19.163  0.00  0.00    +0.000 A 
BRANCH  15  24
ATOM     21  C   UNL     1      -0.242  10.228  22.173  0.00  0.00    +0.000 C 
ATOM     22  C   UNL     1       0.520   9.443  21.184  0.00  0.00    +0.000 A 
ATOM     23  N   UNL     1       1.000   8.187  21.486  0.00  0.00    +0.000 NA
ATOM     24  C   UNL     1       1.588   7.792  20.375  0.00  0.00    +0.000 A 
ATOM     25  O   UNL     1       1.542   8.713  19.360  0.00  0.00    +0.000 OA
ATOM     26  C   UNL     1       0.848   9.763  19.884  0.00  0.00    +0.000 A 
ATOM     27  C   UNL     1       0.600  10.913  18.999  0.00  0.00    +0.000 C 
ENDBRANCH  15  24
ENDBRANCH   1  19
TORSDOF 3
ENDMDL
MODEL 7
REMARK VINA RESULT:      -8.5      2.826      8.638
REMARK  Name = 
REMARK  5 active torsions:
REMARK  status: ('A' for Active; 'I' for Inactive)
REMARK    1  A    between atoms: C_1  and  C_2
REMARK    2  A    between atoms: C_4  and  C_5
REMARK    3  A    between atoms: C_9  and  N_10
REMARK    4  A    between atoms: C_11  and  C_13
REMARK    5  A    between atoms: C_24  and  C_25
REMARK                            x       y       z     vdW  Elec       q    Type
REMARK                         _______ _______ _______ _____ _____    ______ ____
ROOT
ATOM      1  N   UNL     1       1.776   8.319  19.269  0.00  0.00    +0.000 N 
ATOM      2  C   UNL     1       2.455   8.218  18.064  0.00  0.00    +0.000 C 
ATOM      3  O   UNL     1       2.223   8.972  17.123  0.00  0.00    +0.000 OA
ATOM      4  H   UNL     1       1.837   7.565  19.937  0.00  0.00    +0.000 HD
ENDROOT
BRANCH   2   5
ATOM      5  C   UNL     1       3.462   7.189  17.891  0.00  0.00    +0.000 A 
ATOM      6  N   UNL     1       4.813   7.264  17.685  0.00  0.00    +0.000 N 
ATOM      7  N   UNL     1       5.416   6.057  17.569  0.00  0.00    +0.000 NA
ATOM      8  C   UNL     1       4.414   5.177  17.691  0.00  0.00    +0.000 A 
ATOM      9  C   UNL     1       3.193   5.830  17.883  0.00  0.00    +0.000 A 
ATOM     10  C   UNL     1       1.894   5.132  18.081  0.00  0.00    +0.000 C 
ATOM     11  C   UNL     1       1.908   3.676  17.662  0.00  0.00    +0.000 C 
ATOM     12  C   UNL     1       3.246   2.921  17.674  0.00  0.00    +0.000 C 
ATOM     13  C   UNL     1       4.574   3.705  17.640  0.00  0.00    +0.000 C 
ATOM     14  H   UNL     1       5.407   8.081  17.616  0.00  0.00    +0.000 HD
ENDBRANCH   2   5
BRANCH   1  19
ATOM     15  C   UNL     1      -1.082  10.717  19.083  0.00  0.00    +0.000 A 
ATOM     16  C   UNL     1      -0.870  11.498  20.228  0.00  0.00    +0.000 A 
ATOM     17  C   UNL     1       0.223  11.260  21.042  0.00  0.00    +0.000 A 
ATOM     18  C   UNL     1       1.106  10.229  20.726  0.00  0.00    +0.000 A 
ATOM     19  C   UNL     1       0.917   9.410  19.601  0.00  0.00    +0.000 A 
ATOM     20  C   UNL     1      -0.189   9.666  18.785  0.00  0.00    +0.000 A 
BRANCH  15  24
ATOM     21  C   UNL     1      -5.399  12.072  17.128  0.00  0.00    +0.000 C 
ATOM     22  C   UNL     1      -4.033  11.531  17.254  0.00  0.00    +0.000 A 
ATOM     23  N   UNL     1      -3.344  11.603  18.445  0.00  0.00    +0.000 NA
ATOM     24  C   UNL     1      -2.198  11.004  18.191  0.00  0.00    +0.000 A 
ATOM     25  O   UNL     1      -2.078  10.553  16.901  0.00  0.00    +0.000 OA
ATOM     26  C   UNL     1      -3.261  10.885  16.313  0.00  0.00    +0.000 A 
ATOM     27  C   UNL     1      -3.447  10.487  14.907  0.00  0.00    +0.000 C 
ENDBRANCH  15  24
ENDBRANCH   1  19
TORSDOF 3
ENDMDL
MODEL 8
REMARK VINA RESULT:      -8.5      2.406      3.318
REMARK  Name = 
REMARK  5 active torsions:
REMARK  status: ('A' for Active; 'I' for Inactive)
REMARK    1  A    between atoms: C_1  and  C_2
REMARK    2  A    between atoms: C_4  and  C_5
REMARK    3  A    between atoms: C_9  and  N_10
REMARK    4  A    between atoms: C_11  and  C_13
REMARK    5  A    between atoms: C_24  and  C_25
REMARK                            x       y       z     vdW  Elec       q    Type
REMARK                         _______ _______ _______ _____ _____    ______ ____
ROOT
ATOM      1  N   UNL     1       3.247   7.837  18.345  0.00  0.00    +0.000 N 
ATOM      2  C   UNL     1       1.963   8.296  18.090  0.00  0.00    +0.000 C 
ATOM      3  O   UNL     1       1.170   7.659  17.401  0.00  0.00    +0.000 OA
ATOM      4  H   UNL     1       3.932   8.469  18.730  0.00  0.00    +0.000 HD
ENDROOT
BRANCH   2   5
ATOM      5  C   UNL     1       1.533   9.567  18.637  0.00  0.00    +0.000 A 
ATOM      6  N   UNL     1       1.606  10.842  18.144  0.00  0.00    +0.000 N 
ATOM      7  N   UNL     1       1.086  11.779  18.972  0.00  0.00    +0.000 NA
ATOM      8  C   UNL     1       0.677  11.083  20.040  0.00  0.00    +0.000 A 
ATOM      9  C   UNL     1       0.939   9.719  19.880  0.00  0.00    +0.000 A 
ATOM     10  C   UNL     1       0.579   8.677  20.878  0.00  0.00    +0.000 C 
ATOM     11  C   UNL     1       0.271   9.224  22.257  0.00  0.00    +0.000 C 
ATOM     12  C   UNL     1      -0.230  10.672  22.377  0.00  0.00    +0.000 C 
ATOM     13  C   UNL     1       0.023  11.673  21.231  0.00  0.00    +0.000 C 
ATOM     14  H   UNL     1       1.982  11.168  17.263  0.00  0.00    +0.000 HD
ENDBRANCH   2   5
BRANCH   1  19
ATOM     15  C   UNL     1       4.987   5.067  16.540  0.00  0.00    +0.000 A 
ATOM     16  C   UNL     1       4.675   3.964  17.347  0.00  0.00    +0.000 A 
ATOM     17  C   UNL     1       3.872   4.122  18.463  0.00  0.00    +0.000 A 
ATOM     18  C   UNL     1       3.385   5.386  18.788  0.00  0.00    +0.000 A 
ATOM     19  C   UNL     1       3.692   6.520  18.018  0.00  0.00    +0.000 A 
ATOM     20  C   UNL     1       4.500   6.344  16.891  0.00  0.00    +0.000 A 
BRANCH  15  24
ATOM     21  C   UNL     1       8.274   5.494  12.892  0.00  0.00    +0.000 C 
ATOM     22  C   UNL     1       7.136   5.008  13.696  0.00  0.00    +0.000 A 
ATOM     23  N   UNL     1       6.861   5.540  14.937  0.00  0.00    +0.000 NA
ATOM     24  C   UNL     1       5.782   4.894  15.331  0.00  0.00    +0.000 A 
ATOM     25  O   UNL     1       5.333   3.957  14.436  0.00  0.00    +0.000 OA
ATOM     26  C   UNL     1       6.200   4.045  13.387  0.00  0.00    +0.000 A 
ATOM     27  C   UNL     1       5.947   3.169  12.232  0.00  0.00    +0.000 C 
ENDBRANCH  15  24
ENDBRANCH   1  19
TORSDOF 3
ENDMDL
MODEL 9
REMARK VINA RESULT:      -8.4      2.921      8.828
REMARK  Name = 
REMARK  5 active torsions:
REMARK  status: ('A' for Active; 'I' for Inactive)
REMARK    1  A    between atoms: C_1  and  C_2
REMARK    2  A    between atoms: C_4  and  C_5
REMARK    3  A    between atoms: C_9  and  N_10
REMARK    4  A    between atoms: C_11  and  C_13
REMARK    5  A    between atoms: C_24  and  C_25
REMARK                            x       y       z     vdW  Elec       q    Type
REMARK                         _______ _______ _______ _____ _____    ______ ____
ROOT
ATOM      1  N   UNL     1       2.135   8.081  17.883  0.00  0.00    +0.000 N 
ATOM      2  C   UNL     1       2.466   6.950  18.615  0.00  0.00    +0.000 C 
ATOM      3  O   UNL     1       2.236   6.865  19.818  0.00  0.00    +0.000 OA
ATOM      4  H   UNL     1       2.522   8.205  16.960  0.00  0.00    +0.000 HD
ENDROOT
BRANCH   2   5
ATOM      5  C   UNL     1       3.113   5.833  17.956  0.00  0.00    +0.000 A 
ATOM      6  N   UNL     1       2.686   4.559  17.694  0.00  0.00    +0.000 N 
ATOM      7  N   UNL     1       3.601   3.797  17.048  0.00  0.00    +0.000 NA
ATOM      8  C   UNL     1       4.658   4.607  16.903  0.00  0.00    +0.000 A 
ATOM      9  C   UNL     1       4.404   5.867  17.453  0.00  0.00    +0.000 A 
ATOM     10  C   UNL     1       5.368   6.999  17.429  0.00  0.00    +0.000 C 
ATOM     11  C   UNL     1       6.795   6.586  17.126  0.00  0.00    +0.000 C 
ATOM     12  C   UNL     1       7.032   5.299  16.320  0.00  0.00    +0.000 C 
ATOM     13  C   UNL     1       5.926   4.227  16.238  0.00  0.00    +0.000 C 
ATOM     14  H   UNL     1       1.797   4.124  17.908  0.00  0.00    +0.000 HD
ENDBRANCH   2   5
BRANCH   1  19
ATOM     15  C   UNL     1      -0.737  10.442  18.249  0.00  0.00    +0.000 A 
ATOM     16  C   UNL     1      -0.362  11.169  19.386  0.00  0.00    +0.000 A 
ATOM     17  C   UNL     1       0.844  10.909  20.014  0.00  0.00    +0.000 A 
ATOM     18  C   UNL     1       1.677   9.908  19.518  0.00  0.00    +0.000 A 
ATOM     19  C   UNL     1       1.327   9.142  18.394  0.00  0.00    +0.000 A 
ATOM     20  C   UNL     1       0.109   9.420  17.767  0.00  0.00    +0.000 A 
BRANCH  15  24
ATOM     21  C   UNL     1      -5.271  11.929  17.011  0.00  0.00    +0.000 C 
ATOM     22  C   UNL     1      -3.924  11.335  16.921  0.00  0.00    +0.000 A 
ATOM     23  N   UNL     1      -3.040  11.405  17.976  0.00  0.00    +0.000 NA
ATOM     24  C   UNL     1      -1.977  10.754  17.549  0.00  0.00    +0.000 A 
ATOM     25  O   UNL     1      -2.094  10.269  16.272  0.00  0.00    +0.000 OA
ATOM     26  C   UNL     1      -3.347  10.637  15.881  0.00  0.00    +0.000 A 
ATOM     27  C   UNL     1      -3.783  10.216  14.540  0.00  0.00    +0.000 C 
ENDBRANCH  15  24
ENDBRANCH   1  19
TORSDOF 3
ENDMDL
