MODEL 1
REMARK VINA RESULT:      -8.3      0.000      0.000
REMARK  Name = 
REMARK  5 active torsions:
REMARK  status: ('A' for Active; 'I' for Inactive)
REMARK    1  A    between atoms: C_2  and  C_3
REMARK    2  A    between atoms: C_3  and  N_4
REMARK    3  A    between atoms: N_15  and  C_16
REMARK    4  A    between atoms: C_16  and  C_17
REMARK    5  A    between atoms: C_16  and  C_23
REMARK                            x       y       z     vdW  Elec       q    Type
REMARK                         _______ _______ _______ _____ _____    ______ ____
ROOT
ATOM      1  O   UNL     1       6.025   5.594  19.713  0.00  0.00    +0.000 OA
ATOM      2  C   UNL     1       5.765   6.296  18.739  0.00  0.00    +0.000 C 
ATOM      3  N   UNL     1       4.496   6.741  18.446  0.00  0.00    +0.000 N 
ATOM      4  H   UNL     1       4.334   7.211  17.566  0.00  0.00    +0.000 HD
ENDROOT
BRANCH   2   5
ATOM      5  C   UNL     1       6.818   6.662  17.693  0.00  0.00    +0.000 C 
BRANCH   5   6
ATOM      6  N   UNL     1       6.792   5.669  16.638  0.00  0.00    +0.000 N 
ATOM      7  C   UNL     1       7.438   4.472  16.695  0.00  0.00    +0.000 C 
ATOM      8  O   UNL     1       8.190   4.089  17.579  0.00  0.00    +0.000 OA
ATOM      9  C   UNL     1       7.095   3.665  15.472  0.00  0.00    +0.000 C 
ATOM     10  C   UNL     1       6.316   4.644  14.586  0.00  0.00    +0.000 C 
ATOM     11  C   UNL     1       4.992   4.090  14.063  0.00  0.00    +0.000 C 
ATOM     12  C   UNL     1       5.341   3.355  12.775  0.00  0.00    +0.000 C 
ATOM     13  C   UNL     1       6.656   3.951  12.281  0.00  0.00    +0.000 C 
ATOM     14  C   UNL     1       7.068   5.008  13.302  0.00  0.00    +0.000 C 
ATOM     15  C   UNL     1       6.101   5.850  15.475  0.00  0.00    +0.000 C 
ATOM     16  O   UNL     1       5.438   6.837  15.193  0.00  0.00    +0.000 OA
ENDBRANCH   5   6
ENDBRANCH   2   5
BRANCH   3  17
ATOM     17  C   UNL     1       3.329   6.393  19.249  0.00  0.00    +0.000 C 
BRANCH  17  18
ATOM     18  C   UNL     1       2.330   7.547  19.253  0.00  0.00    +0.000 A 
ATOM     19  C   UNL     1       1.669   7.947  20.427  0.00  0.00    +0.000 A 
ATOM     20  C   UNL     1       0.769   9.015  20.413  0.00  0.00    +0.000 A 
ATOM     21  C   UNL     1       0.521   9.705  19.229  0.00  0.00    +0.000 A 
ATOM     22  C   UNL     1       1.171   9.325  18.056  0.00  0.00    +0.000 A 
ATOM     23  C   UNL     1       2.067   8.254  18.066  0.00  0.00    +0.000 A 
ENDBRANCH  17  18
BRANCH  17  24
ATOM     24  C   UNL     1       2.686   5.076  18.810  0.00  0.00    +0.000 A 
ATOM     25  C   UNL     1       3.129   4.455  17.627  0.00  0.00    +0.000 A 
ATOM     26  C   UNL     1       2.605   3.225  17.222  0.00  0.00    +0.000 A 
ATOM     27  C   UNL     1       1.633   2.593  17.992  0.00  0.00    +0.000 A 
ATOM     28  C   UNL     1       1.184   3.190  19.167  0.00  0.00    +0.000 A 
ATOM     29  C   UNL     1       1.707   4.420  19.573  0.00  0.00    +0.000 A 
ENDBRANCH  17  24
ENDBRANCH   3  17
TORSDOF 5
ENDMDL
MODEL 2
REMARK VINA RESULT:      -8.1      0.952      2.019
REMARK  Name = 
REMARK  5 active torsions:
REMARK  status: ('A' for Active; 'I' for Inactive)
REMARK    1  A    between atoms: C_2  and  C_3
REMARK    2  A    between atoms: C_3  and  N_4
REMARK    3  A    between atoms: N_15  and  C_16
REMARK    4  A    between atoms: C_16  and  C_17
REMARK    5  A    between atoms: C_16  and  C_23
REMARK                            x       y       z     vdW  Elec       q    Type
REMARK                         _______ _______ _______ _____ _____    ______ ____
ROOT
ATOM      1  O   UNL     1       5.296   4.220  19.671  0.00  0.00    +0.000 OA
ATOM      2  C   UNL     1       5.360   5.379  19.269  0.00  0.00    +0.000 C 
ATOM      3  N   UNL     1       4.342   6.291  19.425  0.00  0.00    +0.000 N 
ATOM      4  H   UNL     1       4.415   7.188  18.965  0.00  0.00    +0.000 HD
ENDROOT
BRANCH   2   5
ATOM      5  C   UNL     1       6.550   5.895  18.459  0.00  0.00    +0.000 C 
BRANCH   5   6
ATOM      6  N   UNL     1       6.275   5.698  17.050  0.00  0.00    +0.000 N 
ATOM      7  C   UNL     1       5.304   6.356  16.359  0.00  0.00    +0.000 C 
ATOM      8  O   UNL     1       4.478   7.131  16.818  0.00  0.00    +0.000 OA
ATOM      9  C   UNL     1       5.385   5.974  14.906  0.00  0.00    +0.000 C 
ATOM     10  C   UNL     1       6.414   4.838  14.875  0.00  0.00    +0.000 C 
ATOM     11  C   UNL     1       7.511   5.020  13.828  0.00  0.00    +0.000 C 
ATOM     12  C   UNL     1       6.952   4.417  12.546  0.00  0.00    +0.000 C 
ATOM     13  C   UNL     1       5.869   3.429  12.970  0.00  0.00    +0.000 C 
ATOM     14  C   UNL     1       5.795   3.489  14.494  0.00  0.00    +0.000 C 
ATOM     15  C   UNL     1       6.981   4.821  16.278  0.00  0.00    +0.000 C 
ATOM     16  O   UNL     1       7.905   4.122  16.667  0.00  0.00    +0.000 OA
ENDBRANCH   5   6
ENDBRANCH   2   5
BRANCH   3  17
ATOM     17  C   UNL     1       3.070   5.959  20.058  0.00  0.00    +0.000 C 
BRANCH  17  18
ATOM     18  C   UNL     1       2.155   7.180  20.073  0.00  0.00    +0.000 A 
ATOM     19  C   UNL     1       1.327   7.468  21.172  0.00  0.00    +0.000 A 
ATOM     20  C   UNL     1       0.508   8.599  21.172  0.00  0.00    +0.000 A 
ATOM     21  C   UNL     1       0.507   9.463  20.079  0.00  0.00    +0.000 A 
ATOM     22  C   UNL     1       1.324   9.196  18.984  0.00  0.00    +0.000 A 
ATOM     23  C   UNL     1       2.141   8.062  18.978  0.00  0.00    +0.000 A 
ENDBRANCH  17  18
BRANCH  17  24
ATOM     24  C   UNL     1       2.399   4.743  19.418  0.00  0.00    +0.000 A 
ATOM     25  C   UNL     1       1.696   3.836  20.234  0.00  0.00    +0.000 A 
ATOM     26  C   UNL     1       1.025   2.743  19.681  0.00  0.00    +0.000 A 
ATOM     27  C   UNL     1       1.040   2.539  18.303  0.00  0.00    +0.000 A 
ATOM     28  C   UNL     1       1.726   3.426  17.479  0.00  0.00    +0.000 A 
ATOM     29  C   UNL     1       2.398   4.520  18.032  0.00  0.00    +0.000 A 
ENDBRANCH  17  24
ENDBRANCH   3  17
TORSDOF 5
ENDMDL
MODEL 3
REMARK VINA RESULT:      -8.0      3.314      7.918
REMARK  Name = 
REMARK  5 active torsions:
REMARK  status: ('A' for Active; 'I' for Inactive)
REMARK    1  A    between atoms: C_2  and  C_3
REMARK    2  A    between atoms: C_3  and  N_4
REMARK    3  A    between atoms: N_15  and  C_16
REMARK    4  A    between atoms: C_16  and  C_17
REMARK    5  A    between atoms: C_16  and  C_23
REMARK                            x       y       z     vdW  Elec       q    Type
REMARK                         _______ _______ _______ _____ _____    ______ ____
ROOT
ATOM      1  O   UNL     1       1.764   8.488  19.978  0.00  0.00    +0.000 OA
ATOM      2  C   UNL     1       1.818   8.403  18.754  0.00  0.00    +0.000 C 
ATOM      3  N   UNL     1       2.516   7.417  18.095  0.00  0.00    +0.000 N 
ATOM      4  H   UNL     1       2.616   7.479  17.091  0.00  0.00    +0.000 HD
ENDROOT
BRANCH   2   5
ATOM      5  C   UNL     1       1.191   9.454  17.836  0.00  0.00    +0.000 C 
BRANCH   5   6
ATOM      6  N   UNL     1       0.903  10.641  18.616  0.00  0.00    +0.000 N 
ATOM      7  C   UNL     1      -0.192  10.789  19.411  0.00  0.00    +0.000 C 
ATOM      8  O   UNL     1      -1.122  10.006  19.526  0.00  0.00    +0.000 OA
ATOM      9  C   UNL     1      -0.099  12.101  20.142  0.00  0.00    +0.000 C 
ATOM     10  C   UNL     1       1.110  12.798  19.506  0.00  0.00    +0.000 C 
ATOM     11  C   UNL     1       2.120  13.337  20.517  0.00  0.00    +0.000 C 
ATOM     12  C   UNL     1       1.627  14.733  20.876  0.00  0.00    +0.000 C 
ATOM     13  C   UNL     1       0.749  15.193  19.716  0.00  0.00    +0.000 C 
ATOM     14  C   UNL     1       0.721  14.046  18.708  0.00  0.00    +0.000 C 
ATOM     15  C   UNL     1       1.722  11.732  18.622  0.00  0.00    +0.000 C 
ATOM     16  O   UNL     1       2.767  11.837  17.997  0.00  0.00    +0.000 OA
ENDBRANCH   5   6
ENDBRANCH   2   5
BRANCH   3  17
ATOM     17  C   UNL     1       3.289   6.394  18.789  0.00  0.00    +0.000 C 
BRANCH  17  18
ATOM     18  C   UNL     1       2.407   5.187  19.096  0.00  0.00    +0.000 A 
ATOM     19  C   UNL     1       1.971   4.315  18.083  0.00  0.00    +0.000 A 
ATOM     20  C   UNL     1       1.177   3.207  18.387  0.00  0.00    +0.000 A 
ATOM     21  C   UNL     1       0.812   2.948  19.706  0.00  0.00    +0.000 A 
ATOM     22  C   UNL     1       1.240   3.798  20.723  0.00  0.00    +0.000 A 
ATOM     23  C   UNL     1       2.029   4.910  20.422  0.00  0.00    +0.000 A 
ENDBRANCH  17  18
BRANCH  17  24
ATOM     24  C   UNL     1       4.558   6.003  18.030  0.00  0.00    +0.000 A 
ATOM     25  C   UNL     1       5.556   5.264  18.692  0.00  0.00    +0.000 A 
ATOM     26  C   UNL     1       6.705   4.842  18.018  0.00  0.00    +0.000 A 
ATOM     27  C   UNL     1       6.874   5.148  16.670  0.00  0.00    +0.000 A 
ATOM     28  C   UNL     1       5.897   5.874  15.996  0.00  0.00    +0.000 A 
ATOM     29  C   UNL     1       4.747   6.297  16.670  0.00  0.00    +0.000 A 
ENDBRANCH  17  24
ENDBRANCH   3  17
TORSDOF 5
ENDMDL
MODEL 4
REMARK VINA RESULT:      -8.0      3.206      8.097
REMARK  Name = 
REMARK  5 active torsions:
REMARK  status: ('A' for Active; 'I' for Inactive)
REMARK    1  A    between atoms: C_2  and  C_3
REMARK    2  A    between atoms: C_3  and  N_4
REMARK    3  A    between atoms: N_15  and  C_16
REMARK    4  A    between atoms: C_16  and  C_17
REMARK    5  A    between atoms: C_16  and  C_23
REMARK                            x       y       z     vdW  Elec       q    Type
REMARK                         _______ _______ _______ _____ _____    ______ ____
ROOT
ATOM      1  O   UNL     1       1.803   8.569  19.983  0.00  0.00    +0.000 OA
ATOM      2  C   UNL     1       1.802   8.439  18.761  0.00  0.00    +0.000 C 
ATOM      3  N   UNL     1       2.460   7.421  18.109  0.00  0.00    +0.000 N 
ATOM      4  H   UNL     1       2.518   7.445  17.100  0.00  0.00    +0.000 HD
ENDROOT
BRANCH   2   5
ATOM      5  C   UNL     1       1.148   9.463  17.833  0.00  0.00    +0.000 C 
BRANCH   5   6
ATOM      6  N   UNL     1       0.861  10.664  18.592  0.00  0.00    +0.000 N 
ATOM      7  C   UNL     1       1.658  11.767  18.612  0.00  0.00    +0.000 C 
ATOM      8  O   UNL     1       2.750  11.889  18.080  0.00  0.00    +0.000 OA
ATOM      9  C   UNL     1       0.988  12.847  19.418  0.00  0.00    +0.000 C 
ATOM     10  C   UNL     1      -0.226  12.148  20.042  0.00  0.00    +0.000 C 
ATOM     11  C   UNL     1      -1.542  12.900  19.853  0.00  0.00    +0.000 C 
ATOM     12  C   UNL     1      -1.624  13.873  21.022  0.00  0.00    +0.000 C 
ATOM     13  C   UNL     1      -0.730  13.305  22.120  0.00  0.00    +0.000 C 
ATOM     14  C   UNL     1      -0.118  12.021  21.565  0.00  0.00    +0.000 C 
ATOM     15  C   UNL     1      -0.256  10.795  19.365  0.00  0.00    +0.000 C 
ATOM     16  O   UNL     1      -1.125   9.946  19.502  0.00  0.00    +0.000 OA
ENDBRANCH   5   6
ENDBRANCH   2   5
BRANCH   3  17
ATOM     17  C   UNL     1       3.251   6.414  18.807  0.00  0.00    +0.000 C 
BRANCH  17  18
ATOM     18  C   UNL     1       2.391   5.193  19.120  0.00  0.00    +0.000 A 
ATOM     19  C   UNL     1       1.980   4.302  18.113  0.00  0.00    +0.000 A 
ATOM     20  C   UNL     1       1.205   3.182  18.423  0.00  0.00    +0.000 A 
ATOM     21  C   UNL     1       0.834   2.931  19.741  0.00  0.00    +0.000 A 
ATOM     22  C   UNL     1       1.237   3.800  20.752  0.00  0.00    +0.000 A 
ATOM     23  C   UNL     1       2.007   4.924  20.446  0.00  0.00    +0.000 A 
ENDBRANCH  17  18
BRANCH  17  24
ATOM     24  C   UNL     1       4.526   6.041  18.049  0.00  0.00    +0.000 A 
ATOM     25  C   UNL     1       5.533   5.312  18.710  0.00  0.00    +0.000 A 
ATOM     26  C   UNL     1       6.687   4.907  18.035  0.00  0.00    +0.000 A 
ATOM     27  C   UNL     1       6.855   5.220  16.689  0.00  0.00    +0.000 A 
ATOM     28  C   UNL     1       5.870   5.938  16.017  0.00  0.00    +0.000 A 
ATOM     29  C   UNL     1       4.714   6.343  16.690  0.00  0.00    +0.000 A 
ENDBRANCH  17  24
ENDBRANCH   3  17
TORSDOF 5
ENDMDL
MODEL 5
REMARK VINA RESULT:      -7.9      1.003      2.057
REMARK  Name = 
REMARK  5 active torsions:
REMARK  status: ('A' for Active; 'I' for Inactive)
REMARK    1  A    between atoms: C_2  and  C_3
REMARK    2  A    between atoms: C_3  and  N_4
REMARK    3  A    between atoms: N_15  and  C_16
REMARK    4  A    between atoms: C_16  and  C_17
REMARK    5  A    between atoms: C_16  and  C_23
REMARK                            x       y       z     vdW  Elec       q    Type
REMARK                         _______ _______ _______ _____ _____    ______ ____
ROOT
ATOM      1  O   UNL     1       4.889   4.202  19.503  0.00  0.00    +0.000 OA
ATOM      2  C   UNL     1       5.116   5.382  19.252  0.00  0.00    +0.000 C 
ATOM      3  N   UNL     1       4.229   6.398  19.527  0.00  0.00    +0.000 N 
ATOM      4  H   UNL     1       4.430   7.328  19.184  0.00  0.00    +0.000 HD
ENDROOT
BRANCH   2   5
ATOM      5  C   UNL     1       6.376   5.829  18.510  0.00  0.00    +0.000 C 
BRANCH   5   6
ATOM      6  N   UNL     1       6.163   5.660  17.086  0.00  0.00    +0.000 N 
ATOM      7  C   UNL     1       5.204   6.310  16.372  0.00  0.00    +0.000 C 
ATOM      8  O   UNL     1       4.340   7.051  16.815  0.00  0.00    +0.000 OA
ATOM      9  C   UNL     1       5.354   5.967  14.915  0.00  0.00    +0.000 C 
ATOM     10  C   UNL     1       6.413   4.858  14.900  0.00  0.00    +0.000 C 
ATOM     11  C   UNL     1       7.547   5.095  13.903  0.00  0.00    +0.000 C 
ATOM     12  C   UNL     1       7.056   4.509  12.585  0.00  0.00    +0.000 C 
ATOM     13  C   UNL     1       5.984   3.483  12.941  0.00  0.00    +0.000 C 
ATOM     14  C   UNL     1       5.847   3.504  14.461  0.00  0.00    +0.000 C 
ATOM     15  C   UNL     1       6.924   4.821  16.324  0.00  0.00    +0.000 C 
ATOM     16  O   UNL     1       7.849   4.136  16.734  0.00  0.00    +0.000 OA
ENDBRANCH   5   6
ENDBRANCH   2   5
BRANCH   3  17
ATOM     17  C   UNL     1       2.915   6.165  20.116  0.00  0.00    +0.000 C 
BRANCH  17  18
ATOM     18  C   UNL     1       2.065   7.428  20.020  0.00  0.00    +0.000 A 
ATOM     19  C   UNL     1       2.065   8.232  18.866  0.00  0.00    +0.000 A 
ATOM     20  C   UNL     1       1.267   9.376  18.792  0.00  0.00    +0.000 A 
ATOM     21  C   UNL     1       0.453   9.732  19.865  0.00  0.00    +0.000 A 
ATOM     22  C   UNL     1       0.436   8.944  21.013  0.00  0.00    +0.000 A 
ATOM     23  C   UNL     1       1.237   7.802  21.093  0.00  0.00    +0.000 A 
ENDBRANCH  17  18
BRANCH  17  24
ATOM     24  C   UNL     1       2.211   4.948  19.514  0.00  0.00    +0.000 A 
ATOM     25  C   UNL     1       2.102   4.837  18.115  0.00  0.00    +0.000 A 
ATOM     26  C   UNL     1       1.514   3.715  17.527  0.00  0.00    +0.000 A 
ATOM     27  C   UNL     1       1.027   2.683  18.324  0.00  0.00    +0.000 A 
ATOM     28  C   UNL     1       1.128   2.773  19.710  0.00  0.00    +0.000 A 
ATOM     29  C   UNL     1       1.716   3.895  20.300  0.00  0.00    +0.000 A 
ENDBRANCH  17  24
ENDBRANCH   3  17
TORSDOF 5
ENDMDL
MODEL 6
REMARK VINA RESULT:      -7.9      3.352      7.891
REMARK  Name = 
REMARK  5 active torsions:
REMARK  status: ('A' for Active; 'I' for Inactive)
REMARK    1  A    between atoms: C_2  and  C_3
REMARK    2  A    between atoms: C_3  and  N_4
REMARK    3  A    between atoms: N_15  and  C_16
REMARK    4  A    between atoms: C_16  and  C_17
REMARK    5  A    between atoms: C_16  and  C_23
REMARK                            x       y       z     vdW  Elec       q    Type
REMARK                         _______ _______ _______ _____ _____    ______ ____
ROOT
ATOM      1  O   UNL     1       1.767   8.577  20.040  0.00  0.00    +0.000 OA
ATOM      2  C   UNL     1       1.779   8.437  18.820  0.00  0.00    +0.000 C 
ATOM      3  N   UNL     1       2.450   7.419  18.182  0.00  0.00    +0.000 N 
ATOM      4  H   UNL     1       2.517   7.435  17.173  0.00  0.00    +0.000 HD
ENDROOT
BRANCH   2   5
ATOM      5  C   UNL     1       1.127   9.450  17.878  0.00  0.00    +0.000 C 
BRANCH   5   6
ATOM      6  N   UNL     1       0.831  10.657  18.624  0.00  0.00    +0.000 N 
ATOM      7  C   UNL     1      -0.292  10.840  19.371  0.00  0.00    +0.000 C 
ATOM      8  O   UNL     1      -1.241  10.076  19.462  0.00  0.00    +0.000 OA
ATOM      9  C   UNL     1      -0.203  12.163  20.082  0.00  0.00    +0.000 C 
ATOM     10  C   UNL     1       1.043  12.825  19.484  0.00  0.00    +0.000 C 
ATOM     11  C   UNL     1       2.022  13.364  20.526  0.00  0.00    +0.000 C 
ATOM     12  C   UNL     1       1.542  14.775  20.840  0.00  0.00    +0.000 C 
ATOM     13  C   UNL     1       0.720  15.230  19.637  0.00  0.00    +0.000 C 
ATOM     14  C   UNL     1       0.711  14.066  18.649  0.00  0.00    +0.000 C 
ATOM     15  C   UNL     1       1.670  11.733  18.645  0.00  0.00    +0.000 C 
ATOM     16  O   UNL     1       2.741  11.806  18.060  0.00  0.00    +0.000 OA
ENDBRANCH   5   6
ENDBRANCH   2   5
BRANCH   3  17
ATOM     17  C   UNL     1       3.241   6.422  18.895  0.00  0.00    +0.000 C 
BRANCH  17  18
ATOM     18  C   UNL     1       2.392   5.189  19.189  0.00  0.00    +0.000 A 
ATOM     19  C   UNL     1       1.973   4.876  20.494  0.00  0.00    +0.000 A 
ATOM     20  C   UNL     1       1.184   3.750  20.740  0.00  0.00    +0.000 A 
ATOM     21  C   UNL     1       0.795   2.925  19.689  0.00  0.00    +0.000 A 
ATOM     22  C   UNL     1       1.196   3.222  18.388  0.00  0.00    +0.000 A 
ATOM     23  C   UNL     1       1.990   4.344  18.139  0.00  0.00    +0.000 A 
ENDBRANCH  17  18
BRANCH  17  24
ATOM     24  C   UNL     1       4.536   6.069  18.162  0.00  0.00    +0.000 A 
ATOM     25  C   UNL     1       4.744   6.554  16.857  0.00  0.00    +0.000 A 
ATOM     26  C   UNL     1       5.936   6.298  16.176  0.00  0.00    +0.000 A 
ATOM     27  C   UNL     1       6.943   5.556  16.787  0.00  0.00    +0.000 A 
ATOM     28  C   UNL     1       6.759   5.070  18.079  0.00  0.00    +0.000 A 
ATOM     29  C   UNL     1       5.566   5.326  18.761  0.00  0.00    +0.000 A 
ENDBRANCH  17  24
ENDBRANCH   3  17
TORSDOF 5
ENDMDL
MODEL 7
REMARK VINA RESULT:      -7.7      0.563      1.364
REMARK  Name = 
REMARK  5 active torsions:
REMARK  status: ('A' for Active; 'I' for Inactive)
REMARK    1  A    between atoms: C_2  and  C_3
REMARK    2  A    between atoms: C_3  and  N_4
REMARK    3  A    between atoms: N_15  and  C_16
REMARK    4  A    between atoms: C_16  and  C_17
REMARK    5  A    between atoms: C_16  and  C_23
REMARK                            x       y       z     vdW  Elec       q    Type
REMARK                         _______ _______ _______ _____ _____    ______ ____
ROOT
ATOM      1  O   UNL     1       5.434   5.062  19.422  0.00  0.00    +0.000 OA
ATOM      2  C   UNL     1       5.315   6.119  18.808  0.00  0.00    +0.000 C 
ATOM      3  N   UNL     1       4.193   6.913  18.881  0.00  0.00    +0.000 N 
ATOM      4  H   UNL     1       4.114   7.705  18.258  0.00  0.00    +0.000 HD
ENDROOT
BRANCH   2   5
ATOM      5  C   UNL     1       6.370   6.609  17.816  0.00  0.00    +0.000 C 
BRANCH   5   6
ATOM      6  N   UNL     1       6.487   5.641  16.744  0.00  0.00    +0.000 N 
ATOM      7  C   UNL     1       7.204   4.486  16.829  0.00  0.00    +0.000 C 
ATOM      8  O   UNL     1       7.911   4.132  17.760  0.00  0.00    +0.000 OA
ATOM      9  C   UNL     1       7.006   3.688  15.569  0.00  0.00    +0.000 C 
ATOM     10  C   UNL     1       6.233   4.635  14.644  0.00  0.00    +0.000 C 
ATOM     11  C   UNL     1       4.990   4.010  14.012  0.00  0.00    +0.000 C 
ATOM     12  C   UNL     1       5.482   3.328  12.742  0.00  0.00    +0.000 C 
ATOM     13  C   UNL     1       6.788   4.017  12.359  0.00  0.00    +0.000 C 
ATOM     14  C   UNL     1       7.053   5.075  13.428  0.00  0.00    +0.000 C 
ATOM     15  C   UNL     1       5.874   5.804  15.536  0.00  0.00    +0.000 C 
ATOM     16  O   UNL     1       5.171   6.753  15.221  0.00  0.00    +0.000 OA
ENDBRANCH   5   6
ENDBRANCH   2   5
BRANCH   3  17
ATOM     17  C   UNL     1       3.021   6.557  19.672  0.00  0.00    +0.000 C 
BRANCH  17  18
ATOM     18  C   UNL     1       2.033   7.720  19.701  0.00  0.00    +0.000 A 
ATOM     19  C   UNL     1       1.815   8.531  18.574  0.00  0.00    +0.000 A 
ATOM     20  C   UNL     1       0.895   9.582  18.616  0.00  0.00    +0.000 A 
ATOM     21  C   UNL     1       0.174   9.833  19.780  0.00  0.00    +0.000 A 
ATOM     22  C   UNL     1       0.373   9.036  20.905  0.00  0.00    +0.000 A 
ATOM     23  C   UNL     1       1.296   7.988  20.868  0.00  0.00    +0.000 A 
ENDBRANCH  17  18
BRANCH  17  24
ATOM     24  C   UNL     1       2.368   5.257  19.200  0.00  0.00    +0.000 A 
ATOM     25  C   UNL     1       1.850   4.360  20.153  0.00  0.00    +0.000 A 
ATOM     26  C   UNL     1       1.199   3.189  19.759  0.00  0.00    +0.000 A 
ATOM     27  C   UNL     1       1.050   2.895  18.406  0.00  0.00    +0.000 A 
ATOM     28  C   UNL     1       1.552   3.771  17.448  0.00  0.00    +0.000 A 
ATOM     29  C   UNL     1       2.204   4.943  17.841  0.00  0.00    +0.000 A 
ENDBRANCH  17  24
ENDBRANCH   3  17
TORSDOF 5
ENDMDL
MODEL 8
REMARK VINA RESULT:      -7.5      3.162      7.866
REMARK  Name = 
REMARK  5 active torsions:
REMARK  status: ('A' for Active; 'I' for Inactive)
REMARK    1  A    between atoms: C_2  and  C_3
REMARK    2  A    between atoms: C_3  and  N_4
REMARK    3  A    between atoms: N_15  and  C_16
REMARK    4  A    between atoms: C_16  and  C_17
REMARK    5  A    between atoms: C_16  and  C_23
REMARK                            x       y       z     vdW  Elec       q    Type
REMARK                         _______ _______ _______ _____ _____    ______ ____
ROOT
ATOM      1  O   UNL     1       2.052   8.963  17.478  0.00  0.00    +0.000 OA
ATOM      2  C   UNL     1       2.191   8.691  18.668  0.00  0.00    +0.000 C 
ATOM      3  N   UNL     1       2.518   7.434  19.123  0.00  0.00    +0.000 N 
ATOM      4  H   UNL     1       2.496   7.253  20.117  0.00  0.00    +0.000 HD
ENDROOT
BRANCH   2   5
ATOM      5  C   UNL     1       1.911   9.709  19.774  0.00  0.00    +0.000 C 
BRANCH   5   6
ATOM      6  N   UNL     1       0.777  10.522  19.384  0.00  0.00    +0.000 N 
ATOM      7  C   UNL     1       0.873  11.692  18.695  0.00  0.00    +0.000 C 
ATOM      8  O   UNL     1       1.901  12.271  18.379  0.00  0.00    +0.000 OA
ATOM      9  C   UNL     1      -0.509  12.194  18.377  0.00  0.00    +0.000 C 
ATOM     10  C   UNL     1      -1.436  11.255  19.159  0.00  0.00    +0.000 C 
ATOM     11  C   UNL     1      -2.573  10.668  18.325  0.00  0.00    +0.000 C 
ATOM     12  C   UNL     1      -3.701  11.688  18.402  0.00  0.00    +0.000 C 
ATOM     13  C   UNL     1      -3.458  12.505  19.668  0.00  0.00    +0.000 C 
ATOM     14  C   UNL     1      -2.176  11.966  20.297  0.00  0.00    +0.000 C 
ATOM     15  C   UNL     1      -0.510  10.176  19.677  0.00  0.00    +0.000 C 
ATOM     16  O   UNL     1      -0.853   9.169  20.279  0.00  0.00    +0.000 OA
ENDBRANCH   5   6
ENDBRANCH   2   5
BRANCH   3  17
ATOM     17  C   UNL     1       2.700   6.292  18.233  0.00  0.00    +0.000 C 
BRANCH  17  18
ATOM     18  C   UNL     1       4.179   6.111  17.906  0.00  0.00    +0.000 A 
ATOM     19  C   UNL     1       4.717   6.518  16.673  0.00  0.00    +0.000 A 
ATOM     20  C   UNL     1       6.077   6.357  16.398  0.00  0.00    +0.000 A 
ATOM     21  C   UNL     1       6.922   5.794  17.352  0.00  0.00    +0.000 A 
ATOM     22  C   UNL     1       6.407   5.390  18.581  0.00  0.00    +0.000 A 
ATOM     23  C   UNL     1       5.046   5.544  18.857  0.00  0.00    +0.000 A 
ENDBRANCH  17  18
BRANCH  17  24
ATOM     24  C   UNL     1       2.071   5.012  18.787  0.00  0.00    +0.000 A 
ATOM     25  C   UNL     1       1.740   4.943  20.154  0.00  0.00    +0.000 A 
ATOM     26  C   UNL     1       1.116   3.812  20.685  0.00  0.00    +0.000 A 
ATOM     27  C   UNL     1       0.808   2.733  19.861  0.00  0.00    +0.000 A 
ATOM     28  C   UNL     1       1.124   2.783  18.507  0.00  0.00    +0.000 A 
ATOM     29  C   UNL     1       1.748   3.914  17.974  0.00  0.00    +0.000 A 
ENDBRANCH  17  24
ENDBRANCH   3  17
TORSDOF 5
ENDMDL
MODEL 9
REMARK VINA RESULT:      -7.5      3.198      7.788
REMARK  Name = 
REMARK  5 active torsions:
REMARK  status: ('A' for Active; 'I' for Inactive)
REMARK    1  A    between atoms: C_2  and  C_3
REMARK    2  A    between atoms: C_3  and  N_4
REMARK    3  A    between atoms: N_15  and  C_16
REMARK    4  A    between atoms: C_16  and  C_17
REMARK    5  A    between atoms: C_16  and  C_23
REMARK                            x       y       z     vdW  Elec       q    Type
REMARK                         _______ _______ _______ _____ _____    ______ ____
ROOT
ATOM      1  O   UNL     1       2.068   9.011  17.498  0.00  0.00    +0.000 OA
ATOM      2  C   UNL     1       2.158   8.740  18.693  0.00  0.00    +0.000 C 
ATOM      3  N   UNL     1       2.436   7.477  19.163  0.00  0.00    +0.000 N 
ATOM      4  H   UNL     1       2.376   7.302  20.157  0.00  0.00    +0.000 HD
ENDROOT
BRANCH   2   5
ATOM      5  C   UNL     1       1.866   9.770  19.785  0.00  0.00    +0.000 C 
BRANCH   5   6
ATOM      6  N   UNL     1       0.729  10.570  19.379  0.00  0.00    +0.000 N 
ATOM      7  C   UNL     1       0.823  11.752  18.710  0.00  0.00    +0.000 C 
ATOM      8  O   UNL     1       1.849  12.352  18.428  0.00  0.00    +0.000 OA
ATOM      9  C   UNL     1      -0.559  12.237  18.366  0.00  0.00    +0.000 C 
ATOM     10  C   UNL     1      -1.490  11.272  19.111  0.00  0.00    +0.000 C 
ATOM     11  C   UNL     1      -2.596  10.679  18.240  0.00  0.00    +0.000 C 
ATOM     12  C   UNL     1      -3.742  11.680  18.305  0.00  0.00    +0.000 C 
ATOM     13  C   UNL     1      -3.544  12.482  19.588  0.00  0.00    +0.000 C 
ATOM     14  C   UNL     1      -2.269  11.954  20.240  0.00  0.00    +0.000 C 
ATOM     15  C   UNL     1      -0.559  10.200  19.635  0.00  0.00    +0.000 C 
ATOM     16  O   UNL     1      -0.900   9.178  20.214  0.00  0.00    +0.000 OA
ENDBRANCH   5   6
ENDBRANCH   2   5
BRANCH   3  17
ATOM     17  C   UNL     1       2.620   6.327  18.285  0.00  0.00    +0.000 C 
BRANCH  17  18
ATOM     18  C   UNL     1       4.102   6.132  17.977  0.00  0.00    +0.000 A 
ATOM     19  C   UNL     1       4.982   5.563  18.914  0.00  0.00    +0.000 A 
ATOM     20  C   UNL     1       6.332   5.379  18.607  0.00  0.00    +0.000 A 
ATOM     21  C   UNL     1       6.823   5.754  17.359  0.00  0.00    +0.000 A 
ATOM     22  C   UNL     1       5.965   6.315  16.416  0.00  0.00    +0.000 A 
ATOM     23  C   UNL     1       4.615   6.505  16.722  0.00  0.00    +0.000 A 
ENDBRANCH  17  18
BRANCH  17  24
ATOM     24  C   UNL     1       1.975   5.057  18.841  0.00  0.00    +0.000 A 
ATOM     25  C   UNL     1       1.742   3.969  17.979  0.00  0.00    +0.000 A 
ATOM     26  C   UNL     1       1.204   2.773  18.460  0.00  0.00    +0.000 A 
ATOM     27  C   UNL     1       0.893   2.641  19.811  0.00  0.00    +0.000 A 
ATOM     28  C   UNL     1       1.119   3.705  20.680  0.00  0.00    +0.000 A 
ATOM     29  C   UNL     1       1.657   4.902  20.200  0.00  0.00    +0.000 A 
ENDBRANCH  17  24
ENDBRANCH   3  17
TORSDOF 5
ENDMDL
