MODEL 1
REMARK VINA RESULT:      -9.3      0.000      0.000
REMARK  Name = 
REMARK  4 active torsions:
REMARK  status: ('A' for Active; 'I' for Inactive)
REMARK    1  A    between atoms: C_2  and  C_10
REMARK    2  A    between atoms: N_3  and  C_4
REMARK    3  A    between atoms: C_14  and  S_15
REMARK    4  A    between atoms: S_15  and  N_18
REMARK                            x       y       z     vdW  Elec       q    Type
REMARK                         _______ _______ _______ _____ _____    ______ ____
ROOT
ATOM      1  C   UNL     1       7.965   8.165  18.258  0.00  0.00    +0.000 A 
ATOM      2  C   UNL     1       8.551   7.228  19.121  0.00  0.00    +0.000 A 
ATOM      3  C   UNL     1       8.161   5.890  19.090  0.00  0.00    +0.000 A 
ATOM      4  C   UNL     1       7.168   5.481  18.201  0.00  0.00    +0.000 A 
ATOM      5  C   UNL     1       6.568   6.418  17.346  0.00  0.00    +0.000 A 
ATOM      6  C   UNL     1       6.972   7.762  17.355  0.00  0.00    +0.000 A 
ENDROOT
BRANCH   1   8
ATOM      7  O   UNL     1       8.104  10.342  17.463  0.00  0.00    +0.000 OA
ATOM      8  C   UNL     1       8.500   9.551  18.313  0.00  0.00    +0.000 C 
ATOM      9  N   UNL     1       9.470   9.798  19.271  0.00  0.00    +0.000 N 
ATOM     10  H   UNL     1       9.822   9.010  19.798  0.00  0.00    +0.000 HD
BRANCH   9  11
ATOM     11  C   UNL     1      10.175  11.021  19.410  0.00  0.00    +0.000 A 
ATOM     12  C   UNL     1      11.182  11.429  18.539  0.00  0.00    +0.000 A 
ATOM     13  C   UNL     1      11.849  12.614  18.790  0.00  0.00    +0.000 A 
ATOM     14  N   UNL     1      11.578  13.417  19.840  0.00  0.00    +0.000 NA
ATOM     15  C   UNL     1      10.587  13.018  20.664  0.00  0.00    +0.000 A 
ATOM     16  C   UNL     1       9.856  11.850  20.487  0.00  0.00    +0.000 A 
ENDBRANCH   9  11
ENDBRANCH   1   8
BRANCH   5  17
ATOM     17  S   UNL     1       5.427   5.849  16.107  0.00  0.00    +0.000 S 
ATOM     18  O   UNL     1       5.209   6.972  15.227  0.00  0.00    +0.000 OA
ATOM     19  O   UNL     1       5.905   4.581  15.591  0.00  0.00    +0.000 OA
BRANCH  17  20
ATOM     20  N   UNL     1       3.957   5.532  16.935  0.00  0.00    +0.000 NA
ATOM     21  C   UNL     1       3.536   6.538  17.966  0.00  0.00    +0.000 C 
ATOM     22  C   UNL     1       2.877   5.985  19.249  0.00  0.00    +0.000 C 
ATOM     23  C   UNL     1       2.195   4.654  19.110  0.00  0.00    +0.000 A 
ATOM     24  C   UNL     1       1.157   4.259  19.966  0.00  0.00    +0.000 A 
ATOM     25  C   UNL     1       0.568   2.999  19.825  0.00  0.00    +0.000 A 
ATOM     26  C   UNL     1       1.022   2.123  18.841  0.00  0.00    +0.000 A 
ATOM     27  C   UNL     1       2.087   2.493  18.021  0.00  0.00    +0.000 A 
ATOM     28  C   UNL     1       2.683   3.753  18.160  0.00  0.00    +0.000 A 
ATOM     29  C   UNL     1       3.926   4.119  17.397  0.00  0.00    +0.000 C 
ENDBRANCH  17  20
ENDBRANCH   5  17
TORSDOF 4
ENDMDL
MODEL 2
REMARK VINA RESULT:      -8.4      6.534      8.944
REMARK  Name = 
REMARK  4 active torsions:
REMARK  status: ('A' for Active; 'I' for Inactive)
REMARK    1  A    between atoms: C_2  and  C_10
REMARK    2  A    between atoms: N_3  and  C_4
REMARK    3  A    between atoms: C_14  and  S_15
REMARK    4  A    between atoms: S_15  and  N_18
REMARK                            x       y       z     vdW  Elec       q    Type
REMARK                         _______ _______ _______ _____ _____    ______ ____
ROOT
ATOM      1  C   UNL     1       2.407   7.682  18.688  0.00  0.00    +0.000 A 
ATOM      2  C   UNL     1       2.082   8.590  17.670  0.00  0.00    +0.000 A 
ATOM      3  C   UNL     1       1.229   9.664  17.919  0.00  0.00    +0.000 A 
ATOM      4  C   UNL     1       0.682   9.829  19.191  0.00  0.00    +0.000 A 
ATOM      5  C   UNL     1       0.992   8.915  20.208  0.00  0.00    +0.000 A 
ATOM      6  C   UNL     1       1.869   7.845  19.972  0.00  0.00    +0.000 A 
ENDROOT
BRANCH   1   8
ATOM      7  O   UNL     1       3.211   5.510  18.851  0.00  0.00    +0.000 OA
ATOM      8  C   UNL     1       3.383   6.614  18.345  0.00  0.00    +0.000 C 
ATOM      9  N   UNL     1       4.453   6.991  17.550  0.00  0.00    +0.000 N 
ATOM     10  H   UNL     1       4.559   7.975  17.340  0.00  0.00    +0.000 HD
BRANCH   9  11
ATOM     11  C   UNL     1       5.540   6.148  17.205  0.00  0.00    +0.000 A 
ATOM     12  C   UNL     1       5.662   5.522  15.968  0.00  0.00    +0.000 A 
ATOM     13  C   UNL     1       6.732   4.674  15.746  0.00  0.00    +0.000 A 
ATOM     14  N   UNL     1       7.685   4.415  16.665  0.00  0.00    +0.000 NA
ATOM     15  C   UNL     1       7.563   5.044  17.852  0.00  0.00    +0.000 A 
ATOM     16  C   UNL     1       6.530   5.919  18.163  0.00  0.00    +0.000 A 
ENDBRANCH   9  11
ENDBRANCH   1   8
BRANCH   5  17
ATOM     17  S   UNL     1       0.421   9.235  21.862  0.00  0.00    +0.000 S 
ATOM     18  O   UNL     1      -0.514   8.180  22.167  0.00  0.00    +0.000 OA
ATOM     19  O   UNL     1       1.576   9.474  22.708  0.00  0.00    +0.000 OA
BRANCH  17  20
ATOM     20  N   UNL     1      -0.451  10.711  21.777  0.00  0.00    +0.000 NA
ATOM     21  C   UNL     1       0.311  11.917  21.314  0.00  0.00    +0.000 C 
ATOM     22  C   UNL     1      -0.019  13.258  22.008  0.00  0.00    +0.000 C 
ATOM     23  C   UNL     1      -1.396  13.364  22.598  0.00  0.00    +0.000 A 
ATOM     24  C   UNL     1      -2.027  14.601  22.792  0.00  0.00    +0.000 A 
ATOM     25  C   UNL     1      -3.296  14.661  23.373  0.00  0.00    +0.000 A 
ATOM     26  C   UNL     1      -3.936  13.492  23.777  0.00  0.00    +0.000 A 
ATOM     27  C   UNL     1      -3.291  12.264  23.632  0.00  0.00    +0.000 A 
ATOM     28  C   UNL     1      -2.016  12.197  23.053  0.00  0.00    +0.000 A 
ATOM     29  C   UNL     1      -1.236  10.912  23.024  0.00  0.00    +0.000 C 
ENDBRANCH  17  20
ENDBRANCH   5  17
TORSDOF 4
ENDMDL
MODEL 3
REMARK VINA RESULT:      -8.2      5.915      8.436
REMARK  Name = 
REMARK  4 active torsions:
REMARK  status: ('A' for Active; 'I' for Inactive)
REMARK    1  A    between atoms: C_2  and  C_10
REMARK    2  A    between atoms: N_3  and  C_4
REMARK    3  A    between atoms: C_14  and  S_15
REMARK    4  A    between atoms: S_15  and  N_18
REMARK                            x       y       z     vdW  Elec       q    Type
REMARK                         _______ _______ _______ _____ _____    ______ ____
ROOT
ATOM      1  C   UNL     1       2.426   6.969  19.172  0.00  0.00    +0.000 A 
ATOM      2  C   UNL     1       1.916   6.347  20.322  0.00  0.00    +0.000 A 
ATOM      3  C   UNL     1       1.088   7.044  21.200  0.00  0.00    +0.000 A 
ATOM      4  C   UNL     1       0.774   8.378  20.940  0.00  0.00    +0.000 A 
ATOM      5  C   UNL     1       1.294   9.007  19.800  0.00  0.00    +0.000 A 
ATOM      6  C   UNL     1       2.109   8.306  18.898  0.00  0.00    +0.000 A 
ENDROOT
BRANCH   1   8
ATOM      7  O   UNL     1       2.851   4.974  18.064  0.00  0.00    +0.000 OA
ATOM      8  C   UNL     1       3.238   6.121  18.260  0.00  0.00    +0.000 C 
ATOM      9  N   UNL     1       4.413   6.680  17.783  0.00  0.00    +0.000 N 
ATOM     10  H   UNL     1       4.693   7.577  18.158  0.00  0.00    +0.000 HD
BRANCH   9  11
ATOM     11  C   UNL     1       5.370   5.996  16.991  0.00  0.00    +0.000 A 
ATOM     12  C   UNL     1       5.314   5.935  15.602  0.00  0.00    +0.000 A 
ATOM     13  C   UNL     1       6.265   5.196  14.922  0.00  0.00    +0.000 A 
ATOM     14  N   UNL     1       7.265   4.524  15.530  0.00  0.00    +0.000 NA
ATOM     15  C   UNL     1       7.318   4.609  16.875  0.00  0.00    +0.000 A 
ATOM     16  C   UNL     1       6.414   5.333  17.641  0.00  0.00    +0.000 A 
ENDBRANCH   9  11
ENDBRANCH   1   8
BRANCH   5  17
ATOM     17  S   UNL     1       0.750  10.652  19.397  0.00  0.00    +0.000 S 
ATOM     18  O   UNL     1       0.781  11.391  20.636  0.00  0.00    +0.000 OA
ATOM     19  O   UNL     1       1.493  11.110  18.238  0.00  0.00    +0.000 OA
BRANCH  17  20
ATOM     20  N   UNL     1      -0.889  10.496  18.913  0.00  0.00    +0.000 NA
ATOM     21  C   UNL     1      -1.136   9.900  17.558  0.00  0.00    +0.000 C 
ATOM     22  C   UNL     1      -2.296  10.501  16.734  0.00  0.00    +0.000 C 
ATOM     23  C   UNL     1      -3.392  11.152  17.529  0.00  0.00    +0.000 A 
ATOM     24  C   UNL     1      -4.695  11.280  17.030  0.00  0.00    +0.000 A 
ATOM     25  C   UNL     1      -5.680  11.920  17.787  0.00  0.00    +0.000 A 
ATOM     26  C   UNL     1      -5.366  12.449  19.037  0.00  0.00    +0.000 A 
ATOM     27  C   UNL     1      -4.059  12.369  19.515  0.00  0.00    +0.000 A 
ATOM     28  C   UNL     1      -3.067  11.730  18.759  0.00  0.00    +0.000 A 
ATOM     29  C   UNL     1      -1.623  11.762  19.177  0.00  0.00    +0.000 C 
ENDBRANCH  17  20
ENDBRANCH   5  17
TORSDOF 4
ENDMDL
MODEL 4
REMARK VINA RESULT:      -8.1      1.502      1.548
REMARK  Name = 
REMARK  4 active torsions:
REMARK  status: ('A' for Active; 'I' for Inactive)
REMARK    1  A    between atoms: C_2  and  C_10
REMARK    2  A    between atoms: N_3  and  C_4
REMARK    3  A    between atoms: C_14  and  S_15
REMARK    4  A    between atoms: S_15  and  N_18
REMARK                            x       y       z     vdW  Elec       q    Type
REMARK                         _______ _______ _______ _____ _____    ______ ____
ROOT
ATOM      1  C   UNL     1       8.080   8.104  18.404  0.00  0.00    +0.000 A 
ATOM      2  C   UNL     1       8.639   7.093  19.200  0.00  0.00    +0.000 A 
ATOM      3  C   UNL     1       8.192   5.777  19.097  0.00  0.00    +0.000 A 
ATOM      4  C   UNL     1       7.168   5.464  18.204  0.00  0.00    +0.000 A 
ATOM      5  C   UNL     1       6.596   6.474  17.417  0.00  0.00    +0.000 A 
ATOM      6  C   UNL     1       7.057   7.797  17.497  0.00  0.00    +0.000 A 
ENDROOT
BRANCH   1   8
ATOM      7  O   UNL     1       9.418   9.661  19.486  0.00  0.00    +0.000 OA
ATOM      8  C   UNL     1       8.674   9.460  18.532  0.00  0.00    +0.000 C 
ATOM      9  N   UNL     1       8.260  10.404  17.606  0.00  0.00    +0.000 N 
ATOM     10  H   UNL     1       7.515  10.145  16.972  0.00  0.00    +0.000 HD
BRANCH   9  11
ATOM     11  C   UNL     1       8.629  11.773  17.627  0.00  0.00    +0.000 A 
ATOM     12  C   UNL     1       9.949  12.211  17.702  0.00  0.00    +0.000 A 
ATOM     13  C   UNL     1      10.204  13.568  17.772  0.00  0.00    +0.000 A 
ATOM     14  N   UNL     1       9.239  14.512  17.766  0.00  0.00    +0.000 NA
ATOM     15  C   UNL     1       7.967  14.073  17.674  0.00  0.00    +0.000 A 
ATOM     16  C   UNL     1       7.615  12.732  17.589  0.00  0.00    +0.000 A 
ENDBRANCH   9  11
ENDBRANCH   1   8
BRANCH   5  17
ATOM     17  S   UNL     1       5.411   6.029  16.167  0.00  0.00    +0.000 S 
ATOM     18  O   UNL     1       5.190   7.224  15.391  0.00  0.00    +0.000 OA
ATOM     19  O   UNL     1       5.854   4.801  15.533  0.00  0.00    +0.000 OA
BRANCH  17  20
ATOM     20  N   UNL     1       3.960   5.665  17.007  0.00  0.00    +0.000 NA
ATOM     21  C   UNL     1       3.558   6.614  18.098  0.00  0.00    +0.000 C 
ATOM     22  C   UNL     1       2.926   5.992  19.364  0.00  0.00    +0.000 C 
ATOM     23  C   UNL     1       2.243   4.669  19.168  0.00  0.00    +0.000 A 
ATOM     24  C   UNL     1       1.224   4.226  20.022  0.00  0.00    +0.000 A 
ATOM     25  C   UNL     1       0.634   2.974  19.827  0.00  0.00    +0.000 A 
ATOM     26  C   UNL     1       1.068   2.153  18.789  0.00  0.00    +0.000 A 
ATOM     27  C   UNL     1       2.116   2.567  17.968  0.00  0.00    +0.000 A 
ATOM     28  C   UNL     1       2.713   3.821  18.161  0.00  0.00    +0.000 A 
ATOM     29  C   UNL     1       3.940   4.229  17.394  0.00  0.00    +0.000 C 
ENDBRANCH  17  20
ENDBRANCH   5  17
TORSDOF 4
ENDMDL
MODEL 5
REMARK VINA RESULT:      -8.1      0.735      1.488
REMARK  Name = 
REMARK  4 active torsions:
REMARK  status: ('A' for Active; 'I' for Inactive)
REMARK    1  A    between atoms: C_2  and  C_10
REMARK    2  A    between atoms: N_3  and  C_4
REMARK    3  A    between atoms: C_14  and  S_15
REMARK    4  A    between atoms: S_15  and  N_18
REMARK                            x       y       z     vdW  Elec       q    Type
REMARK                         _______ _______ _______ _____ _____    ______ ____
ROOT
ATOM      1  C   UNL     1       8.070   8.379  18.258  0.00  0.00    +0.000 A 
ATOM      2  C   UNL     1       8.664   7.576  19.244  0.00  0.00    +0.000 A 
ATOM      3  C   UNL     1       8.337   6.226  19.355  0.00  0.00    +0.000 A 
ATOM      4  C   UNL     1       7.399   5.670  18.486  0.00  0.00    +0.000 A 
ATOM      5  C   UNL     1       6.791   6.472  17.509  0.00  0.00    +0.000 A 
ATOM      6  C   UNL     1       7.133   7.827  17.375  0.00  0.00    +0.000 A 
ENDROOT
BRANCH   1   8
ATOM      7  O   UNL     1       8.013  10.504  17.325  0.00  0.00    +0.000 OA
ATOM      8  C   UNL     1       8.539   9.787  18.171  0.00  0.00    +0.000 C 
ATOM      9  N   UNL     1       9.595  10.136  18.996  0.00  0.00    +0.000 N 
ATOM     10  H   UNL     1      10.041   9.399  19.526  0.00  0.00    +0.000 HD
BRANCH   9  11
ATOM     11  C   UNL     1      10.250  11.394  18.983  0.00  0.00    +0.000 A 
ATOM     12  C   UNL     1      10.766  11.977  17.829  0.00  0.00    +0.000 A 
ATOM     13  C   UNL     1      11.437  13.182  17.927  0.00  0.00    +0.000 A 
ATOM     14  N   UNL     1      11.621  13.844  19.088  0.00  0.00    +0.000 NA
ATOM     15  C   UNL     1      11.098  13.276  20.194  0.00  0.00    +0.000 A 
ATOM     16  C   UNL     1      10.401  12.075  20.192  0.00  0.00    +0.000 A 
ENDBRANCH   9  11
ENDBRANCH   1   8
BRANCH   5  17
ATOM     17  S   UNL     1       5.726   5.710  16.306  0.00  0.00    +0.000 S 
ATOM     18  O   UNL     1       4.941   6.780  15.740  0.00  0.00    +0.000 OA
ATOM     19  O   UNL     1       6.532   4.851  15.459  0.00  0.00    +0.000 OA
BRANCH  17  20
ATOM     20  N   UNL     1       4.670   4.690  17.196  0.00  0.00    +0.000 NA
ATOM     21  C   UNL     1       4.098   3.512  16.463  0.00  0.00    +0.000 C 
ATOM     22  C   UNL     1       2.632   3.142  16.779  0.00  0.00    +0.000 C 
ATOM     23  C   UNL     1       2.132   3.556  18.134  0.00  0.00    +0.000 A 
ATOM     24  C   UNL     1       1.072   2.894  18.769  0.00  0.00    +0.000 A 
ATOM     25  C   UNL     1       0.615   3.330  20.015  0.00  0.00    +0.000 A 
ATOM     26  C   UNL     1       1.202   4.435  20.627  0.00  0.00    +0.000 A 
ATOM     27  C   UNL     1       2.223   5.127  19.977  0.00  0.00    +0.000 A 
ATOM     28  C   UNL     1       2.683   4.697  18.725  0.00  0.00    +0.000 A 
ATOM     29  C   UNL     1       3.672   5.508  17.934  0.00  0.00    +0.000 C 
ENDBRANCH  17  20
ENDBRANCH   5  17
TORSDOF 4
ENDMDL
MODEL 6
REMARK VINA RESULT:      -7.9      7.192      9.915
REMARK  Name = 
REMARK  4 active torsions:
REMARK  status: ('A' for Active; 'I' for Inactive)
REMARK    1  A    between atoms: C_2  and  C_10
REMARK    2  A    between atoms: N_3  and  C_4
REMARK    3  A    between atoms: C_14  and  S_15
REMARK    4  A    between atoms: S_15  and  N_18
REMARK                            x       y       z     vdW  Elec       q    Type
REMARK                         _______ _______ _______ _____ _____    ______ ____
ROOT
ATOM      1  C   UNL     1       1.399   8.760  20.165  0.00  0.00    +0.000 A 
ATOM      2  C   UNL     1       1.168   8.424  21.507  0.00  0.00    +0.000 A 
ATOM      3  C   UNL     1       0.396   9.248  22.324  0.00  0.00    +0.000 A 
ATOM      4  C   UNL     1      -0.141  10.426  21.806  0.00  0.00    +0.000 A 
ATOM      5  C   UNL     1       0.100  10.773  20.468  0.00  0.00    +0.000 A 
ATOM      6  C   UNL     1       0.856   9.937  19.633  0.00  0.00    +0.000 A 
ENDROOT
BRANCH   1   8
ATOM      7  O   UNL     1       2.417   8.083  18.192  0.00  0.00    +0.000 OA
ATOM      8  C   UNL     1       2.171   7.781  19.355  0.00  0.00    +0.000 C 
ATOM      9  N   UNL     1       2.466   6.573  19.966  0.00  0.00    +0.000 N 
ATOM     10  H   UNL     1       2.058   6.393  20.874  0.00  0.00    +0.000 HD
BRANCH   9  11
ATOM     11  C   UNL     1       3.097   5.476  19.325  0.00  0.00    +0.000 A 
ATOM     12  C   UNL     1       4.463   5.222  19.407  0.00  0.00    +0.000 A 
ATOM     13  C   UNL     1       4.992   4.158  18.702  0.00  0.00    +0.000 A 
ATOM     14  N   UNL     1       4.256   3.331  17.930  0.00  0.00    +0.000 NA
ATOM     15  C   UNL     1       2.931   3.578  17.877  0.00  0.00    +0.000 A 
ATOM     16  C   UNL     1       2.309   4.616  18.557  0.00  0.00    +0.000 A 
ENDBRANCH   9  11
ENDBRANCH   1   8
BRANCH   5  17
ATOM     17  S   UNL     1      -0.729  12.188  19.780  0.00  0.00    +0.000 S 
ATOM     18  O   UNL     1      -0.788  13.164  20.841  0.00  0.00    +0.000 OA
ATOM     19  O   UNL     1      -0.110  12.508  18.508  0.00  0.00    +0.000 OA
BRANCH  17  20
ATOM     20  N   UNL     1      -2.331  11.673  19.443  0.00  0.00    +0.000 NA
ATOM     21  C   UNL     1      -2.612  11.229  18.038  0.00  0.00    +0.000 C 
ATOM     22  C   UNL     1      -3.989  11.612  17.449  0.00  0.00    +0.000 C 
ATOM     23  C   UNL     1      -5.087  11.830  18.451  0.00  0.00    +0.000 A 
ATOM     24  C   UNL     1      -6.440  11.677  18.114  0.00  0.00    +0.000 A 
ATOM     25  C   UNL     1      -7.434  11.920  19.065  0.00  0.00    +0.000 A 
ATOM     26  C   UNL     1      -7.087  12.331  20.350  0.00  0.00    +0.000 A 
ATOM     27  C   UNL     1      -5.746  12.534  20.674  0.00  0.00    +0.000 A 
ATOM     28  C   UNL     1      -4.744  12.295  19.723  0.00  0.00    +0.000 A 
ATOM     29  C   UNL     1      -3.308  12.649  19.994  0.00  0.00    +0.000 C 
ENDBRANCH  17  20
ENDBRANCH   5  17
TORSDOF 4
ENDMDL
MODEL 7
REMARK VINA RESULT:      -7.8      6.886      9.757
REMARK  Name = 
REMARK  4 active torsions:
REMARK  status: ('A' for Active; 'I' for Inactive)
REMARK    1  A    between atoms: C_2  and  C_10
REMARK    2  A    between atoms: N_3  and  C_4
REMARK    3  A    between atoms: C_14  and  S_15
REMARK    4  A    between atoms: S_15  and  N_18
REMARK                            x       y       z     vdW  Elec       q    Type
REMARK                         _______ _______ _______ _____ _____    ______ ____
ROOT
ATOM      1  C   UNL     1       1.119   8.846  20.527  0.00  0.00    +0.000 A 
ATOM      2  C   UNL     1       0.378   8.258  21.562  0.00  0.00    +0.000 A 
ATOM      3  C   UNL     1      -0.399   9.041  22.415  0.00  0.00    +0.000 A 
ATOM      4  C   UNL     1      -0.428  10.425  22.245  0.00  0.00    +0.000 A 
ATOM      5  C   UNL     1       0.324  11.018  21.220  0.00  0.00    +0.000 A 
ATOM      6  C   UNL     1       1.089  10.235  20.343  0.00  0.00    +0.000 A 
ENDROOT
BRANCH   1   8
ATOM      7  O   UNL     1       1.998   8.269  18.457  0.00  0.00    +0.000 OA
ATOM      8  C   UNL     1       1.856   7.922  19.625  0.00  0.00    +0.000 C 
ATOM      9  N   UNL     1       2.238   6.706  20.168  0.00  0.00    +0.000 N 
ATOM     10  H   UNL     1       1.910   6.483  21.099  0.00  0.00    +0.000 HD
BRANCH   9  11
ATOM     11  C   UNL     1       2.851   5.653  19.442  0.00  0.00    +0.000 A 
ATOM     12  C   UNL     1       4.222   5.412  19.451  0.00  0.00    +0.000 A 
ATOM     13  C   UNL     1       4.731   4.393  18.667  0.00  0.00    +0.000 A 
ATOM     14  N   UNL     1       3.970   3.601  17.883  0.00  0.00    +0.000 NA
ATOM     15  C   UNL     1       2.641   3.834  17.900  0.00  0.00    +0.000 A 
ATOM     16  C   UNL     1       2.039   4.827  18.662  0.00  0.00    +0.000 A 
ENDBRANCH   9  11
ENDBRANCH   1   8
BRANCH   5  17
ATOM     17  S   UNL     1       0.143  12.760  20.915  0.00  0.00    +0.000 S 
ATOM     18  O   UNL     1       0.101  13.386  22.214  0.00  0.00    +0.000 OA
ATOM     19  O   UNL     1       1.131  13.158  19.929  0.00  0.00    +0.000 OA
BRANCH  17  20
ATOM     20  N   UNL     1      -1.399  12.950  20.184  0.00  0.00    +0.000 NA
ATOM     21  C   UNL     1      -2.521  13.374  21.085  0.00  0.00    +0.000 C 
ATOM     22  C   UNL     1      -3.905  12.740  20.819  0.00  0.00    +0.000 C 
ATOM     23  C   UNL     1      -4.146  12.268  19.414  0.00  0.00    +0.000 A 
ATOM     24  C   UNL     1      -5.438  12.154  18.881  0.00  0.00    +0.000 A 
ATOM     25  C   UNL     1      -5.624  11.682  17.579  0.00  0.00    +0.000 A 
ATOM     26  C   UNL     1      -4.525  11.306  16.809  0.00  0.00    +0.000 A 
ATOM     27  C   UNL     1      -3.243  11.370  17.353  0.00  0.00    +0.000 A 
ATOM     28  C   UNL     1      -3.051  11.840  18.659  0.00  0.00    +0.000 A 
ATOM     29  C   UNL     1      -1.703  11.777  19.323  0.00  0.00    +0.000 C 
ENDBRANCH  17  20
ENDBRANCH   5  17
TORSDOF 4
ENDMDL
MODEL 8
REMARK VINA RESULT:      -7.8      5.489      7.962
REMARK  Name = 
REMARK  4 active torsions:
REMARK  status: ('A' for Active; 'I' for Inactive)
REMARK    1  A    between atoms: C_2  and  C_10
REMARK    2  A    between atoms: N_3  and  C_4
REMARK    3  A    between atoms: C_14  and  S_15
REMARK    4  A    between atoms: S_15  and  N_18
REMARK                            x       y       z     vdW  Elec       q    Type
REMARK                         _______ _______ _______ _____ _____    ______ ____
ROOT
ATOM      1  C   UNL     1       1.388   8.970  20.293  0.00  0.00    +0.000 A 
ATOM      2  C   UNL     1       1.445   9.531  19.008  0.00  0.00    +0.000 A 
ATOM      3  C   UNL     1       1.841   8.764  17.914  0.00  0.00    +0.000 A 
ATOM      4  C   UNL     1       2.197   7.428  18.100  0.00  0.00    +0.000 A 
ATOM      5  C   UNL     1       2.156   6.869  19.385  0.00  0.00    +0.000 A 
ATOM      6  C   UNL     1       1.736   7.627  20.489  0.00  0.00    +0.000 A 
ENDROOT
BRANCH   1   8
ATOM      7  O   UNL     1       1.124   9.507  22.536  0.00  0.00    +0.000 OA
ATOM      8  C   UNL     1       0.883   9.847  21.382  0.00  0.00    +0.000 C 
ATOM      9  N   UNL     1       0.104  10.925  20.994  0.00  0.00    +0.000 N 
ATOM     10  H   UNL     1      -0.153  10.992  20.018  0.00  0.00    +0.000 HD
BRANCH   9  11
ATOM     11  C   UNL     1      -0.556  11.809  21.886  0.00  0.00    +0.000 A 
ATOM     12  C   UNL     1      -1.617  11.425  22.700  0.00  0.00    +0.000 A 
ATOM     13  C   UNL     1      -2.230  12.375  23.496  0.00  0.00    +0.000 A 
ATOM     14  N   UNL     1      -1.855  13.671  23.540  0.00  0.00    +0.000 NA
ATOM     15  C   UNL     1      -0.812  14.022  22.760  0.00  0.00    +0.000 A 
ATOM     16  C   UNL     1      -0.129  13.137  21.935  0.00  0.00    +0.000 A 
ENDBRANCH   9  11
ENDBRANCH   1   8
BRANCH   5  17
ATOM     17  S   UNL     1       2.452   5.125  19.577  0.00  0.00    +0.000 S 
ATOM     18  O   UNL     1       2.686   4.918  20.986  0.00  0.00    +0.000 OA
ATOM     19  O   UNL     1       1.402   4.403  18.883  0.00  0.00    +0.000 OA
BRANCH  17  20
ATOM     20  N   UNL     1       3.917   4.805  18.743  0.00  0.00    +0.000 NA
ATOM     21  C   UNL     1       5.157   5.449  19.291  0.00  0.00    +0.000 C 
ATOM     22  C   UNL     1       6.188   5.961  18.260  0.00  0.00    +0.000 C 
ATOM     23  C   UNL     1       6.171   5.273  16.925  0.00  0.00    +0.000 A 
ATOM     24  C   UNL     1       7.301   5.236  16.095  0.00  0.00    +0.000 A 
ATOM     25  C   UNL     1       7.237   4.614  14.845  0.00  0.00    +0.000 A 
ATOM     26  C   UNL     1       6.044   4.040  14.411  0.00  0.00    +0.000 A 
ATOM     27  C   UNL     1       4.905   4.119  15.212  0.00  0.00    +0.000 A 
ATOM     28  C   UNL     1       4.962   4.745  16.465  0.00  0.00    +0.000 A 
ATOM     29  C   UNL     1       3.721   4.979  17.280  0.00  0.00    +0.000 C 
ENDBRANCH  17  20
ENDBRANCH   5  17
TORSDOF 4
ENDMDL
MODEL 9
REMARK VINA RESULT:      -7.7      6.783     10.222
REMARK  Name = 
REMARK  4 active torsions:
REMARK  status: ('A' for Active; 'I' for Inactive)
REMARK    1  A    between atoms: C_2  and  C_10
REMARK    2  A    between atoms: N_3  and  C_4
REMARK    3  A    between atoms: C_14  and  S_15
REMARK    4  A    between atoms: S_15  and  N_18
REMARK                            x       y       z     vdW  Elec       q    Type
REMARK                         _______ _______ _______ _____ _____    ______ ____
ROOT
ATOM      1  C   UNL     1       1.209   8.840  20.402  0.00  0.00    +0.000 A 
ATOM      2  C   UNL     1       1.202   8.524  21.769  0.00  0.00    +0.000 A 
ATOM      3  C   UNL     1       0.478   9.299  22.674  0.00  0.00    +0.000 A 
ATOM      4  C   UNL     1      -0.236  10.407  22.218  0.00  0.00    +0.000 A 
ATOM      5  C   UNL     1      -0.219  10.734  20.854  0.00  0.00    +0.000 A 
ATOM      6  C   UNL     1       0.488   9.946  19.933  0.00  0.00    +0.000 A 
ENDROOT
BRANCH   1   8
ATOM      7  O   UNL     1       2.122   8.269  18.345  0.00  0.00    +0.000 OA
ATOM      8  C   UNL     1       1.948   7.912  19.506  0.00  0.00    +0.000 C 
ATOM      9  N   UNL     1       2.297   6.684  20.044  0.00  0.00    +0.000 N 
ATOM     10  H   UNL     1       1.945   6.457  20.965  0.00  0.00    +0.000 HD
BRANCH   9  11
ATOM     11  C   UNL     1       2.907   5.628  19.320  0.00  0.00    +0.000 A 
ATOM     12  C   UNL     1       2.205   4.769  18.478  0.00  0.00    +0.000 A 
ATOM     13  C   UNL     1       2.881   3.735  17.858  0.00  0.00    +0.000 A 
ATOM     14  N   UNL     1       4.201   3.504  18.014  0.00  0.00    +0.000 NA
ATOM     15  C   UNL     1       4.871   4.356  18.817  0.00  0.00    +0.000 A 
ATOM     16  C   UNL     1       4.280   5.428  19.474  0.00  0.00    +0.000 A 
ENDBRANCH   9  11
ENDBRANCH   1   8
BRANCH   5  17
ATOM     17  S   UNL     1      -1.266  12.047  20.268  0.00  0.00    +0.000 S 
ATOM     18  O   UNL     1      -1.714  11.639  18.959  0.00  0.00    +0.000 OA
ATOM     19  O   UNL     1      -2.219  12.373  21.313  0.00  0.00    +0.000 OA
BRANCH  17  20
ATOM     20  N   UNL     1      -0.244  13.412  20.078  0.00  0.00    +0.000 NA
ATOM     21  C   UNL     1      -0.887  14.759  20.225  0.00  0.00    +0.000 C 
ATOM     22  C   UNL     1      -0.393  15.873  19.275  0.00  0.00    +0.000 C 
ATOM     23  C   UNL     1       1.006  15.712  18.753  0.00  0.00    +0.000 A 
ATOM     24  C   UNL     1       1.772  16.807  18.330  0.00  0.00    +0.000 A 
ATOM     25  C   UNL     1       3.058  16.613  17.820  0.00  0.00    +0.000 A 
ATOM     26  C   UNL     1       3.581  15.326  17.716  0.00  0.00    +0.000 A 
ATOM     27  C   UNL     1       2.804  14.230  18.089  0.00  0.00    +0.000 A 
ATOM     28  C   UNL     1       1.512  14.418  18.598  0.00  0.00    +0.000 A 
ATOM     29  C   UNL     1       0.598  13.254  18.863  0.00  0.00    +0.000 C 
ENDBRANCH  17  20
ENDBRANCH   5  17
TORSDOF 4
ENDMDL
