MODEL 1
REMARK VINA RESULT:      -8.2      0.000      0.000
REMARK  Name = 
REMARK  6 active torsions:
REMARK  status: ('A' for Active; 'I' for Inactive)
REMARK    1  A    between atoms: C_1  and  C_2
REMARK    2  A    between atoms: C_5  and  C_6
REMARK    3  A    between atoms: C_6  and  C_7
REMARK    4  A    between atoms: N_11  and  C_12
REMARK    5  A    between atoms: C_12  and  C_13
REMARK    6  A    between atoms: C_18  and  C_19
REMARK                            x       y       z     vdW  Elec       q    Type
REMARK                         _______ _______ _______ _____ _____    ______ ____
ROOT
ATOM      1  C   UNL     1      -0.438  10.814  19.001  0.00  0.00    +0.000 C 
ATOM      2  C   UNL     1       0.191  12.067  19.651  0.00  0.00    +0.000 C 
ATOM      3  N   UNL     1       0.317  10.436  17.825  0.00  0.00    +0.000 N 
ATOM      4  C   UNL     1       1.346   9.573  18.138  0.00  0.00    +0.000 C 
ATOM      5  O   UNL     1       2.246   9.273  17.374  0.00  0.00    +0.000 OA
ATOM      6  N   UNL     1       1.163   9.145  19.417  0.00  0.00    +0.000 N 
ATOM      7  C   UNL     1       0.003   9.668  19.933  0.00  0.00    +0.000 C 
ATOM      8  O   UNL     1      -0.497   9.370  21.010  0.00  0.00    +0.000 OA
ATOM      9  H   UNL     1       0.299  10.924  16.940  0.00  0.00    +0.000 HD
ENDROOT
BRANCH   1  14
ATOM     10  C   UNL     1      -6.181  11.306  17.937  0.00  0.00    +0.000 C 
ATOM     11  C   UNL     1      -4.705  11.202  18.182  0.00  0.00    +0.000 A 
ATOM     12  C   UNL     1      -4.060  12.087  19.044  0.00  0.00    +0.000 A 
ATOM     13  C   UNL     1      -2.688  11.965  19.287  0.00  0.00    +0.000 A 
ATOM     14  C   UNL     1      -1.919  10.943  18.696  0.00  0.00    +0.000 A 
ATOM     15  C   UNL     1      -2.574  10.084  17.799  0.00  0.00    +0.000 A 
ATOM     16  C   UNL     1      -3.949  10.208  17.552  0.00  0.00    +0.000 A 
ENDBRANCH   1  14
BRANCH   6  17
ATOM     17  C   UNL     1       2.122   8.377  20.177  0.00  0.00    +0.000 C 
BRANCH  17  18
ATOM     18  C   UNL     1       2.180   6.910  19.812  0.00  0.00    +0.000 A 
ATOM     19  C   UNL     1       1.463   5.960  20.428  0.00  0.00    +0.000 A 
ATOM     20  C   UNL     1       1.625   4.544  20.038  0.00  0.00    +0.000 A 
ATOM     21  O   UNL     1       0.920   3.713  20.605  0.00  0.00    +0.000 OA
ATOM     22  N   UNL     1       2.560   4.310  19.061  0.00  0.00    +0.000 N 
ATOM     23  C   UNL     1       2.955   3.079  18.543  0.00  0.00    +0.000 A 
ATOM     24  C   UNL     1       2.466   1.755  19.033  0.00  0.00    +0.000 C 
ATOM     25  C   UNL     1       3.865   3.187  17.560  0.00  0.00    +0.000 A 
ATOM     26  S   UNL     1       4.281   4.835  17.221  0.00  0.00    +0.000 S 
ATOM     27  C   UNL     1       3.196   5.388  18.481  0.00  0.00    +0.000 A 
ATOM     28  N   UNL     1       3.054   6.634  18.786  0.00  0.00    +0.000 NA
ENDBRANCH  17  18
ENDBRANCH   6  17
TORSDOF 3
ENDMDL
MODEL 2
REMARK VINA RESULT:      -8.1      1.478      1.759
REMARK  Name = 
REMARK  6 active torsions:
REMARK  status: ('A' for Active; 'I' for Inactive)
REMARK    1  A    between atoms: C_1  and  C_2
REMARK    2  A    between atoms: C_5  and  C_6
REMARK    3  A    between atoms: C_6  and  C_7
REMARK    4  A    between atoms: N_11  and  C_12
REMARK    5  A    between atoms: C_12  and  C_13
REMARK    6  A    between atoms: C_18  and  C_19
REMARK                            x       y       z     vdW  Elec       q    Type
REMARK                         _______ _______ _______ _____ _____    ______ ____
ROOT
ATOM      1  C   UNL     1      -0.374  10.732  18.992  0.00  0.00    +0.000 C 
ATOM      2  C   UNL     1       0.250  11.978  19.661  0.00  0.00    +0.000 C 
ATOM      3  N   UNL     1       0.389  10.365  17.819  0.00  0.00    +0.000 N 
ATOM      4  C   UNL     1       1.415   9.498  18.131  0.00  0.00    +0.000 C 
ATOM      5  O   UNL     1       2.321   9.205  17.372  0.00  0.00    +0.000 OA
ATOM      6  N   UNL     1       1.221   9.057  19.404  0.00  0.00    +0.000 N 
ATOM      7  C   UNL     1       0.057   9.576  19.916  0.00  0.00    +0.000 C 
ATOM      8  O   UNL     1      -0.452   9.267  20.985  0.00  0.00    +0.000 OA
ATOM      9  H   UNL     1       0.380  10.863  16.938  0.00  0.00    +0.000 HD
ENDROOT
BRANCH   1  14
ATOM     10  C   UNL     1      -6.108  11.248  17.887  0.00  0.00    +0.000 C 
ATOM     11  C   UNL     1      -4.634  11.136  18.141  0.00  0.00    +0.000 A 
ATOM     12  C   UNL     1      -3.984  12.041  18.979  0.00  0.00    +0.000 A 
ATOM     13  C   UNL     1      -2.615  11.914  19.232  0.00  0.00    +0.000 A 
ATOM     14  C   UNL     1      -1.853  10.866  18.676  0.00  0.00    +0.000 A 
ATOM     15  C   UNL     1      -2.512   9.986  17.803  0.00  0.00    +0.000 A 
ATOM     16  C   UNL     1      -3.885  10.116  17.546  0.00  0.00    +0.000 A 
ENDBRANCH   1  14
BRANCH   6  17
ATOM     17  C   UNL     1       2.172   8.280  20.163  0.00  0.00    +0.000 C 
BRANCH  17  18
ATOM     18  C   UNL     1       2.362   6.864  19.668  0.00  0.00    +0.000 A 
ATOM     19  C   UNL     1       3.001   6.551  18.531  0.00  0.00    +0.000 A 
ATOM     20  C   UNL     1       3.092   5.141  18.100  0.00  0.00    +0.000 A 
ATOM     21  O   UNL     1       3.718   4.900  17.071  0.00  0.00    +0.000 OA
ATOM     22  N   UNL     1       2.458   4.238  18.916  0.00  0.00    +0.000 N 
ATOM     23  C   UNL     1       2.337   2.863  18.727  0.00  0.00    +0.000 A 
ATOM     24  C   UNL     1       2.827   2.125  17.523  0.00  0.00    +0.000 C 
ATOM     25  C   UNL     1       1.693   2.246  19.731  0.00  0.00    +0.000 A 
ATOM     26  S   UNL     1       1.200   3.346  20.977  0.00  0.00    +0.000 S 
ATOM     27  C   UNL     1       1.875   4.693  20.081  0.00  0.00    +0.000 A 
ATOM     28  N   UNL     1       1.804   5.913  20.492  0.00  0.00    +0.000 NA
ENDBRANCH  17  18
ENDBRANCH   6  17
TORSDOF 3
ENDMDL
MODEL 3
REMARK VINA RESULT:      -7.7      3.275      8.650
REMARK  Name = 
REMARK  6 active torsions:
REMARK  status: ('A' for Active; 'I' for Inactive)
REMARK    1  A    between atoms: C_1  and  C_2
REMARK    2  A    between atoms: C_5  and  C_6
REMARK    3  A    between atoms: C_6  and  C_7
REMARK    4  A    between atoms: N_11  and  C_12
REMARK    5  A    between atoms: C_12  and  C_13
REMARK    6  A    between atoms: C_18  and  C_19
REMARK                            x       y       z     vdW  Elec       q    Type
REMARK                         _______ _______ _______ _____ _____    ______ ____
ROOT
ATOM      1  C   UNL     1       4.380   3.988  17.849  0.00  0.00    +0.000 C 
ATOM      2  C   UNL     1       4.900   2.883  18.796  0.00  0.00    +0.000 C 
ATOM      3  N   UNL     1       3.012   3.710  17.468  0.00  0.00    +0.000 N 
ATOM      4  C   UNL     1       2.115   4.261  18.359  0.00  0.00    +0.000 C 
ATOM      5  O   UNL     1       0.926   4.001  18.383  0.00  0.00    +0.000 OA
ATOM      6  N   UNL     1       2.798   5.114  19.171  0.00  0.00    +0.000 N 
ATOM      7  C   UNL     1       4.117   5.176  18.796  0.00  0.00    +0.000 C 
ATOM      8  O   UNL     1       4.952   5.946  19.250  0.00  0.00    +0.000 OA
ATOM      9  H   UNL     1       2.723   2.994  16.816  0.00  0.00    +0.000 HD
ENDROOT
BRANCH   1  14
ATOM     10  C   UNL     1       7.797   5.052  13.206  0.00  0.00    +0.000 C 
ATOM     11  C   UNL     1       6.932   4.745  14.392  0.00  0.00    +0.000 A 
ATOM     12  C   UNL     1       7.439   4.834  15.687  0.00  0.00    +0.000 A 
ATOM     13  C   UNL     1       6.618   4.572  16.789  0.00  0.00    +0.000 A 
ATOM     14  C   UNL     1       5.259   4.237  16.635  0.00  0.00    +0.000 A 
ATOM     15  C   UNL     1       4.772   4.112  15.325  0.00  0.00    +0.000 A 
ATOM     16  C   UNL     1       5.595   4.371  14.219  0.00  0.00    +0.000 A 
ENDBRANCH   1  14
BRANCH   6  17
ATOM     17  C   UNL     1       2.253   5.746  20.350  0.00  0.00    +0.000 C 
BRANCH  17  18
ATOM     18  C   UNL     1       1.789   7.170  20.139  0.00  0.00    +0.000 A 
ATOM     19  C   UNL     1       1.997   7.863  19.010  0.00  0.00    +0.000 A 
ATOM     20  C   UNL     1       1.554   9.269  18.915  0.00  0.00    +0.000 A 
ATOM     21  O   UNL     1       1.733   9.851  17.848  0.00  0.00    +0.000 OA
ATOM     22  N   UNL     1       0.975   9.777  20.050  0.00  0.00    +0.000 N 
ATOM     23  C   UNL     1       0.518  11.076  20.261  0.00  0.00    +0.000 A 
ATOM     24  C   UNL     1       0.655  12.194  19.279  0.00  0.00    +0.000 C 
ATOM     25  C   UNL     1      -0.041  11.251  21.469  0.00  0.00    +0.000 A 
ATOM     26  S   UNL     1      -0.034   9.800  22.419  0.00  0.00    +0.000 S 
ATOM     27  C   UNL     1       0.783   8.939  21.129  0.00  0.00    +0.000 A 
ATOM     28  N   UNL     1       1.138   7.703  21.228  0.00  0.00    +0.000 NA
ENDBRANCH  17  18
ENDBRANCH   6  17
TORSDOF 3
ENDMDL
MODEL 4
REMARK VINA RESULT:      -7.4      4.310      8.965
REMARK  Name = 
REMARK  6 active torsions:
REMARK  status: ('A' for Active; 'I' for Inactive)
REMARK    1  A    between atoms: C_1  and  C_2
REMARK    2  A    between atoms: C_5  and  C_6
REMARK    3  A    between atoms: C_6  and  C_7
REMARK    4  A    between atoms: N_11  and  C_12
REMARK    5  A    between atoms: C_12  and  C_13
REMARK    6  A    between atoms: C_18  and  C_19
REMARK                            x       y       z     vdW  Elec       q    Type
REMARK                         _______ _______ _______ _____ _____    ______ ____
ROOT
ATOM      1  C   UNL     1       0.123   9.996  20.423  0.00  0.00    +0.000 C 
ATOM      2  C   UNL     1      -0.418   9.460  21.768  0.00  0.00    +0.000 C 
ATOM      3  N   UNL     1      -0.978  10.381  19.566  0.00  0.00    +0.000 N 
ATOM      4  C   UNL     1      -1.345  11.694  19.770  0.00  0.00    +0.000 C 
ATOM      5  O   UNL     1      -2.364  12.198  19.332  0.00  0.00    +0.000 OA
ATOM      6  N   UNL     1      -0.382  12.288  20.527  0.00  0.00    +0.000 N 
ATOM      7  C   UNL     1       0.637  11.405  20.780  0.00  0.00    +0.000 C 
ATOM      8  O   UNL     1       1.700  11.677  21.324  0.00  0.00    +0.000 OA
ATOM      9  H   UNL     1      -1.591   9.740  19.082  0.00  0.00    +0.000 HD
ENDROOT
BRANCH   1  14
ATOM     10  C   UNL     1       3.743   6.351  17.600  0.00  0.00    +0.000 C 
ATOM     11  C   UNL     1       2.845   7.301  18.335  0.00  0.00    +0.000 A 
ATOM     12  C   UNL     1       2.373   8.458  17.718  0.00  0.00    +0.000 A 
ATOM     13  C   UNL     1       1.515   9.326  18.401  0.00  0.00    +0.000 A 
ATOM     14  C   UNL     1       1.080   9.055  19.714  0.00  0.00    +0.000 A 
ATOM     15  C   UNL     1       1.595   7.907  20.337  0.00  0.00    +0.000 A 
ATOM     16  C   UNL     1       2.459   7.039  19.654  0.00  0.00    +0.000 A 
ENDBRANCH   1  14
BRANCH   6  17
ATOM     17  C   UNL     1      -0.485  13.606  21.110  0.00  0.00    +0.000 C 
BRANCH  17  18
ATOM     18  C   UNL     1      -0.100  14.734  20.180  0.00  0.00    +0.000 A 
ATOM     19  C   UNL     1      -0.958  15.667  19.744  0.00  0.00    +0.000 A 
ATOM     20  C   UNL     1      -0.503  16.702  18.794  0.00  0.00    +0.000 A 
ATOM     21  O   UNL     1      -1.315  17.557  18.451  0.00  0.00    +0.000 OA
ATOM     22  N   UNL     1       0.806  16.595  18.396  0.00  0.00    +0.000 N 
ATOM     23  C   UNL     1       1.480  17.394  17.475  0.00  0.00    +0.000 A 
ATOM     24  C   UNL     1       0.850  18.492  16.681  0.00  0.00    +0.000 C 
ATOM     25  C   UNL     1       2.773  17.060  17.333  0.00  0.00    +0.000 A 
ATOM     26  S   UNL     1       3.229  15.728  18.344  0.00  0.00    +0.000 S 
ATOM     27  C   UNL     1       1.592  15.611  18.958  0.00  0.00    +0.000 A 
ATOM     28  N   UNL     1       1.225  14.711  19.807  0.00  0.00    +0.000 NA
ENDBRANCH  17  18
ENDBRANCH   6  17
TORSDOF 3
ENDMDL
MODEL 5
REMARK VINA RESULT:      -7.4      3.762      6.398
REMARK  Name = 
REMARK  6 active torsions:
REMARK  status: ('A' for Active; 'I' for Inactive)
REMARK    1  A    between atoms: C_1  and  C_2
REMARK    2  A    between atoms: C_5  and  C_6
REMARK    3  A    between atoms: C_6  and  C_7
REMARK    4  A    between atoms: N_11  and  C_12
REMARK    5  A    between atoms: C_12  and  C_13
REMARK    6  A    between atoms: C_18  and  C_19
REMARK                            x       y       z     vdW  Elec       q    Type
REMARK                         _______ _______ _______ _____ _____    ______ ____
ROOT
ATOM      1  C   UNL     1       2.553   5.825  19.691  0.00  0.00    +0.000 C 
ATOM      2  C   UNL     1       1.796   4.727  20.473  0.00  0.00    +0.000 C 
ATOM      3  N   UNL     1       3.951   5.821  20.062  0.00  0.00    +0.000 N 
ATOM      4  C   UNL     1       4.684   4.962  19.270  0.00  0.00    +0.000 C 
ATOM      5  O   UNL     1       5.829   4.621  19.505  0.00  0.00    +0.000 OA
ATOM      6  N   UNL     1       3.903   4.588  18.219  0.00  0.00    +0.000 N 
ATOM      7  C   UNL     1       2.690   5.227  18.277  0.00  0.00    +0.000 C 
ATOM      8  O   UNL     1       1.825   5.195  17.411  0.00  0.00    +0.000 OA
ATOM      9  H   UNL     1       4.323   6.166  20.937  0.00  0.00    +0.000 HD
ENDROOT
BRANCH   1  14
ATOM     10  C   UNL     1       0.109  11.130  20.190  0.00  0.00    +0.000 C 
ATOM     11  C   UNL     1       0.765   9.786  20.075  0.00  0.00    +0.000 A 
ATOM     12  C   UNL     1       0.712   8.874  21.127  0.00  0.00    +0.000 A 
ATOM     13  C   UNL     1       1.304   7.613  21.002  0.00  0.00    +0.000 A 
ATOM     14  C   UNL     1       1.946   7.212  19.814  0.00  0.00    +0.000 A 
ATOM     15  C   UNL     1       2.026   8.155  18.777  0.00  0.00    +0.000 A 
ATOM     16  C   UNL     1       1.437   9.421  18.904  0.00  0.00    +0.000 A 
ENDBRANCH   1  14
BRANCH   6  17
ATOM     17  C   UNL     1       4.239   3.556  17.267  0.00  0.00    +0.000 C 
BRANCH  17  18
ATOM     18  C   UNL     1       5.231   3.981  16.206  0.00  0.00    +0.000 A 
ATOM     19  C   UNL     1       6.208   4.875  16.415  0.00  0.00    +0.000 A 
ATOM     20  C   UNL     1       7.097   5.268  15.303  0.00  0.00    +0.000 A 
ATOM     21  O   UNL     1       8.000   6.063  15.550  0.00  0.00    +0.000 OA
ATOM     22  N   UNL     1       6.813   4.685  14.093  0.00  0.00    +0.000 N 
ATOM     23  C   UNL     1       7.447   4.911  12.873  0.00  0.00    +0.000 A 
ATOM     24  C   UNL     1       8.531   5.916  12.653  0.00  0.00    +0.000 C 
ATOM     25  C   UNL     1       6.964   4.150  11.878  0.00  0.00    +0.000 A 
ATOM     26  S   UNL     1       5.687   3.102  12.404  0.00  0.00    +0.000 S 
ATOM     27  C   UNL     1       5.805   3.746  14.030  0.00  0.00    +0.000 A 
ATOM     28  N   UNL     1       5.031   3.368  14.990  0.00  0.00    +0.000 NA
ENDBRANCH  17  18
ENDBRANCH   6  17
TORSDOF 3
ENDMDL
MODEL 6
REMARK VINA RESULT:      -7.4      2.748      8.361
REMARK  Name = 
REMARK  6 active torsions:
REMARK  status: ('A' for Active; 'I' for Inactive)
REMARK    1  A    between atoms: C_1  and  C_2
REMARK    2  A    between atoms: C_5  and  C_6
REMARK    3  A    between atoms: C_6  and  C_7
REMARK    4  A    between atoms: N_11  and  C_12
REMARK    5  A    between atoms: C_12  and  C_13
REMARK    6  A    between atoms: C_18  and  C_19
REMARK                            x       y       z     vdW  Elec       q    Type
REMARK                         _______ _______ _______ _____ _____    ______ ____
ROOT
ATOM      1  C   UNL     1       4.270   3.826  18.108  0.00  0.00    +0.000 C 
ATOM      2  C   UNL     1       4.751   2.627  18.957  0.00  0.00    +0.000 C 
ATOM      3  N   UNL     1       2.893   3.629  17.710  0.00  0.00    +0.000 N 
ATOM      4  C   UNL     1       2.017   4.134  18.647  0.00  0.00    +0.000 C 
ATOM      5  O   UNL     1       0.819   3.915  18.654  0.00  0.00    +0.000 OA
ATOM      6  N   UNL     1       2.729   4.891  19.526  0.00  0.00    +0.000 N 
ATOM      7  C   UNL     1       4.050   4.938  19.152  0.00  0.00    +0.000 C 
ATOM      8  O   UNL     1       4.912   5.638  19.666  0.00  0.00    +0.000 OA
ATOM      9  H   UNL     1       2.578   2.981  17.001  0.00  0.00    +0.000 HD
ENDROOT
BRANCH   1  14
ATOM     10  C   UNL     1       7.715   5.158  13.556  0.00  0.00    +0.000 C 
ATOM     11  C   UNL     1       6.842   4.783  14.717  0.00  0.00    +0.000 A 
ATOM     12  C   UNL     1       7.339   4.806  16.019  0.00  0.00    +0.000 A 
ATOM     13  C   UNL     1       6.512   4.480  17.098  0.00  0.00    +0.000 A 
ATOM     14  C   UNL     1       5.156   4.144  16.916  0.00  0.00    +0.000 A 
ATOM     15  C   UNL     1       4.680   4.087  15.597  0.00  0.00    +0.000 A 
ATOM     16  C   UNL     1       5.510   4.409  14.514  0.00  0.00    +0.000 A 
ENDBRANCH   1  14
BRANCH   6  17
ATOM     17  C   UNL     1       2.208   5.441  20.755  0.00  0.00    +0.000 C 
BRANCH  17  18
ATOM     18  C   UNL     1       1.673   6.850  20.635  0.00  0.00    +0.000 A 
ATOM     19  C   UNL     1       0.861   7.419  21.537  0.00  0.00    +0.000 A 
ATOM     20  C   UNL     1       0.346   8.784  21.308  0.00  0.00    +0.000 A 
ATOM     21  O   UNL     1      -0.365   9.278  22.180  0.00  0.00    +0.000 OA
ATOM     22  N   UNL     1       0.731   9.364  20.125  0.00  0.00    +0.000 N 
ATOM     23  C   UNL     1       0.354  10.610  19.629  0.00  0.00    +0.000 A 
ATOM     24  C   UNL     1      -0.627  11.525  20.288  0.00  0.00    +0.000 C 
ATOM     25  C   UNL     1       0.938  10.911  18.458  0.00  0.00    +0.000 A 
ATOM     26  S   UNL     1       1.998   9.656  17.903  0.00  0.00    +0.000 S 
ATOM     27  C   UNL     1       1.607   8.682  19.307  0.00  0.00    +0.000 A 
ATOM     28  N   UNL     1       2.090   7.500  19.495  0.00  0.00    +0.000 NA
ENDBRANCH  17  18
ENDBRANCH   6  17
TORSDOF 3
ENDMDL
MODEL 7
REMARK VINA RESULT:      -7.3      2.290      3.031
REMARK  Name = 
REMARK  6 active torsions:
REMARK  status: ('A' for Active; 'I' for Inactive)
REMARK    1  A    between atoms: C_1  and  C_2
REMARK    2  A    between atoms: C_5  and  C_6
REMARK    3  A    between atoms: C_6  and  C_7
REMARK    4  A    between atoms: N_11  and  C_12
REMARK    5  A    between atoms: C_12  and  C_13
REMARK    6  A    between atoms: C_18  and  C_19
REMARK                            x       y       z     vdW  Elec       q    Type
REMARK                         _______ _______ _______ _____ _____    ______ ____
ROOT
ATOM      1  C   UNL     1      -0.961  11.929  19.619  0.00  0.00    +0.000 C 
ATOM      2  C   UNL     1      -0.720  13.250  18.851  0.00  0.00    +0.000 C 
ATOM      3  N   UNL     1      -1.554  10.947  18.737  0.00  0.00    +0.000 N 
ATOM      4  C   UNL     1      -0.592  10.212  18.077  0.00  0.00    +0.000 C 
ATOM      5  O   UNL     1      -0.820   9.473  17.135  0.00  0.00    +0.000 OA
ATOM      6  N   UNL     1       0.610  10.468  18.662  0.00  0.00    +0.000 N 
ATOM      7  C   UNL     1       0.449  11.316  19.729  0.00  0.00    +0.000 C 
ATOM      8  O   UNL     1       1.321  11.631  20.528  0.00  0.00    +0.000 OA
ATOM      9  H   UNL     1      -2.513  10.954  18.417  0.00  0.00    +0.000 HD
ENDROOT
BRANCH   1  14
ATOM     10  C   UNL     1      -4.054  12.654  24.545  0.00  0.00    +0.000 C 
ATOM     11  C   UNL     1      -3.280  12.438  23.279  0.00  0.00    +0.000 A 
ATOM     12  C   UNL     1      -3.745  12.937  22.064  0.00  0.00    +0.000 A 
ATOM     13  C   UNL     1      -3.004  12.753  20.892  0.00  0.00    +0.000 A 
ATOM     14  C   UNL     1      -1.762  12.087  20.899  0.00  0.00    +0.000 A 
ATOM     15  C   UNL     1      -1.325  11.556  22.122  0.00  0.00    +0.000 A 
ATOM     16  C   UNL     1      -2.070  11.736  23.297  0.00  0.00    +0.000 A 
ENDBRANCH   1  14
BRANCH   6  17
ATOM     17  C   UNL     1       1.888  10.036  18.146  0.00  0.00    +0.000 C 
BRANCH  17  18
ATOM     18  C   UNL     1       2.241   8.601  18.468  0.00  0.00    +0.000 A 
ATOM     19  C   UNL     1       1.741   7.927  19.514  0.00  0.00    +0.000 A 
ATOM     20  C   UNL     1       2.185   6.544  19.780  0.00  0.00    +0.000 A 
ATOM     21  O   UNL     1       1.672   5.954  20.728  0.00  0.00    +0.000 OA
ATOM     22  N   UNL     1       3.136   6.059  18.919  0.00  0.00    +0.000 N 
ATOM     23  C   UNL     1       3.769   4.819  18.964  0.00  0.00    +0.000 A 
ATOM     24  C   UNL     1       3.567   3.802  20.040  0.00  0.00    +0.000 C 
ATOM     25  C   UNL     1       4.626   4.625  17.948  0.00  0.00    +0.000 A 
ATOM     26  S   UNL     1       4.693   5.980  16.869  0.00  0.00    +0.000 S 
ATOM     27  C   UNL     1       3.531   6.846  17.856  0.00  0.00    +0.000 A 
ATOM     28  N   UNL     1       3.141   8.046  17.588  0.00  0.00    +0.000 NA
ENDBRANCH  17  18
ENDBRANCH   6  17
TORSDOF 3
ENDMDL
MODEL 8
REMARK VINA RESULT:      -7.3      4.543      9.068
REMARK  Name = 
REMARK  6 active torsions:
REMARK  status: ('A' for Active; 'I' for Inactive)
REMARK    1  A    between atoms: C_1  and  C_2
REMARK    2  A    between atoms: C_5  and  C_6
REMARK    3  A    between atoms: C_6  and  C_7
REMARK    4  A    between atoms: N_11  and  C_12
REMARK    5  A    between atoms: C_12  and  C_13
REMARK    6  A    between atoms: C_18  and  C_19
REMARK                            x       y       z     vdW  Elec       q    Type
REMARK                         _______ _______ _______ _____ _____    ______ ____
ROOT
ATOM      1  C   UNL     1       0.074   9.680  20.327  0.00  0.00    +0.000 C 
ATOM      2  C   UNL     1      -0.552   8.983  21.556  0.00  0.00    +0.000 C 
ATOM      3  N   UNL     1      -0.967  10.106  19.416  0.00  0.00    +0.000 N 
ATOM      4  C   UNL     1      -1.417  11.374  19.718  0.00  0.00    +0.000 C 
ATOM      5  O   UNL     1      -2.419  11.877  19.243  0.00  0.00    +0.000 OA
ATOM      6  N   UNL     1      -0.555  11.925  20.616  0.00  0.00    +0.000 N 
ATOM      7  C   UNL     1       0.483  11.063  20.870  0.00  0.00    +0.000 C 
ATOM      8  O   UNL     1       1.479  11.321  21.534  0.00  0.00    +0.000 OA
ATOM      9  H   UNL     1      -1.502   9.494  18.816  0.00  0.00    +0.000 HD
ENDROOT
BRANCH   1  14
ATOM     10  C   UNL     1       4.103   6.501  17.494  0.00  0.00    +0.000 C 
ATOM     11  C   UNL     1       3.099   7.334  18.234  0.00  0.00    +0.000 A 
ATOM     12  C   UNL     1       2.554   8.478  17.653  0.00  0.00    +0.000 A 
ATOM     13  C   UNL     1       1.598   9.234  18.339  0.00  0.00    +0.000 A 
ATOM     14  C   UNL     1       1.137   8.860  19.616  0.00  0.00    +0.000 A 
ATOM     15  C   UNL     1       1.723   7.728  20.205  0.00  0.00    +0.000 A 
ATOM     16  C   UNL     1       2.684   6.972  19.520  0.00  0.00    +0.000 A 
ENDBRANCH   1  14
BRANCH   6  17
ATOM     17  C   UNL     1      -0.775  13.167  21.318  0.00  0.00    +0.000 C 
BRANCH  17  18
ATOM     18  C   UNL     1      -2.135  13.286  21.970  0.00  0.00    +0.000 A 
ATOM     19  C   UNL     1      -2.559  12.487  22.960  0.00  0.00    +0.000 A 
ATOM     20  C   UNL     1      -3.925  12.644  23.500  0.00  0.00    +0.000 A 
ATOM     21  O   UNL     1      -4.256  11.914  24.431  0.00  0.00    +0.000 OA
ATOM     22  N   UNL     1      -4.686  13.611  22.894  0.00  0.00    +0.000 N 
ATOM     23  C   UNL     1      -6.014  13.936  23.160  0.00  0.00    +0.000 A 
ATOM     24  C   UNL     1      -6.888  13.210  24.131  0.00  0.00    +0.000 C 
ATOM     25  C   UNL     1      -6.465  14.964  22.422  0.00  0.00    +0.000 A 
ATOM     26  S   UNL     1      -5.255  15.592  21.351  0.00  0.00    +0.000 S 
ATOM     27  C   UNL     1      -4.108  14.392  21.914  0.00  0.00    +0.000 A 
ATOM     28  N   UNL     1      -2.912  14.292  21.442  0.00  0.00    +0.000 NA
ENDBRANCH  17  18
ENDBRANCH   6  17
TORSDOF 3
ENDMDL
MODEL 9
REMARK VINA RESULT:      -7.2      4.017      8.514
REMARK  Name = 
REMARK  6 active torsions:
REMARK  status: ('A' for Active; 'I' for Inactive)
REMARK    1  A    between atoms: C_1  and  C_2
REMARK    2  A    between atoms: C_5  and  C_6
REMARK    3  A    between atoms: C_6  and  C_7
REMARK    4  A    between atoms: N_11  and  C_12
REMARK    5  A    between atoms: C_12  and  C_13
REMARK    6  A    between atoms: C_18  and  C_19
REMARK                            x       y       z     vdW  Elec       q    Type
REMARK                         _______ _______ _______ _____ _____    ______ ____
ROOT
ATOM      1  C   UNL     1       0.472  10.532  19.347  0.00  0.00    +0.000 C 
ATOM      2  C   UNL     1      -1.047  10.274  19.227  0.00  0.00    +0.000 C 
ATOM      3  N   UNL     1       0.855  11.637  18.496  0.00  0.00    +0.000 N 
ATOM      4  C   UNL     1       0.750  12.844  19.154  0.00  0.00    +0.000 C 
ATOM      5  O   UNL     1       0.812  13.931  18.607  0.00  0.00    +0.000 OA
ATOM      6  N   UNL     1       0.571  12.588  20.479  0.00  0.00    +0.000 N 
ATOM      7  C   UNL     1       0.609  11.236  20.711  0.00  0.00    +0.000 C 
ATOM      8  O   UNL     1       0.605  10.701  21.812  0.00  0.00    +0.000 OA
ATOM      9  H   UNL     1       0.925  11.600  17.488  0.00  0.00    +0.000 HD
ENDROOT
BRANCH   1  14
ATOM     10  C   UNL     1       3.747   5.788  18.280  0.00  0.00    +0.000 C 
ATOM     11  C   UNL     1       2.937   7.018  18.568  0.00  0.00    +0.000 A 
ATOM     12  C   UNL     1       2.833   8.040  17.626  0.00  0.00    +0.000 A 
ATOM     13  C   UNL     1       2.055   9.171  17.892  0.00  0.00    +0.000 A 
ATOM     14  C   UNL     1       1.336   9.308  19.096  0.00  0.00    +0.000 A 
ATOM     15  C   UNL     1       1.482   8.290  20.051  0.00  0.00    +0.000 A 
ATOM     16  C   UNL     1       2.266   7.157  19.787  0.00  0.00    +0.000 A 
ENDBRANCH   1  14
BRANCH   6  17
ATOM     17  C   UNL     1       0.236  13.579  21.474  0.00  0.00    +0.000 C 
BRANCH  17  18
ATOM     18  C   UNL     1      -1.198  13.528  21.952  0.00  0.00    +0.000 A 
ATOM     19  C   UNL     1      -1.566  13.719  23.227  0.00  0.00    +0.000 A 
ATOM     20  C   UNL     1      -2.988  13.597  23.610  0.00  0.00    +0.000 A 
ATOM     21  O   UNL     1      -3.282  13.816  24.782  0.00  0.00    +0.000 OA
ATOM     22  N   UNL     1      -3.840  13.251  22.592  0.00  0.00    +0.000 N 
ATOM     23  C   UNL     1      -5.211  13.016  22.676  0.00  0.00    +0.000 A 
ATOM     24  C   UNL     1      -5.998  13.027  23.946  0.00  0.00    +0.000 C 
ATOM     25  C   UNL     1      -5.773  12.737  21.488  0.00  0.00    +0.000 A 
ATOM     26  S   UNL     1      -4.624  12.753  20.190  0.00  0.00    +0.000 S 
ATOM     27  C   UNL     1      -3.332  13.128  21.315  0.00  0.00    +0.000 A 
ATOM     28  N   UNL     1      -2.101  13.253  20.950  0.00  0.00    +0.000 NA
ENDBRANCH  17  18
ENDBRANCH   6  17
TORSDOF 3
ENDMDL
