MODEL 1
REMARK VINA RESULT:      -8.9      0.000      0.000
REMARK  Name = 
REMARK  5 active torsions:
REMARK  status: ('A' for Active; 'I' for Inactive)
REMARK    1  A    between atoms: C_1  and  C_2
REMARK    2  A    between atoms: C_4  and  C_5
REMARK    3  A    between atoms: C_5  and  C_6
REMARK    4  A    between atoms: C_9  and  C_10
REMARK    5  A    between atoms: C_14  and  C_16
REMARK                            x       y       z     vdW  Elec       q    Type
REMARK                         _______ _______ _______ _____ _____    ______ ____
ROOT
ATOM      1  C   UNL     1       2.509   6.500  18.866  0.00  0.00    +0.000 C 
ATOM      2  C   UNL     1       2.671   7.871  18.225  0.00  0.00    +0.000 C 
ATOM      3  C   UNL     1       1.816   9.024  18.755  0.00  0.00    +0.000 C 
ATOM      4  N   UNL     1       1.217   8.921  20.080  0.00  0.00    +0.000 N 
ATOM      5  C   UNL     1       0.360   9.892  20.674  0.00  0.00    +0.000 C 
ATOM      6  O   UNL     1      -0.174   9.684  21.768  0.00  0.00    +0.000 OA
ATOM      7  C   UNL     1       1.295   7.686  20.837  0.00  0.00    +0.000 C 
ATOM      8  C   UNL     1       2.200   6.566  20.354  0.00  0.00    +0.000 C 
ENDROOT
BRANCH   5   9
ATOM      9  C   UNL     1       0.042  11.194  20.030  0.00  0.00    +0.000 A 
ATOM     10  C   UNL     1      -0.991  11.329  19.095  0.00  0.00    +0.000 A 
ATOM     11  C   UNL     1      -1.208  12.550  18.453  0.00  0.00    +0.000 A 
ATOM     12  C   UNL     1      -0.354  13.619  18.697  0.00  0.00    +0.000 A 
ATOM     13  F   UNL     1      -0.551  14.779  18.056  0.00  0.00    +0.000 F 
ATOM     14  C   UNL     1       0.713  13.497  19.573  0.00  0.00    +0.000 A 
ATOM     15  C   UNL     1       0.907  12.287  20.246  0.00  0.00    +0.000 A 
ATOM     16  F   UNL     1       1.943  12.205  21.083  0.00  0.00    +0.000 F 
ENDBRANCH   5   9
BRANCH   1  20
ATOM     17  C   UNL     1       5.572   4.774  18.007  0.00  0.00    +0.000 A 
ATOM     18  N   UNL     1       4.983   3.829  18.756  0.00  0.00    +0.000 NA
ATOM     19  O   UNL     1       3.780   4.418  19.151  0.00  0.00    +0.000 OA
ATOM     20  C   UNL     1       3.761   5.679  18.621  0.00  0.00    +0.000 A 
ATOM     21  N   UNL     1       4.847   5.952  17.922  0.00  0.00    +0.000 NA
BRANCH  17  22
ATOM     22  C   UNL     1       6.924   4.580  17.400  0.00  0.00    +0.000 C 
BRANCH  22  26
ATOM     23  C   UNL     1       6.018   3.558  12.631  0.00  0.00    +0.000 C 
ATOM     24  C   UNL     1       6.501   4.081  13.923  0.00  0.00    +0.000 A 
ATOM     25  N   UNL     1       6.259   3.667  15.147  0.00  0.00    +0.000 NA
ATOM     26  C   UNL     1       6.907   4.616  15.911  0.00  0.00    +0.000 A 
ATOM     27  N   UNL     1       7.575   5.536  15.198  0.00  0.00    +0.000 NA
ATOM     28  O   UNL     1       7.291   5.191  13.876  0.00  0.00    +0.000 OA
ENDBRANCH  22  26
ENDBRANCH  17  22
ENDBRANCH   1  20
TORSDOF 4
ENDMDL
MODEL 2
REMARK VINA RESULT:      -8.9      0.980      1.339
REMARK  Name = 
REMARK  5 active torsions:
REMARK  status: ('A' for Active; 'I' for Inactive)
REMARK    1  A    between atoms: C_1  and  C_2
REMARK    2  A    between atoms: C_4  and  C_5
REMARK    3  A    between atoms: C_5  and  C_6
REMARK    4  A    between atoms: C_9  and  C_10
REMARK    5  A    between atoms: C_14  and  C_16
REMARK                            x       y       z     vdW  Elec       q    Type
REMARK                         _______ _______ _______ _____ _____    ______ ____
ROOT
ATOM      1  C   UNL     1       2.445   6.746  18.511  0.00  0.00    +0.000 C 
ATOM      2  C   UNL     1       2.681   8.099  17.856  0.00  0.00    +0.000 C 
ATOM      3  C   UNL     1       1.963   9.320  18.435  0.00  0.00    +0.000 C 
ATOM      4  N   UNL     1       1.444   9.266  19.796  0.00  0.00    +0.000 N 
ATOM      5  C   UNL     1       0.712  10.306  20.440  0.00  0.00    +0.000 C 
ATOM      6  O   UNL     1       0.234  10.142  21.567  0.00  0.00    +0.000 OA
ATOM      7  C   UNL     1       1.465   8.028  20.551  0.00  0.00    +0.000 C 
ATOM      8  C   UNL     1       2.238   6.835  20.016  0.00  0.00    +0.000 C 
ENDROOT
BRANCH   5   9
ATOM      9  C   UNL     1       0.466  11.631  19.813  0.00  0.00    +0.000 A 
ATOM     10  C   UNL     1       1.227  12.761  20.137  0.00  0.00    +0.000 A 
ATOM     11  C   UNL     1       0.914  14.005  19.587  0.00  0.00    +0.000 A 
ATOM     12  C   UNL     1      -0.198  14.135  18.762  0.00  0.00    +0.000 A 
ATOM     13  F   UNL     1      -0.508  15.338  18.260  0.00  0.00    +0.000 F 
ATOM     14  C   UNL     1      -1.004  13.046  18.471  0.00  0.00    +0.000 A 
ATOM     15  C   UNL     1      -0.668  11.792  18.991  0.00  0.00    +0.000 A 
ATOM     16  F   UNL     1      -1.466  10.765  18.690  0.00  0.00    +0.000 F 
ENDBRANCH   5   9
BRANCH   1  20
ATOM     17  C   UNL     1       5.353   4.818  17.550  0.00  0.00    +0.000 A 
ATOM     18  N   UNL     1       4.550   3.824  17.961  0.00  0.00    +0.000 NA
ATOM     19  O   UNL     1       3.388   4.483  18.371  0.00  0.00    +0.000 OA
ATOM     20  C   UNL     1       3.603   5.822  18.190  0.00  0.00    +0.000 A 
ATOM     21  N   UNL     1       4.803   6.081  17.702  0.00  0.00    +0.000 NA
BRANCH  17  22
ATOM     22  C   UNL     1       6.741   4.566  17.055  0.00  0.00    +0.000 C 
BRANCH  22  26
ATOM     23  C   UNL     1       6.174   3.545  12.234  0.00  0.00    +0.000 C 
ATOM     24  C   UNL     1       6.575   4.057  13.558  0.00  0.00    +0.000 A 
ATOM     25  N   UNL     1       6.218   3.665  14.760  0.00  0.00    +0.000 NA
ATOM     26  C   UNL     1       6.845   4.590  15.569  0.00  0.00    +0.000 A 
ATOM     27  N   UNL     1       7.610   5.472  14.908  0.00  0.00    +0.000 NA
ATOM     28  O   UNL     1       7.418   5.129  13.569  0.00  0.00    +0.000 OA
ENDBRANCH  22  26
ENDBRANCH  17  22
ENDBRANCH   1  20
TORSDOF 4
ENDMDL
MODEL 3
REMARK VINA RESULT:      -8.4      1.200      1.625
REMARK  Name = 
REMARK  5 active torsions:
REMARK  status: ('A' for Active; 'I' for Inactive)
REMARK    1  A    between atoms: C_1  and  C_2
REMARK    2  A    between atoms: C_4  and  C_5
REMARK    3  A    between atoms: C_5  and  C_6
REMARK    4  A    between atoms: C_9  and  C_10
REMARK    5  A    between atoms: C_14  and  C_16
REMARK                            x       y       z     vdW  Elec       q    Type
REMARK                         _______ _______ _______ _____ _____    ______ ____
ROOT
ATOM      1  C   UNL     1       2.700   6.352  18.836  0.00  0.00    +0.000 C 
ATOM      2  C   UNL     1       2.873   7.801  18.403  0.00  0.00    +0.000 C 
ATOM      3  C   UNL     1       1.924   8.850  18.984  0.00  0.00    +0.000 C 
ATOM      4  N   UNL     1       1.195   8.554  20.211  0.00  0.00    +0.000 N 
ATOM      5  C   UNL     1       0.244   9.415  20.832  0.00  0.00    +0.000 C 
ATOM      6  O   UNL     1      -0.393   9.047  21.825  0.00  0.00    +0.000 OA
ATOM      7  C   UNL     1       1.242   7.231  20.803  0.00  0.00    +0.000 C 
ATOM      8  C   UNL     1       2.235   6.209  20.278  0.00  0.00    +0.000 C 
ENDROOT
BRANCH   5   9
ATOM      9  C   UNL     1      -0.056  10.783  20.335  0.00  0.00    +0.000 A 
ATOM     10  C   UNL     1       0.505  11.926  20.917  0.00  0.00    +0.000 A 
ATOM     11  C   UNL     1       0.138  13.198  20.474  0.00  0.00    +0.000 A 
ATOM     12  C   UNL     1      -0.838  13.332  19.492  0.00  0.00    +0.000 A 
ATOM     13  F   UNL     1      -1.205  14.556  19.092  0.00  0.00    +0.000 F 
ATOM     14  C   UNL     1      -1.453  12.220  18.940  0.00  0.00    +0.000 A 
ATOM     15  C   UNL     1      -1.058  10.945  19.355  0.00  0.00    +0.000 A 
ATOM     16  F   UNL     1      -1.671   9.897  18.801  0.00  0.00    +0.000 F 
ENDBRANCH   5   9
BRANCH   1  20
ATOM     17  C   UNL     1       5.829   4.737  18.001  0.00  0.00    +0.000 A 
ATOM     18  N   UNL     1       5.419   3.934  18.995  0.00  0.00    +0.000 NA
ATOM     19  O   UNL     1       4.204   4.495  19.398  0.00  0.00    +0.000 OA
ATOM     20  C   UNL     1       4.001   5.603  18.622  0.00  0.00    +0.000 A 
ATOM     21  N   UNL     1       4.979   5.804  17.758  0.00  0.00    +0.000 NA
BRANCH  17  22
ATOM     22  C   UNL     1       7.128   4.526  17.292  0.00  0.00    +0.000 C 
BRANCH  22  26
ATOM     23  C   UNL     1       7.654   5.266  12.415  0.00  0.00    +0.000 C 
ATOM     24  C   UNL     1       7.243   4.857  13.771  0.00  0.00    +0.000 A 
ATOM     25  N   UNL     1       7.672   5.265  14.944  0.00  0.00    +0.000 NA
ATOM     26  C   UNL     1       6.980   4.446  15.812  0.00  0.00    +0.000 A 
ATOM     27  N   UNL     1       6.112   3.616  15.213  0.00  0.00    +0.000 NA
ATOM     28  O   UNL     1       6.299   3.876  13.854  0.00  0.00    +0.000 OA
ENDBRANCH  22  26
ENDBRANCH  17  22
ENDBRANCH   1  20
TORSDOF 4
ENDMDL
MODEL 4
REMARK VINA RESULT:      -8.2      1.426      1.790
REMARK  Name = 
REMARK  5 active torsions:
REMARK  status: ('A' for Active; 'I' for Inactive)
REMARK    1  A    between atoms: C_1  and  C_2
REMARK    2  A    between atoms: C_4  and  C_5
REMARK    3  A    between atoms: C_5  and  C_6
REMARK    4  A    between atoms: C_9  and  C_10
REMARK    5  A    between atoms: C_14  and  C_16
REMARK                            x       y       z     vdW  Elec       q    Type
REMARK                         _______ _______ _______ _____ _____    ______ ____
ROOT
ATOM      1  C   UNL     1       2.838   6.486  18.008  0.00  0.00    +0.000 C 
ATOM      2  C   UNL     1       2.873   7.965  17.649  0.00  0.00    +0.000 C 
ATOM      3  C   UNL     1       2.019   8.931  18.473  0.00  0.00    +0.000 C 
ATOM      4  N   UNL     1       1.555   8.529  19.794  0.00  0.00    +0.000 N 
ATOM      5  C   UNL     1       0.714   9.305  20.643  0.00  0.00    +0.000 C 
ATOM      6  O   UNL     1       0.297   8.849  21.713  0.00  0.00    +0.000 OA
ATOM      7  C   UNL     1       1.763   7.176  20.274  0.00  0.00    +0.000 C 
ATOM      8  C   UNL     1       2.669   6.235  19.500  0.00  0.00    +0.000 C 
ENDROOT
BRANCH   5   9
ATOM      9  C   UNL     1       0.275  10.685  20.307  0.00  0.00    +0.000 A 
ATOM     10  C   UNL     1       0.873  11.815  20.877  0.00  0.00    +0.000 A 
ATOM     11  C   UNL     1       0.381  13.091  20.598  0.00  0.00    +0.000 A 
ATOM     12  C   UNL     1      -0.748  13.237  19.799  0.00  0.00    +0.000 A 
ATOM     13  F   UNL     1      -1.231  14.462  19.558  0.00  0.00    +0.000 F 
ATOM     14  C   UNL     1      -1.396  12.132  19.269  0.00  0.00    +0.000 A 
ATOM     15  C   UNL     1      -0.880  10.856  19.517  0.00  0.00    +0.000 A 
ATOM     16  F   UNL     1      -1.529   9.815  18.990  0.00  0.00    +0.000 F 
ENDBRANCH   5   9
BRANCH   1  20
ATOM     17  C   UNL     1       5.833   5.118  16.507  0.00  0.00    +0.000 A 
ATOM     18  N   UNL     1       5.530   4.122  17.354  0.00  0.00    +0.000 NA
ATOM     19  O   UNL     1       4.376   4.572  18.000  0.00  0.00    +0.000 OA
ATOM     20  C   UNL     1       4.097   5.814  17.497  0.00  0.00    +0.000 A 
ATOM     21  N   UNL     1       4.973   6.202  16.588  0.00  0.00    +0.000 NA
BRANCH  17  22
ATOM     22  C   UNL     1       7.040   5.074  15.626  0.00  0.00    +0.000 C 
BRANCH  22  26
ATOM     23  C   UNL     1       4.853   3.015  11.679  0.00  0.00    +0.000 C 
ATOM     24  C   UNL     1       5.758   3.664  12.645  0.00  0.00    +0.000 A 
ATOM     25  N   UNL     1       5.617   3.859  13.937  0.00  0.00    +0.000 NA
ATOM     26  C   UNL     1       6.740   4.598  14.247  0.00  0.00    +0.000 A 
ATOM     27  N   UNL     1       7.573   4.795  13.214  0.00  0.00    +0.000 NA
ATOM     28  O   UNL     1       6.912   4.189  12.144  0.00  0.00    +0.000 OA
ENDBRANCH  22  26
ENDBRANCH  17  22
ENDBRANCH   1  20
TORSDOF 4
ENDMDL
MODEL 5
REMARK VINA RESULT:      -8.2      1.771      2.087
REMARK  Name = 
REMARK  5 active torsions:
REMARK  status: ('A' for Active; 'I' for Inactive)
REMARK    1  A    between atoms: C_1  and  C_2
REMARK    2  A    between atoms: C_4  and  C_5
REMARK    3  A    between atoms: C_5  and  C_6
REMARK    4  A    between atoms: C_9  and  C_10
REMARK    5  A    between atoms: C_14  and  C_16
REMARK                            x       y       z     vdW  Elec       q    Type
REMARK                         _______ _______ _______ _____ _____    ______ ____
ROOT
ATOM      1  C   UNL     1       2.892   7.180  18.005  0.00  0.00    +0.000 C 
ATOM      2  C   UNL     1       2.719   8.681  17.825  0.00  0.00    +0.000 C 
ATOM      3  C   UNL     1       1.704   9.405  18.711  0.00  0.00    +0.000 C 
ATOM      4  N   UNL     1       1.259   8.779  19.950  0.00  0.00    +0.000 N 
ATOM      5  C   UNL     1       0.283   9.315  20.840  0.00  0.00    +0.000 C 
ATOM      6  O   UNL     1      -0.098   8.675  21.825  0.00  0.00    +0.000 OA
ATOM      7  C   UNL     1       1.649   7.421  20.278  0.00  0.00    +0.000 C 
ATOM      8  C   UNL     1       2.711   6.724  19.446  0.00  0.00    +0.000 C 
ENDROOT
BRANCH   5   9
ATOM      9  C   UNL     1      -0.344  10.649  20.646  0.00  0.00    +0.000 A 
ATOM     10  C   UNL     1      -0.129  11.708  21.536  0.00  0.00    +0.000 A 
ATOM     11  C   UNL     1      -0.799  12.921  21.364  0.00  0.00    +0.000 A 
ATOM     12  C   UNL     1      -1.730  13.057  20.342  0.00  0.00    +0.000 A 
ATOM     13  F   UNL     1      -2.389  14.215  20.200  0.00  0.00    +0.000 F 
ATOM     14  C   UNL     1      -2.007  12.006  19.482  0.00  0.00    +0.000 A 
ATOM     15  C   UNL     1      -1.308  10.804  19.629  0.00  0.00    +0.000 A 
ATOM     16  F   UNL     1      -1.599   9.813  18.783  0.00  0.00    +0.000 F 
ENDBRANCH   5   9
BRANCH   1  20
ATOM     17  C   UNL     1       6.045   5.840  16.839  0.00  0.00    +0.000 A 
ATOM     18  N   UNL     1       6.384   7.131  16.972  0.00  0.00    +0.000 NA
ATOM     19  O   UNL     1       5.208   7.742  17.413  0.00  0.00    +0.000 OA
ATOM     20  C   UNL     1       4.254   6.763  17.485  0.00  0.00    +0.000 A 
ATOM     21  N   UNL     1       4.715   5.579  17.127  0.00  0.00    +0.000 NA
BRANCH  17  22
ATOM     22  C   UNL     1       7.009   4.811  16.343  0.00  0.00    +0.000 C 
BRANCH  22  26
ATOM     23  C   UNL     1       5.688   3.050  11.898  0.00  0.00    +0.000 C 
ATOM     24  C   UNL     1       6.312   3.734  13.046  0.00  0.00    +0.000 A 
ATOM     25  N   UNL     1       6.095   3.593  14.334  0.00  0.00    +0.000 NA
ATOM     26  C   UNL     1       6.905   4.570  14.877  0.00  0.00    +0.000 A 
ATOM     27  N   UNL     1       7.641   5.239  13.977  0.00  0.00    +0.000 NA
ATOM     28  O   UNL     1       7.235   4.696  12.757  0.00  0.00    +0.000 OA
ENDBRANCH  22  26
ENDBRANCH  17  22
ENDBRANCH   1  20
TORSDOF 4
ENDMDL
MODEL 6
REMARK VINA RESULT:      -8.2      4.159      9.180
REMARK  Name = 
REMARK  5 active torsions:
REMARK  status: ('A' for Active; 'I' for Inactive)
REMARK    1  A    between atoms: C_1  and  C_2
REMARK    2  A    between atoms: C_4  and  C_5
REMARK    3  A    between atoms: C_5  and  C_6
REMARK    4  A    between atoms: C_9  and  C_10
REMARK    5  A    between atoms: C_14  and  C_16
REMARK                            x       y       z     vdW  Elec       q    Type
REMARK                         _______ _______ _______ _____ _____    ______ ____
ROOT
ATOM      1  C   UNL     1       1.659   9.504  19.302  0.00  0.00    +0.000 C 
ATOM      2  C   UNL     1       2.233   9.113  17.948  0.00  0.00    +0.000 C 
ATOM      3  C   UNL     1       3.084   7.844  17.860  0.00  0.00    +0.000 C 
ATOM      4  N   UNL     1       2.979   6.838  18.909  0.00  0.00    +0.000 N 
ATOM      5  C   UNL     1       3.747   5.639  18.981  0.00  0.00    +0.000 C 
ATOM      6  O   UNL     1       3.655   4.883  19.953  0.00  0.00    +0.000 OA
ATOM      7  C   UNL     1       2.196   7.088  20.103  0.00  0.00    +0.000 C 
ATOM      8  C   UNL     1       1.292   8.307  20.166  0.00  0.00    +0.000 C 
ENDROOT
BRANCH   5   9
ATOM      9  C   UNL     1       4.705   5.226  17.921  0.00  0.00    +0.000 A 
ATOM     10  C   UNL     1       5.988   5.775  17.823  0.00  0.00    +0.000 A 
ATOM     11  C   UNL     1       6.830   5.421  16.767  0.00  0.00    +0.000 A 
ATOM     12  C   UNL     1       6.367   4.566  15.773  0.00  0.00    +0.000 A 
ATOM     13  F   UNL     1       7.171   4.252  14.748  0.00  0.00    +0.000 F 
ATOM     14  C   UNL     1       5.080   4.053  15.813  0.00  0.00    +0.000 A 
ATOM     15  C   UNL     1       4.251   4.377  16.891  0.00  0.00    +0.000 A 
ATOM     16  F   UNL     1       3.018   3.865  16.897  0.00  0.00    +0.000 F 
ENDBRANCH   5   9
BRANCH   1  20
ATOM     17  C   UNL     1      -1.399  11.344  18.703  0.00  0.00    +0.000 A 
ATOM     18  N   UNL     1      -0.531  12.365  18.770  0.00  0.00    +0.000 NA
ATOM     19  O   UNL     1       0.696  11.745  19.017  0.00  0.00    +0.000 OA
ATOM     20  C   UNL     1       0.454  10.401  19.098  0.00  0.00    +0.000 A 
ATOM     21  N   UNL     1      -0.822  10.104  18.928  0.00  0.00    +0.000 NA
BRANCH  17  22
ATOM     22  C   UNL     1      -2.863  11.556  18.486  0.00  0.00    +0.000 C 
BRANCH  22  26
ATOM     23  C   UNL     1      -2.997   9.872  13.822  0.00  0.00    +0.000 C 
ATOM     24  C   UNL     1      -3.258  10.490  15.136  0.00  0.00    +0.000 A 
ATOM     25  N   UNL     1      -2.463  10.644  16.170  0.00  0.00    +0.000 NA
ATOM     26  C   UNL     1      -3.309  11.192  17.112  0.00  0.00    +0.000 A 
ATOM     27  N   UNL     1      -4.551  11.432  16.664  0.00  0.00    +0.000 NA
ATOM     28  O   UNL     1      -4.523  10.949  15.355  0.00  0.00    +0.000 OA
ENDBRANCH  22  26
ENDBRANCH  17  22
ENDBRANCH   1  20
TORSDOF 4
ENDMDL
MODEL 7
REMARK VINA RESULT:      -8.2      4.254     10.547
REMARK  Name = 
REMARK  5 active torsions:
REMARK  status: ('A' for Active; 'I' for Inactive)
REMARK    1  A    between atoms: C_1  and  C_2
REMARK    2  A    between atoms: C_4  and  C_5
REMARK    3  A    between atoms: C_5  and  C_6
REMARK    4  A    between atoms: C_9  and  C_10
REMARK    5  A    between atoms: C_14  and  C_16
REMARK                            x       y       z     vdW  Elec       q    Type
REMARK                         _______ _______ _______ _____ _____    ______ ____
ROOT
ATOM      1  C   UNL     1       0.390   9.790  19.960  0.00  0.00    +0.000 C 
ATOM      2  C   UNL     1       0.879   8.597  20.769  0.00  0.00    +0.000 C 
ATOM      3  C   UNL     1       1.721   7.535  20.058  0.00  0.00    +0.000 C 
ATOM      4  N   UNL     1       2.387   7.870  18.806  0.00  0.00    +0.000 N 
ATOM      5  C   UNL     1       3.156   6.967  18.015  0.00  0.00    +0.000 C 
ATOM      6  O   UNL     1       3.614   7.313  16.921  0.00  0.00    +0.000 OA
ATOM      7  C   UNL     1       2.143   9.140  18.151  0.00  0.00    +0.000 C 
ATOM      8  C   UNL     1       1.371  10.226  18.881  0.00  0.00    +0.000 C 
ENDROOT
BRANCH   5   9
ATOM      9  C   UNL     1       3.447   5.570  18.432  0.00  0.00    +0.000 A 
ATOM     10  C   UNL     1       4.663   5.208  19.023  0.00  0.00    +0.000 A 
ATOM     11  C   UNL     1       4.930   3.872  19.328  0.00  0.00    +0.000 A 
ATOM     12  C   UNL     1       4.009   2.888  18.986  0.00  0.00    +0.000 A 
ATOM     13  F   UNL     1       4.285   1.606  19.257  0.00  0.00    +0.000 F 
ATOM     14  C   UNL     1       2.822   3.211  18.347  0.00  0.00    +0.000 A 
ATOM     15  C   UNL     1       2.537   4.553  18.076  0.00  0.00    +0.000 A 
ATOM     16  F   UNL     1       1.385   4.827  17.461  0.00  0.00    +0.000 F 
ENDBRANCH   5   9
BRANCH   1  20
ATOM     17  C   UNL     1      -0.674  12.403  22.226  0.00  0.00    +0.000 A 
ATOM     18  N   UNL     1       0.435  12.973  21.729  0.00  0.00    +0.000 NA
ATOM     19  O   UNL     1       0.932  12.017  20.839  0.00  0.00    +0.000 OA
ATOM     20  C   UNL     1       0.086  10.943  20.896  0.00  0.00    +0.000 A 
ATOM     21  N   UNL     1      -0.908  11.124  21.746  0.00  0.00    +0.000 NA
BRANCH  17  22
ATOM     22  C   UNL     1      -1.517  13.073  23.263  0.00  0.00    +0.000 C 
BRANCH  22  26
ATOM     23  C   UNL     1      -6.113  12.918  21.402  0.00  0.00    +0.000 C 
ATOM     24  C   UNL     1      -4.893  12.847  22.228  0.00  0.00    +0.000 A 
ATOM     25  N   UNL     1      -3.676  13.275  21.977  0.00  0.00    +0.000 NA
ATOM     26  C   UNL     1      -2.975  12.828  23.078  0.00  0.00    +0.000 A 
ATOM     27  N   UNL     1      -3.730  12.213  24.001  0.00  0.00    +0.000 NA
ATOM     28  O   UNL     1      -5.003  12.209  23.428  0.00  0.00    +0.000 OA
ENDBRANCH  22  26
ENDBRANCH  17  22
ENDBRANCH   1  20
TORSDOF 4
ENDMDL
MODEL 8
REMARK VINA RESULT:      -8.1      4.209     10.233
REMARK  Name = 
REMARK  5 active torsions:
REMARK  status: ('A' for Active; 'I' for Inactive)
REMARK    1  A    between atoms: C_1  and  C_2
REMARK    2  A    between atoms: C_4  and  C_5
REMARK    3  A    between atoms: C_5  and  C_6
REMARK    4  A    between atoms: C_9  and  C_10
REMARK    5  A    between atoms: C_14  and  C_16
REMARK                            x       y       z     vdW  Elec       q    Type
REMARK                         _______ _______ _______ _____ _____    ______ ____
ROOT
ATOM      1  C   UNL     1       0.901   9.744  20.285  0.00  0.00    +0.000 C 
ATOM      2  C   UNL     1       1.453   9.244  18.957  0.00  0.00    +0.000 C 
ATOM      3  C   UNL     1       2.161   7.888  18.930  0.00  0.00    +0.000 C 
ATOM      4  N   UNL     1       1.925   6.936  20.009  0.00  0.00    +0.000 N 
ATOM      5  C   UNL     1       2.555   5.664  20.136  0.00  0.00    +0.000 C 
ATOM      6  O   UNL     1       2.362   4.956  21.130  0.00  0.00    +0.000 OA
ATOM      7  C   UNL     1       1.152   7.313  21.176  0.00  0.00    +0.000 C 
ATOM      8  C   UNL     1       0.387   8.625  21.179  0.00  0.00    +0.000 C 
ENDROOT
BRANCH   5   9
ATOM      9  C   UNL     1       3.480   5.112  19.112  0.00  0.00    +0.000 A 
ATOM     10  C   UNL     1       4.865   5.305  19.179  0.00  0.00    +0.000 A 
ATOM     11  C   UNL     1       5.694   4.839  18.157  0.00  0.00    +0.000 A 
ATOM     12  C   UNL     1       5.135   4.236  17.036  0.00  0.00    +0.000 A 
ATOM     13  F   UNL     1       5.934   3.816  16.046  0.00  0.00    +0.000 F 
ATOM     14  C   UNL     1       3.762   4.084  16.915  0.00  0.00    +0.000 A 
ATOM     15  C   UNL     1       2.935   4.515  17.956  0.00  0.00    +0.000 A 
ATOM     16  F   UNL     1       1.619   4.352  17.807  0.00  0.00    +0.000 F 
ENDBRANCH   5   9
BRANCH   1  20
ATOM     17  C   UNL     1      -1.773  12.169  20.028  0.00  0.00    +0.000 A 
ATOM     18  N   UNL     1      -1.694  11.783  18.745  0.00  0.00    +0.000 NA
ATOM     19  O   UNL     1      -0.662  10.841  18.742  0.00  0.00    +0.000 OA
ATOM     20  C   UNL     1      -0.194  10.759  20.025  0.00  0.00    +0.000 A 
ATOM     21  N   UNL     1      -0.834  11.568  20.850  0.00  0.00    +0.000 NA
BRANCH  17  22
ATOM     22  C   UNL     1      -2.738  13.214  20.486  0.00  0.00    +0.000 C 
BRANCH  22  26
ATOM     23  C   UNL     1      -7.316  11.421  19.824  0.00  0.00    +0.000 C 
ATOM     24  C   UNL     1      -6.046  11.967  20.339  0.00  0.00    +0.000 A 
ATOM     25  N   UNL     1      -4.988  12.401  19.691  0.00  0.00    +0.000 NA
ATOM     26  C   UNL     1      -4.110  12.681  20.718  0.00  0.00    +0.000 A 
ATOM     27  N   UNL     1      -4.620  12.497  21.946  0.00  0.00    +0.000 NA
ATOM     28  O   UNL     1      -5.902  12.005  21.694  0.00  0.00    +0.000 OA
ENDBRANCH  22  26
ENDBRANCH  17  22
ENDBRANCH   1  20
TORSDOF 4
ENDMDL
MODEL 9
REMARK VINA RESULT:      -8.0      3.798      9.140
REMARK  Name = 
REMARK  5 active torsions:
REMARK  status: ('A' for Active; 'I' for Inactive)
REMARK    1  A    between atoms: C_1  and  C_2
REMARK    2  A    between atoms: C_4  and  C_5
REMARK    3  A    between atoms: C_5  and  C_6
REMARK    4  A    between atoms: C_9  and  C_10
REMARK    5  A    between atoms: C_14  and  C_16
REMARK                            x       y       z     vdW  Elec       q    Type
REMARK                         _______ _______ _______ _____ _____    ______ ____
ROOT
ATOM      1  C   UNL     1       1.780   8.989  19.540  0.00  0.00    +0.000 C 
ATOM      2  C   UNL     1       2.212   8.833  18.089  0.00  0.00    +0.000 C 
ATOM      3  C   UNL     1       3.125   7.660  17.727  0.00  0.00    +0.000 C 
ATOM      4  N   UNL     1       3.209   6.515  18.624  0.00  0.00    +0.000 N 
ATOM      5  C   UNL     1       4.054   5.382  18.437  0.00  0.00    +0.000 C 
ATOM      6  O   UNL     1       4.126   4.495  19.292  0.00  0.00    +0.000 OA
ATOM      7  C   UNL     1       2.559   6.536  19.920  0.00  0.00    +0.000 C 
ATOM      8  C   UNL     1       1.594   7.660  20.257  0.00  0.00    +0.000 C 
ENDROOT
BRANCH   5   9
ATOM      9  C   UNL     1       4.903   5.195  17.230  0.00  0.00    +0.000 A 
ATOM     10  C   UNL     1       4.559   4.300  16.210  0.00  0.00    +0.000 A 
ATOM     11  C   UNL     1       5.421   4.094  15.132  0.00  0.00    +0.000 A 
ATOM     12  C   UNL     1       6.656   4.733  15.102  0.00  0.00    +0.000 A 
ATOM     13  F   UNL     1       7.489   4.508  14.078  0.00  0.00    +0.000 F 
ATOM     14  C   UNL     1       7.048   5.579  16.127  0.00  0.00    +0.000 A 
ATOM     15  C   UNL     1       6.169   5.816  17.188  0.00  0.00    +0.000 A 
ATOM     16  F   UNL     1       6.578   6.637  18.158  0.00  0.00    +0.000 F 
ENDBRANCH   5   9
BRANCH   1  20
ATOM     17  C   UNL     1      -1.126  11.141  19.409  0.00  0.00    +0.000 A 
ATOM     18  N   UNL     1      -1.314  10.582  20.615  0.00  0.00    +0.000 NA
ATOM     19  O   UNL     1      -0.230   9.710  20.751  0.00  0.00    +0.000 OA
ATOM     20  C   UNL     1       0.505   9.807  19.601  0.00  0.00    +0.000 A 
ATOM     21  N   UNL     1      -0.013  10.661  18.738  0.00  0.00    +0.000 NA
BRANCH  17  22
ATOM     22  C   UNL     1      -2.090  12.127  18.831  0.00  0.00    +0.000 C 
BRANCH  22  26
ATOM     23  C   UNL     1      -3.352  10.136  14.467  0.00  0.00    +0.000 C 
ATOM     24  C   UNL     1      -3.303  10.773  15.796  0.00  0.00    +0.000 A 
ATOM     25  N   UNL     1      -2.270  11.164  16.509  0.00  0.00    +0.000 NA
ATOM     26  C   UNL     1      -2.865  11.582  17.681  0.00  0.00    +0.000 A 
ATOM     27  N   UNL     1      -4.205  11.519  17.674  0.00  0.00    +0.000 NA
ATOM     28  O   UNL     1      -4.496  10.965  16.426  0.00  0.00    +0.000 OA
ENDBRANCH  22  26
ENDBRANCH  17  22
ENDBRANCH   1  20
TORSDOF 4
ENDMDL
