MODEL 1
REMARK VINA RESULT:      -8.4      0.000      0.000
REMARK  Name = 
REMARK  5 active torsions:
REMARK  status: ('A' for Active; 'I' for Inactive)
REMARK    1  A    between atoms: C_9  and  C_10
REMARK    2  A    between atoms: C_10  and  S_11
REMARK    3  A    between atoms: S_11  and  C_12
REMARK    4  A    between atoms: C_15  and  C_16
REMARK    5  A    between atoms: N_25  and  C_26
REMARK                            x       y       z     vdW  Elec       q    Type
REMARK                         _______ _______ _______ _____ _____    ______ ____
ROOT
ATOM      1  C   UNL     1       1.862   8.113  19.262  0.00  0.00    +0.000 A 
ATOM      2  N   UNL     1       2.294   8.384  18.050  0.00  0.00    +0.000 NA
ATOM      3  N   UNL     1       1.773   9.592  17.674  0.00  0.00    +0.000 NA
ATOM      4  C   UNL     1       1.088  10.088  18.688  0.00  0.00    +0.000 A 
ATOM      5  N   UNL     1       1.084   9.160  19.718  0.00  0.00    +0.000 N 
ENDROOT
BRANCH   4   6
ATOM      6  C   UNL     1       0.406  11.413  18.583  0.00  0.00    +0.000 A 
ATOM      7  C   UNL     1      -0.944  11.481  18.305  0.00  0.00    +0.000 A 
ATOM      8  N   UNL     1      -1.326  12.790  18.371  0.00  0.00    +0.000 N 
ATOM      9  C   UNL     1      -0.229  13.590  18.621  0.00  0.00    +0.000 A 
ATOM     10  C   UNL     1      -0.166  14.981  18.757  0.00  0.00    +0.000 A 
ATOM     11  C   UNL     1       1.095  15.555  18.926  0.00  0.00    +0.000 A 
ATOM     12  C   UNL     1       2.241  14.765  18.933  0.00  0.00    +0.000 A 
ATOM     13  C   UNL     1       2.151  13.371  18.818  0.00  0.00    +0.000 A 
ATOM     14  C   UNL     1       0.887  12.754  18.697  0.00  0.00    +0.000 A 
ATOM     15  H   UNL     1      -2.265  13.130  18.240  0.00  0.00    +0.000 HD
ENDBRANCH   4   6
BRANCH   5  16
ATOM     16  C   UNL     1       0.221   9.256  20.888  0.00  0.00    +0.000 C 
ATOM     17  C   UNL     1       0.296  10.426  21.850  0.00  0.00    +0.000 C 
ATOM     18  C   UNL     1       0.595   9.050  22.340  0.00  0.00    +0.000 C 
ENDBRANCH   5  16
BRANCH   1  19
ATOM     19  S   UNL     1       2.136   6.587  20.033  0.00  0.00    +0.000 S 
BRANCH  19  20
ATOM     20  C   UNL     1       3.643   6.026  19.165  0.00  0.00    +0.000 C 
BRANCH  20  29
ATOM     21  C   UNL     1       7.370   4.783  15.592  0.00  0.00    +0.000 A 
ATOM     22  C   UNL     1       6.212   4.823  14.813  0.00  0.00    +0.000 A 
ATOM     23  C   UNL     1       4.960   4.674  15.412  0.00  0.00    +0.000 A 
ATOM     24  C   UNL     1       4.868   4.487  16.789  0.00  0.00    +0.000 A 
ATOM     25  C   UNL     1       6.032   4.399  17.561  0.00  0.00    +0.000 A 
ATOM     26  C   UNL     1       7.281   4.569  16.967  0.00  0.00    +0.000 A 
ATOM     27  O   UNL     1       6.020   4.173  18.915  0.00  0.00    +0.000 OA
ATOM     28  C   UNL     1       4.744   3.680  19.334  0.00  0.00    +0.000 C 
ATOM     29  C   UNL     1       3.612   4.535  18.769  0.00  0.00    +0.000 C 
ATOM     30  O   UNL     1       3.605   4.421  17.327  0.00  0.00    +0.000 OA
ENDBRANCH  20  29
ENDBRANCH  19  20
ENDBRANCH   1  19
TORSDOF 5
ENDMDL
MODEL 2
REMARK VINA RESULT:      -8.4      2.581      3.809
REMARK  Name = 
REMARK  5 active torsions:
REMARK  status: ('A' for Active; 'I' for Inactive)
REMARK    1  A    between atoms: C_9  and  C_10
REMARK    2  A    between atoms: C_10  and  S_11
REMARK    3  A    between atoms: S_11  and  C_12
REMARK    4  A    between atoms: C_15  and  C_16
REMARK    5  A    between atoms: N_25  and  C_26
REMARK                            x       y       z     vdW  Elec       q    Type
REMARK                         _______ _______ _______ _____ _____    ______ ____
ROOT
ATOM      1  C   UNL     1       2.813   6.329  18.388  0.00  0.00    +0.000 A 
ATOM      2  N   UNL     1       2.970   7.459  17.734  0.00  0.00    +0.000 NA
ATOM      3  N   UNL     1       2.358   8.451  18.450  0.00  0.00    +0.000 NA
ATOM      4  C   UNL     1       1.898   7.936  19.575  0.00  0.00    +0.000 A 
ATOM      5  N   UNL     1       2.134   6.570  19.567  0.00  0.00    +0.000 N 
ENDROOT
BRANCH   4   6
ATOM      6  C   UNL     1       1.186   8.784  20.577  0.00  0.00    +0.000 A 
ATOM      7  C   UNL     1       1.420   8.615  21.926  0.00  0.00    +0.000 A 
ATOM      8  N   UNL     1       0.730   9.578  22.602  0.00  0.00    +0.000 N 
ATOM      9  C   UNL     1      -0.013  10.335  21.718  0.00  0.00    +0.000 A 
ATOM     10  C   UNL     1      -0.866  11.412  21.981  0.00  0.00    +0.000 A 
ATOM     11  C   UNL     1      -1.568  11.956  20.905  0.00  0.00    +0.000 A 
ATOM     12  C   UNL     1      -1.434  11.423  19.626  0.00  0.00    +0.000 A 
ATOM     13  C   UNL     1      -0.557  10.357  19.382  0.00  0.00    +0.000 A 
ATOM     14  C   UNL     1       0.207   9.818  20.440  0.00  0.00    +0.000 A 
ATOM     15  H   UNL     1       0.740   9.710  23.601  0.00  0.00    +0.000 HD
ENDBRANCH   4   6
BRANCH   5  16
ATOM     16  C   UNL     1       1.541   5.642  20.521  0.00  0.00    +0.000 C 
ATOM     17  C   UNL     1       2.327   4.491  21.120  0.00  0.00    +0.000 C 
ATOM     18  C   UNL     1       1.123   4.206  20.287  0.00  0.00    +0.000 C 
ENDBRANCH   5  16
BRANCH   1  19
ATOM     19  S   UNL     1       3.275   4.795  17.729  0.00  0.00    +0.000 S 
BRANCH  19  20
ATOM     20  C   UNL     1       4.760   5.262  16.772  0.00  0.00    +0.000 C 
BRANCH  20  29
ATOM     21  C   UNL     1       7.410   4.946  12.180  0.00  0.00    +0.000 A 
ATOM     22  C   UNL     1       6.592   3.816  12.130  0.00  0.00    +0.000 A 
ATOM     23  C   UNL     1       6.067   3.279  13.307  0.00  0.00    +0.000 A 
ATOM     24  C   UNL     1       6.362   3.873  14.533  0.00  0.00    +0.000 A 
ATOM     25  C   UNL     1       7.222   4.976  14.585  0.00  0.00    +0.000 A 
ATOM     26  C   UNL     1       7.728   5.526  13.409  0.00  0.00    +0.000 A 
ATOM     27  O   UNL     1       7.591   5.585  15.758  0.00  0.00    +0.000 OA
ATOM     28  C   UNL     1       7.302   4.744  16.878  0.00  0.00    +0.000 C 
ATOM     29  C   UNL     1       5.878   4.199  16.804  0.00  0.00    +0.000 C 
ATOM     30  O   UNL     1       5.758   3.341  15.646  0.00  0.00    +0.000 OA
ENDBRANCH  20  29
ENDBRANCH  19  20
ENDBRANCH   1  19
TORSDOF 5
ENDMDL
MODEL 3
REMARK VINA RESULT:      -8.2      3.487      9.073
REMARK  Name = 
REMARK  5 active torsions:
REMARK  status: ('A' for Active; 'I' for Inactive)
REMARK    1  A    between atoms: C_9  and  C_10
REMARK    2  A    between atoms: C_10  and  S_11
REMARK    3  A    between atoms: S_11  and  C_12
REMARK    4  A    between atoms: C_15  and  C_16
REMARK    5  A    between atoms: N_25  and  C_26
REMARK                            x       y       z     vdW  Elec       q    Type
REMARK                         _______ _______ _______ _____ _____    ______ ____
ROOT
ATOM      1  C   UNL     1       1.324   9.689  18.767  0.00  0.00    +0.000 A 
ATOM      2  N   UNL     1       1.855   9.573  17.570  0.00  0.00    +0.000 NA
ATOM      3  N   UNL     1       2.524   8.381  17.516  0.00  0.00    +0.000 NA
ATOM      4  C   UNL     1       2.332   7.740  18.654  0.00  0.00    +0.000 A 
ATOM      5  N   UNL     1       1.598   8.553  19.503  0.00  0.00    +0.000 N 
ENDROOT
BRANCH   4   6
ATOM      6  C   UNL     1       2.933   6.393  18.891  0.00  0.00    +0.000 A 
ATOM      7  C   UNL     1       4.182   6.090  18.389  0.00  0.00    +0.000 A 
ATOM      8  N   UNL     1       4.531   4.849  18.837  0.00  0.00    +0.000 N 
ATOM      9  C   UNL     1       3.495   4.304  19.571  0.00  0.00    +0.000 A 
ATOM     10  C   UNL     1       3.423   3.057  20.201  0.00  0.00    +0.000 A 
ATOM     11  C   UNL     1       2.218   2.714  20.814  0.00  0.00    +0.000 A 
ATOM     12  C   UNL     1       1.127   3.577  20.772  0.00  0.00    +0.000 A 
ATOM     13  C   UNL     1       1.230   4.831  20.153  0.00  0.00    +0.000 A 
ATOM     14  C   UNL     1       2.451   5.230  19.569  0.00  0.00    +0.000 A 
ATOM     15  H   UNL     1       5.405   4.385  18.648  0.00  0.00    +0.000 HD
ENDBRANCH   4   6
BRANCH   5  16
ATOM     16  C   UNL     1       1.417   8.282  20.924  0.00  0.00    +0.000 C 
ATOM     17  C   UNL     1       0.045   8.266  21.571  0.00  0.00    +0.000 C 
ATOM     18  C   UNL     1       1.059   9.263  22.020  0.00  0.00    +0.000 C 
ENDBRANCH   5  16
BRANCH   1  19
ATOM     19  S   UNL     1       0.552  11.141  19.311  0.00  0.00    +0.000 S 
BRANCH  19  20
ATOM     20  C   UNL     1       1.591  12.409  18.504  0.00  0.00    +0.000 C 
BRANCH  20  29
ATOM     21  C   UNL     1       1.441  17.623  17.503  0.00  0.00    +0.000 A 
ATOM     22  C   UNL     1       2.693  17.260  17.005  0.00  0.00    +0.000 A 
ATOM     23  C   UNL     1       3.315  16.093  17.455  0.00  0.00    +0.000 A 
ATOM     24  C   UNL     1       2.682  15.292  18.403  0.00  0.00    +0.000 A 
ATOM     25  C   UNL     1       1.449  15.683  18.937  0.00  0.00    +0.000 A 
ATOM     26  C   UNL     1       0.818  16.835  18.472  0.00  0.00    +0.000 A 
ATOM     27  O   UNL     1       0.789  14.967  19.904  0.00  0.00    +0.000 OA
ATOM     28  C   UNL     1       1.670  14.031  20.530  0.00  0.00    +0.000 C 
ATOM     29  C   UNL     1       2.449  13.228  19.491  0.00  0.00    +0.000 C 
ATOM     30  O   UNL     1       3.313  14.122  18.750  0.00  0.00    +0.000 OA
ENDBRANCH  20  29
ENDBRANCH  19  20
ENDBRANCH   1  19
TORSDOF 5
ENDMDL
MODEL 4
REMARK VINA RESULT:      -8.0      3.820      9.428
REMARK  Name = 
REMARK  5 active torsions:
REMARK  status: ('A' for Active; 'I' for Inactive)
REMARK    1  A    between atoms: C_9  and  C_10
REMARK    2  A    between atoms: C_10  and  S_11
REMARK    3  A    between atoms: S_11  and  C_12
REMARK    4  A    between atoms: C_15  and  C_16
REMARK    5  A    between atoms: N_25  and  C_26
REMARK                            x       y       z     vdW  Elec       q    Type
REMARK                         _______ _______ _______ _____ _____    ______ ____
ROOT
ATOM      1  C   UNL     1       1.435   9.585  18.858  0.00  0.00    +0.000 A 
ATOM      2  N   UNL     1       1.968   9.497  17.660  0.00  0.00    +0.000 NA
ATOM      3  N   UNL     1       2.587   8.282  17.558  0.00  0.00    +0.000 NA
ATOM      4  C   UNL     1       2.363   7.602  18.667  0.00  0.00    +0.000 A 
ATOM      5  N   UNL     1       1.658   8.408  19.547  0.00  0.00    +0.000 N 
ENDROOT
BRANCH   4   6
ATOM      6  C   UNL     1       2.906   6.222  18.849  0.00  0.00    +0.000 A 
ATOM      7  C   UNL     1       4.101   5.861  18.261  0.00  0.00    +0.000 A 
ATOM      8  N   UNL     1       4.413   4.598  18.672  0.00  0.00    +0.000 N 
ATOM      9  C   UNL     1       3.402   4.097  19.468  0.00  0.00    +0.000 A 
ATOM     10  C   UNL     1       3.306   2.847  20.089  0.00  0.00    +0.000 A 
ATOM     11  C   UNL     1       2.128   2.559  20.778  0.00  0.00    +0.000 A 
ATOM     12  C   UNL     1       1.084   3.479  20.819  0.00  0.00    +0.000 A 
ATOM     13  C   UNL     1       1.211   4.734  20.207  0.00  0.00    +0.000 A 
ATOM     14  C   UNL     1       2.410   5.077  19.546  0.00  0.00    +0.000 A 
ATOM     15  H   UNL     1       5.246   4.092  18.420  0.00  0.00    +0.000 HD
ENDBRANCH   4   6
BRANCH   5  16
ATOM     16  C   UNL     1       1.458   8.085  20.954  0.00  0.00    +0.000 C 
ATOM     17  C   UNL     1       0.087   8.130  21.602  0.00  0.00    +0.000 C 
ATOM     18  C   UNL     1       1.164   9.036  22.095  0.00  0.00    +0.000 C 
ENDBRANCH   5  16
BRANCH   1  19
ATOM     19  S   UNL     1       0.721  11.042  19.461  0.00  0.00    +0.000 S 
BRANCH  19  20
ATOM     20  C   UNL     1      -1.018  10.815  18.946  0.00  0.00    +0.000 C 
BRANCH  20  29
ATOM     21  C   UNL     1      -6.200  11.505  19.880  0.00  0.00    +0.000 A 
ATOM     22  C   UNL     1      -6.201  10.938  18.605  0.00  0.00    +0.000 A 
ATOM     23  C   UNL     1      -5.057  11.008  17.807  0.00  0.00    +0.000 A 
ATOM     24  C   UNL     1      -3.914  11.645  18.287  0.00  0.00    +0.000 A 
ATOM     25  C   UNL     1      -3.932  12.255  19.546  0.00  0.00    +0.000 A 
ATOM     26  C   UNL     1      -5.066  12.167  20.352  0.00  0.00    +0.000 A 
ATOM     27  O   UNL     1      -2.860  12.936  20.065  0.00  0.00    +0.000 OA
ATOM     28  C   UNL     1      -1.914  13.250  19.039  0.00  0.00    +0.000 C 
ATOM     29  C   UNL     1      -1.602  12.023  18.185  0.00  0.00    +0.000 C 
ATOM     30  O   UNL     1      -2.800  11.616  17.483  0.00  0.00    +0.000 OA
ENDBRANCH  20  29
ENDBRANCH  19  20
ENDBRANCH   1  19
TORSDOF 5
ENDMDL
MODEL 5
REMARK VINA RESULT:      -8.0      2.515      3.859
REMARK  Name = 
REMARK  5 active torsions:
REMARK  status: ('A' for Active; 'I' for Inactive)
REMARK    1  A    between atoms: C_9  and  C_10
REMARK    2  A    between atoms: C_10  and  S_11
REMARK    3  A    between atoms: S_11  and  C_12
REMARK    4  A    between atoms: C_15  and  C_16
REMARK    5  A    between atoms: N_25  and  C_26
REMARK                            x       y       z     vdW  Elec       q    Type
REMARK                         _______ _______ _______ _____ _____    ______ ____
ROOT
ATOM      1  C   UNL     1       3.172   6.451  18.203  0.00  0.00    +0.000 A 
ATOM      2  N   UNL     1       3.466   7.423  17.367  0.00  0.00    +0.000 NA
ATOM      3  N   UNL     1       2.717   8.515  17.706  0.00  0.00    +0.000 NA
ATOM      4  C   UNL     1       2.026   8.230  18.795  0.00  0.00    +0.000 A 
ATOM      5  N   UNL     1       2.256   6.906  19.133  0.00  0.00    +0.000 N 
ENDROOT
BRANCH   4   6
ATOM      6  C   UNL     1       1.116   9.238  19.417  0.00  0.00    +0.000 A 
ATOM      7  C   UNL     1       0.521  10.212  18.641  0.00  0.00    +0.000 A 
ATOM      8  N   UNL     1      -0.333  10.924  19.433  0.00  0.00    +0.000 N 
ATOM      9  C   UNL     1      -0.253  10.475  20.736  0.00  0.00    +0.000 A 
ATOM     10  C   UNL     1      -0.941  10.927  21.867  0.00  0.00    +0.000 A 
ATOM     11  C   UNL     1      -0.612  10.351  23.095  0.00  0.00    +0.000 A 
ATOM     12  C   UNL     1       0.383   9.382  23.181  0.00  0.00    +0.000 A 
ATOM     13  C   UNL     1       1.045   8.929  22.031  0.00  0.00    +0.000 A 
ATOM     14  C   UNL     1       0.699   9.454  20.767  0.00  0.00    +0.000 A 
ATOM     15  H   UNL     1      -0.922  11.679  19.123  0.00  0.00    +0.000 HD
ENDBRANCH   4   6
BRANCH   5  16
ATOM     16  C   UNL     1       1.472   6.176  20.120  0.00  0.00    +0.000 C 
ATOM     17  C   UNL     1       2.113   5.229  21.117  0.00  0.00    +0.000 C 
ATOM     18  C   UNL     1       1.127   4.702  20.130  0.00  0.00    +0.000 C 
ENDBRANCH   5  16
BRANCH   1  19
ATOM     19  S   UNL     1       3.763   4.835  18.005  0.00  0.00    +0.000 S 
BRANCH  19  20
ATOM     20  C   UNL     1       4.880   5.048  16.574  0.00  0.00    +0.000 C 
BRANCH  20  29
ATOM     21  C   UNL     1       7.431   5.045  11.916  0.00  0.00    +0.000 A 
ATOM     22  C   UNL     1       6.650   3.892  11.828  0.00  0.00    +0.000 A 
ATOM     23  C   UNL     1       6.170   3.281  12.988  0.00  0.00    +0.000 A 
ATOM     24  C   UNL     1       6.474   3.825  14.235  0.00  0.00    +0.000 A 
ATOM     25  C   UNL     1       7.298   4.952  14.322  0.00  0.00    +0.000 A 
ATOM     26  C   UNL     1       7.759   5.576  13.165  0.00  0.00    +0.000 A 
ATOM     27  O   UNL     1       7.674   5.516  15.516  0.00  0.00    +0.000 OA
ATOM     28  C   UNL     1       7.439   4.612  16.599  0.00  0.00    +0.000 C 
ATOM     29  C   UNL     1       6.032   4.023  16.529  0.00  0.00    +0.000 C 
ATOM     30  O   UNL     1       5.913   3.218  15.333  0.00  0.00    +0.000 OA
ENDBRANCH  20  29
ENDBRANCH  19  20
ENDBRANCH   1  19
TORSDOF 5
ENDMDL
MODEL 6
REMARK VINA RESULT:      -8.0      3.789      9.482
REMARK  Name = 
REMARK  5 active torsions:
REMARK  status: ('A' for Active; 'I' for Inactive)
REMARK    1  A    between atoms: C_9  and  C_10
REMARK    2  A    between atoms: C_10  and  S_11
REMARK    3  A    between atoms: S_11  and  C_12
REMARK    4  A    between atoms: C_15  and  C_16
REMARK    5  A    between atoms: N_25  and  C_26
REMARK                            x       y       z     vdW  Elec       q    Type
REMARK                         _______ _______ _______ _____ _____    ______ ____
ROOT
ATOM      1  C   UNL     1       1.566   9.391  18.814  0.00  0.00    +0.000 A 
ATOM      2  N   UNL     1       2.118   9.211  17.635  0.00  0.00    +0.000 NA
ATOM      3  N   UNL     1       2.732   7.989  17.637  0.00  0.00    +0.000 NA
ATOM      4  C   UNL     1       2.487   7.396  18.790  0.00  0.00    +0.000 A 
ATOM      5  N   UNL     1       1.772   8.270  19.594  0.00  0.00    +0.000 N 
ENDROOT
BRANCH   4   6
ATOM      6  C   UNL     1       3.020   6.033  19.086  0.00  0.00    +0.000 A 
ATOM      7  C   UNL     1       4.297   5.685  18.697  0.00  0.00    +0.000 A 
ATOM      8  N   UNL     1       4.564   4.437  19.181  0.00  0.00    +0.000 N 
ATOM      9  C   UNL     1       3.452   3.932  19.825  0.00  0.00    +0.000 A 
ATOM     10  C   UNL     1       3.284   2.694  20.453  0.00  0.00    +0.000 A 
ATOM     11  C   UNL     1       2.019   2.395  20.961  0.00  0.00    +0.000 A 
ATOM     12  C   UNL     1       0.966   3.293  20.819  0.00  0.00    +0.000 A 
ATOM     13  C   UNL     1       1.163   4.537  20.204  0.00  0.00    +0.000 A 
ATOM     14  C   UNL     1       2.443   4.892  19.726  0.00  0.00    +0.000 A 
ATOM     15  H   UNL     1       5.436   3.944  19.072  0.00  0.00    +0.000 HD
ENDBRANCH   4   6
BRANCH   5  16
ATOM     16  C   UNL     1       1.546   8.056  21.018  0.00  0.00    +0.000 C 
ATOM     17  C   UNL     1       0.163   8.141  21.635  0.00  0.00    +0.000 C 
ATOM     18  C   UNL     1       1.224   9.092  22.075  0.00  0.00    +0.000 C 
ENDBRANCH   5  16
BRANCH   1  19
ATOM     19  S   UNL     1       0.849  10.894  19.291  0.00  0.00    +0.000 S 
BRANCH  19  20
ATOM     20  C   UNL     1      -0.868  10.658  18.710  0.00  0.00    +0.000 C 
BRANCH  20  29
ATOM     21  C   UNL     1      -4.543  13.019  21.731  0.00  0.00    +0.000 A 
ATOM     22  C   UNL     1      -5.320  12.361  20.778  0.00  0.00    +0.000 A 
ATOM     23  C   UNL     1      -4.761  11.992  19.552  0.00  0.00    +0.000 A 
ATOM     24  C   UNL     1      -3.426  12.284  19.283  0.00  0.00    +0.000 A 
ATOM     25  C   UNL     1      -2.662  12.987  20.222  0.00  0.00    +0.000 A 
ATOM     26  C   UNL     1      -3.213  13.336  21.454  0.00  0.00    +0.000 A 
ATOM     27  O   UNL     1      -1.355  13.346  20.008  0.00  0.00    +0.000 OA
ATOM     28  C   UNL     1      -1.023  13.249  18.620  0.00  0.00    +0.000 C 
ATOM     29  C   UNL     1      -1.473  11.909  18.040  0.00  0.00    +0.000 C 
ATOM     30  O   UNL     1      -2.917  11.831  18.090  0.00  0.00    +0.000 OA
ENDBRANCH  20  29
ENDBRANCH  19  20
ENDBRANCH   1  19
TORSDOF 5
ENDMDL
MODEL 7
REMARK VINA RESULT:      -7.9      3.774      9.449
REMARK  Name = 
REMARK  5 active torsions:
REMARK  status: ('A' for Active; 'I' for Inactive)
REMARK    1  A    between atoms: C_9  and  C_10
REMARK    2  A    between atoms: C_10  and  S_11
REMARK    3  A    between atoms: S_11  and  C_12
REMARK    4  A    between atoms: C_15  and  C_16
REMARK    5  A    between atoms: N_25  and  C_26
REMARK                            x       y       z     vdW  Elec       q    Type
REMARK                         _______ _______ _______ _____ _____    ______ ____
ROOT
ATOM      1  C   UNL     1       1.421   9.522  18.830  0.00  0.00    +0.000 A 
ATOM      2  N   UNL     1       1.773   9.789  17.592  0.00  0.00    +0.000 NA
ATOM      3  N   UNL     1       2.531   8.748  17.132  0.00  0.00    +0.000 NA
ATOM      4  C   UNL     1       2.574   7.815  18.065  0.00  0.00    +0.000 A 
ATOM      5  N   UNL     1       1.906   8.279  19.188  0.00  0.00    +0.000 N 
ENDROOT
BRANCH   4   6
ATOM      6  C   UNL     1       3.323   6.541  17.848  0.00  0.00    +0.000 A 
ATOM      7  C   UNL     1       4.673   6.568  17.562  0.00  0.00    +0.000 A 
ATOM      8  N   UNL     1       5.124   5.280  17.519  0.00  0.00    +0.000 N 
ATOM      9  C   UNL     1       4.071   4.405  17.703  0.00  0.00    +0.000 A 
ATOM     10  C   UNL     1       4.082   3.006  17.721  0.00  0.00    +0.000 A 
ATOM     11  C   UNL     1       2.854   2.354  17.845  0.00  0.00    +0.000 A 
ATOM     12  C   UNL     1       1.669   3.079  17.921  0.00  0.00    +0.000 A 
ATOM     13  C   UNL     1       1.685   4.481  17.922  0.00  0.00    +0.000 A 
ATOM     14  C   UNL     1       2.914   5.171  17.851  0.00  0.00    +0.000 A 
ATOM     15  H   UNL     1       6.078   5.002  17.357  0.00  0.00    +0.000 HD
ENDBRANCH   4   6
BRANCH   5  16
ATOM     16  C   UNL     1       1.968   7.628  20.490  0.00  0.00    +0.000 C 
ATOM     17  C   UNL     1       1.099   6.434  20.835  0.00  0.00    +0.000 C 
ATOM     18  C   UNL     1       0.956   7.697  21.614  0.00  0.00    +0.000 C 
ENDBRANCH   5  16
BRANCH   1  19
ATOM     19  S   UNL     1       0.612  10.672  19.842  0.00  0.00    +0.000 S 
BRANCH  19  20
ATOM     20  C   UNL     1      -1.079  10.612  19.151  0.00  0.00    +0.000 C 
BRANCH  20  29
ATOM     21  C   UNL     1      -6.278  11.629  19.514  0.00  0.00    +0.000 A 
ATOM     22  C   UNL     1      -6.163  11.127  18.216  0.00  0.00    +0.000 A 
ATOM     23  C   UNL     1      -4.930  11.152  17.562  0.00  0.00    +0.000 A 
ATOM     24  C   UNL     1      -3.814  11.681  18.208  0.00  0.00    +0.000 A 
ATOM     25  C   UNL     1      -3.942  12.228  19.489  0.00  0.00    +0.000 A 
ATOM     26  C   UNL     1      -5.168  12.183  20.151  0.00  0.00    +0.000 A 
ATOM     27  O   UNL     1      -2.897  12.803  20.168  0.00  0.00    +0.000 OA
ATOM     28  C   UNL     1      -1.817  13.098  19.279  0.00  0.00    +0.000 C 
ATOM     29  C   UNL     1      -1.486  11.895  18.398  0.00  0.00    +0.000 C 
ATOM     30  O   UNL     1      -2.615  11.611  17.539  0.00  0.00    +0.000 OA
ENDBRANCH  20  29
ENDBRANCH  19  20
ENDBRANCH   1  19
TORSDOF 5
ENDMDL
MODEL 8
REMARK VINA RESULT:      -7.8      2.318      3.208
REMARK  Name = 
REMARK  5 active torsions:
REMARK  status: ('A' for Active; 'I' for Inactive)
REMARK    1  A    between atoms: C_9  and  C_10
REMARK    2  A    between atoms: C_10  and  S_11
REMARK    3  A    between atoms: S_11  and  C_12
REMARK    4  A    between atoms: C_15  and  C_16
REMARK    5  A    between atoms: N_25  and  C_26
REMARK                            x       y       z     vdW  Elec       q    Type
REMARK                         _______ _______ _______ _____ _____    ______ ____
ROOT
ATOM      1  C   UNL     1       1.418   8.605  20.041  0.00  0.00    +0.000 A 
ATOM      2  N   UNL     1       1.786   8.279  21.261  0.00  0.00    +0.000 NA
ATOM      3  N   UNL     1       1.195   9.153  22.130  0.00  0.00    +0.000 NA
ATOM      4  C   UNL     1       0.408   9.961  21.445  0.00  0.00    +0.000 A 
ATOM      5  N   UNL     1       0.544   9.673  20.096  0.00  0.00    +0.000 N 
ENDROOT
BRANCH   4   6
ATOM      6  C   UNL     1      -0.387  11.026  22.127  0.00  0.00    +0.000 A 
ATOM      7  C   UNL     1      -1.418  10.687  22.978  0.00  0.00    +0.000 A 
ATOM      8  N   UNL     1      -1.899  11.833  23.541  0.00  0.00    +0.000 N 
ATOM      9  C   UNL     1      -1.242  12.928  23.017  0.00  0.00    +0.000 A 
ATOM     10  C   UNL     1      -1.425  14.286  23.303  0.00  0.00    +0.000 A 
ATOM     11  C   UNL     1      -0.680  15.206  22.564  0.00  0.00    +0.000 A 
ATOM     12  C   UNL     1       0.191  14.778  21.566  0.00  0.00    +0.000 A 
ATOM     13  C   UNL     1       0.374  13.412  21.312  0.00  0.00    +0.000 A 
ATOM     14  C   UNL     1      -0.326  12.454  22.076  0.00  0.00    +0.000 A 
ATOM     15  H   UNL     1      -2.638  11.882  24.225  0.00  0.00    +0.000 HD
ENDBRANCH   4   6
BRANCH   5  16
ATOM     16  C   UNL     1       0.026  10.525  19.032  0.00  0.00    +0.000 C 
ATOM     17  C   UNL     1      -1.462  10.741  18.828  0.00  0.00    +0.000 C 
ATOM     18  C   UNL     1      -0.656  10.100  17.749  0.00  0.00    +0.000 C 
ENDBRANCH   5  16
BRANCH   1  19
ATOM     19  S   UNL     1       2.096   7.865  18.630  0.00  0.00    +0.000 S 
BRANCH  19  20
ATOM     20  C   UNL     1       2.591   6.237  19.297  0.00  0.00    +0.000 C 
BRANCH  20  29
ATOM     21  C   UNL     1       7.855   6.452  18.629  0.00  0.00    +0.000 A 
ATOM     22  C   UNL     1       7.385   7.144  17.512  0.00  0.00    +0.000 A 
ATOM     23  C   UNL     1       6.078   6.945  17.064  0.00  0.00    +0.000 A 
ATOM     24  C   UNL     1       5.243   6.053  17.734  0.00  0.00    +0.000 A 
ATOM     25  C   UNL     1       5.733   5.323  18.823  0.00  0.00    +0.000 A 
ATOM     26  C   UNL     1       7.030   5.538  19.285  0.00  0.00    +0.000 A 
ATOM     27  O   UNL     1       4.982   4.397  19.504  0.00  0.00    +0.000 OA
ATOM     28  C   UNL     1       3.830   4.022  18.745  0.00  0.00    +0.000 C 
ATOM     29  C   UNL     1       3.093   5.253  18.220  0.00  0.00    +0.000 C 
ATOM     30  O   UNL     1       3.948   5.955  17.287  0.00  0.00    +0.000 OA
ENDBRANCH  20  29
ENDBRANCH  19  20
ENDBRANCH   1  19
TORSDOF 5
ENDMDL
MODEL 9
REMARK VINA RESULT:      -7.8      1.416      2.929
REMARK  Name = 
REMARK  5 active torsions:
REMARK  status: ('A' for Active; 'I' for Inactive)
REMARK    1  A    between atoms: C_9  and  C_10
REMARK    2  A    between atoms: C_10  and  S_11
REMARK    3  A    between atoms: S_11  and  C_12
REMARK    4  A    between atoms: C_15  and  C_16
REMARK    5  A    between atoms: N_25  and  C_26
REMARK                            x       y       z     vdW  Elec       q    Type
REMARK                         _______ _______ _______ _____ _____    ______ ____
ROOT
ATOM      1  C   UNL     1       2.050   8.534  18.774  0.00  0.00    +0.000 A 
ATOM      2  N   UNL     1       2.404   9.005  17.598  0.00  0.00    +0.000 NA
ATOM      3  N   UNL     1       1.789  10.213  17.422  0.00  0.00    +0.000 NA
ATOM      4  C   UNL     1       1.124  10.511  18.524  0.00  0.00    +0.000 A 
ATOM      5  N   UNL     1       1.232   9.449  19.408  0.00  0.00    +0.000 N 
ENDROOT
BRANCH   4   6
ATOM      6  C   UNL     1       0.355  11.786  18.639  0.00  0.00    +0.000 A 
ATOM      7  C   UNL     1      -1.024  11.772  18.613  0.00  0.00    +0.000 A 
ATOM      8  N   UNL     1      -1.467  13.043  18.842  0.00  0.00    +0.000 N 
ATOM      9  C   UNL     1      -0.394  13.905  18.949  0.00  0.00    +0.000 A 
ATOM     10  C   UNL     1      -0.392  15.286  19.172  0.00  0.00    +0.000 A 
ATOM     11  C   UNL     1       0.840  15.940  19.154  0.00  0.00    +0.000 A 
ATOM     12  C   UNL     1       2.014  15.237  18.899  0.00  0.00    +0.000 A 
ATOM     13  C   UNL     1       1.990  13.850  18.700  0.00  0.00    +0.000 A 
ATOM     14  C   UNL     1       0.766  13.150  18.763  0.00  0.00    +0.000 A 
ATOM     15  H   UNL     1      -2.434  13.320  18.906  0.00  0.00    +0.000 HD
ENDBRANCH   4   6
BRANCH   5  16
ATOM     16  C   UNL     1       0.423   9.317  20.613  0.00  0.00    +0.000 C 
ATOM     17  C   UNL     1       0.548  10.283  21.776  0.00  0.00    +0.000 C 
ATOM     18  C   UNL     1       0.863   8.839  21.981  0.00  0.00    +0.000 C 
ENDBRANCH   5  16
BRANCH   1  19
ATOM     19  S   UNL     1       2.459   6.937  19.304  0.00  0.00    +0.000 S 
BRANCH  19  20
ATOM     20  C   UNL     1       3.661   6.443  18.019  0.00  0.00    +0.000 C 
BRANCH  20  29
ATOM     21  C   UNL     1       1.057   2.036  19.432  0.00  0.00    +0.000 A 
ATOM     22  C   UNL     1       1.425   2.573  20.667  0.00  0.00    +0.000 A 
ATOM     23  C   UNL     1       2.488   3.474  20.749  0.00  0.00    +0.000 A 
ATOM     24  C   UNL     1       3.181   3.837  19.596  0.00  0.00    +0.000 A 
ATOM     25  C   UNL     1       2.842   3.260  18.367  0.00  0.00    +0.000 A 
ATOM     26  C   UNL     1       1.767   2.377  18.280  0.00  0.00    +0.000 A 
ATOM     27  O   UNL     1       3.507   3.536  17.199  0.00  0.00    +0.000 OA
ATOM     28  C   UNL     1       4.766   4.158  17.469  0.00  0.00    +0.000 C 
ATOM     29  C   UNL     1       4.610   5.309  18.461  0.00  0.00    +0.000 C 
ATOM     30  O   UNL     1       4.169   4.782  19.734  0.00  0.00    +0.000 OA
ENDBRANCH  20  29
ENDBRANCH  19  20
ENDBRANCH   1  19
TORSDOF 5
ENDMDL
