MODEL 1
REMARK VINA RESULT:      -9.0      0.000      0.000
REMARK  Name = 
REMARK  5 active torsions:
REMARK  status: ('A' for Active; 'I' for Inactive)
REMARK    1  A    between atoms: C_1  and  C_2
REMARK    2  A    between atoms: C_10  and  N_11
REMARK    3  A    between atoms: C_12  and  C_14
REMARK    4  A    between atoms: C_18  and  S_19
REMARK    5  A    between atoms: S_19  and  N_20
REMARK                            x       y       z     vdW  Elec       q    Type
REMARK                         _______ _______ _______ _____ _____    ______ ____
ROOT
ATOM      1  C   UNL     1       1.269   9.294  19.197  0.00  0.00    +0.000 A 
ATOM      2  C   UNL     1       1.162   8.956  20.554  0.00  0.00    +0.000 A 
ATOM      3  C   UNL     1       0.342   9.717  21.380  0.00  0.00    +0.000 A 
ATOM      4  C   UNL     1      -0.386  10.794  20.872  0.00  0.00    +0.000 A 
ATOM      5  C   UNL     1      -0.283  11.131  19.525  0.00  0.00    +0.000 A 
ATOM      6  C   UNL     1       0.562  10.391  18.685  0.00  0.00    +0.000 A 
ATOM      7  C   UNL     1      -1.268  11.394  21.920  0.00  0.00    +0.000 C 
ATOM      8  C   UNL     1      -0.975  10.560  23.174  0.00  0.00    +0.000 C 
ATOM      9  C   UNL     1       0.069   9.489  22.827  0.00  0.00    +0.000 C 
ENDROOT
BRANCH   1  11
ATOM     10  N   UNL     1       2.280   7.125  18.749  0.00  0.00    +0.000 N 
ATOM     11  C   UNL     1       2.031   8.397  18.287  0.00  0.00    +0.000 C 
ATOM     12  O   UNL     1       2.407   8.811  17.197  0.00  0.00    +0.000 OA
ATOM     13  H   UNL     1       1.874   6.799  19.618  0.00  0.00    +0.000 HD
BRANCH  10  23
ATOM     14  C   UNL     1       4.568   1.944  20.019  0.00  0.00    +0.000 C 
ATOM     15  C   UNL     1       3.486   2.746  19.362  0.00  0.00    +0.000 A 
ATOM     16  C   UNL     1       2.218   2.183  19.147  0.00  0.00    +0.000 A 
ATOM     17  C   UNL     1       1.207   2.903  18.495  0.00  0.00    +0.000 A 
ATOM     18  C   UNL     1       1.434   4.205  18.065  0.00  0.00    +0.000 A 
ATOM     19  C   UNL     1       2.676   4.778  18.310  0.00  0.00    +0.000 A 
ATOM     20  C   UNL     1       3.697   4.056  18.934  0.00  0.00    +0.000 A 
ATOM     21  C   UNL     1       4.943   4.874  19.051  0.00  0.00    +0.000 C 
ATOM     22  C   UNL     1       4.570   6.220  18.407  0.00  0.00    +0.000 C 
ATOM     23  C   UNL     1       3.083   6.184  17.993  0.00  0.00    +0.000 C 
ENDBRANCH  10  23
ENDBRANCH   1  11
BRANCH   5  24
ATOM     24  S   UNL     1      -1.311  12.375  18.813  0.00  0.00    +0.000 S 
ATOM     25  O   UNL     1      -2.649  12.250  19.346  0.00  0.00    +0.000 OA
ATOM     26  O   UNL     1      -0.597  13.630  18.794  0.00  0.00    +0.000 OA
BRANCH  24  27
ATOM     27  N   UNL     1      -1.368  11.870  17.216  0.00  0.00    +0.000 NA
ATOM     28  H   UNL     1      -2.299  12.012  16.824  0.00  0.00    +0.000 HD
ATOM     29  H   UNL     1      -0.606  12.280  16.677  0.00  0.00    +0.000 HD
ENDBRANCH  24  27
ENDBRANCH   5  24
TORSDOF 4
ENDMDL
MODEL 2
REMARK VINA RESULT:      -8.9      2.235      3.310
REMARK  Name = 
REMARK  5 active torsions:
REMARK  status: ('A' for Active; 'I' for Inactive)
REMARK    1  A    between atoms: C_1  and  C_2
REMARK    2  A    between atoms: C_10  and  N_11
REMARK    3  A    between atoms: C_12  and  C_14
REMARK    4  A    between atoms: C_18  and  S_19
REMARK    5  A    between atoms: S_19  and  N_20
REMARK                            x       y       z     vdW  Elec       q    Type
REMARK                         _______ _______ _______ _____ _____    ______ ____
ROOT
ATOM      1  C   UNL     1       1.521   7.555  20.684  0.00  0.00    +0.000 A 
ATOM      2  C   UNL     1       0.874   7.845  21.895  0.00  0.00    +0.000 A 
ATOM      3  C   UNL     1       0.333   9.113  22.087  0.00  0.00    +0.000 A 
ATOM      4  C   UNL     1       0.410  10.084  21.088  0.00  0.00    +0.000 A 
ATOM      5  C   UNL     1       1.051   9.797  19.886  0.00  0.00    +0.000 A 
ATOM      6  C   UNL     1       1.627   8.535  19.687  0.00  0.00    +0.000 A 
ATOM      7  C   UNL     1      -0.325  11.325  21.482  0.00  0.00    +0.000 C 
ATOM      8  C   UNL     1      -0.857  11.011  22.887  0.00  0.00    +0.000 C 
ATOM      9  C   UNL     1      -0.423   9.591  23.279  0.00  0.00    +0.000 C 
ENDROOT
BRANCH   1  11
ATOM     10  N   UNL     1       3.171   6.020  19.762  0.00  0.00    +0.000 N 
ATOM     11  C   UNL     1       1.972   6.162  20.424  0.00  0.00    +0.000 C 
ATOM     12  O   UNL     1       1.280   5.219  20.787  0.00  0.00    +0.000 OA
ATOM     13  H   UNL     1       3.750   6.825  19.560  0.00  0.00    +0.000 HD
BRANCH  10  23
ATOM     14  C   UNL     1       6.153   4.128  15.155  0.00  0.00    +0.000 C 
ATOM     15  C   UNL     1       6.141   4.564  16.590  0.00  0.00    +0.000 A 
ATOM     16  C   UNL     1       7.301   5.090  17.180  0.00  0.00    +0.000 A 
ATOM     17  C   UNL     1       7.320   5.463  18.532  0.00  0.00    +0.000 A 
ATOM     18  C   UNL     1       6.178   5.338  19.314  0.00  0.00    +0.000 A 
ATOM     19  C   UNL     1       5.018   4.852  18.722  0.00  0.00    +0.000 A 
ATOM     20  C   UNL     1       5.000   4.453  17.383  0.00  0.00    +0.000 A 
ATOM     21  C   UNL     1       3.653   3.935  16.993  0.00  0.00    +0.000 C 
ATOM     22  C   UNL     1       2.816   4.057  18.278  0.00  0.00    +0.000 C 
ATOM     23  C   UNL     1       3.677   4.717  19.376  0.00  0.00    +0.000 C 
ENDBRANCH  10  23
ENDBRANCH   1  11
BRANCH   5  24
ATOM     24  S   UNL     1       1.022  10.939  18.541  0.00  0.00    +0.000 S 
ATOM     25  O   UNL     1      -0.329  11.048  18.037  0.00  0.00    +0.000 OA
ATOM     26  O   UNL     1       1.820  12.094  18.879  0.00  0.00    +0.000 OA
BRANCH  24  27
ATOM     27  N   UNL     1       1.911  10.104  17.391  0.00  0.00    +0.000 NA
ATOM     28  H   UNL     1       2.750  10.625  17.134  0.00  0.00    +0.000 HD
ATOM     29  H   UNL     1       2.073   9.142  17.684  0.00  0.00    +0.000 HD
ENDBRANCH  24  27
ENDBRANCH   5  24
TORSDOF 4
ENDMDL
MODEL 3
REMARK VINA RESULT:      -8.4      2.197      2.838
REMARK  Name = 
REMARK  5 active torsions:
REMARK  status: ('A' for Active; 'I' for Inactive)
REMARK    1  A    between atoms: C_1  and  C_2
REMARK    2  A    between atoms: C_10  and  N_11
REMARK    3  A    between atoms: C_12  and  C_14
REMARK    4  A    between atoms: C_18  and  S_19
REMARK    5  A    between atoms: S_19  and  N_20
REMARK                            x       y       z     vdW  Elec       q    Type
REMARK                         _______ _______ _______ _____ _____    ______ ____
ROOT
ATOM      1  C   UNL     1       1.109   9.056  18.797  0.00  0.00    +0.000 A 
ATOM      2  C   UNL     1       0.377  10.025  18.095  0.00  0.00    +0.000 A 
ATOM      3  C   UNL     1      -0.443  10.898  18.802  0.00  0.00    +0.000 A 
ATOM      4  C   UNL     1      -0.529  10.833  20.193  0.00  0.00    +0.000 A 
ATOM      5  C   UNL     1       0.197   9.873  20.891  0.00  0.00    +0.000 A 
ATOM      6  C   UNL     1       1.006   8.967  20.192  0.00  0.00    +0.000 A 
ATOM      7  C   UNL     1      -1.390  11.931  20.734  0.00  0.00    +0.000 C 
ATOM      8  C   UNL     1      -1.859  12.686  19.483  0.00  0.00    +0.000 C 
ATOM      9  C   UNL     1      -1.258  12.013  18.240  0.00  0.00    +0.000 C 
ENDROOT
BRANCH   1  11
ATOM     10  N   UNL     1       2.236   6.919  18.489  0.00  0.00    +0.000 N 
ATOM     11  C   UNL     1       2.091   8.218  18.058  0.00  0.00    +0.000 C 
ATOM     12  O   UNL     1       2.725   8.701  17.126  0.00  0.00    +0.000 OA
ATOM     13  H   UNL     1       1.628   6.540  19.204  0.00  0.00    +0.000 HD
BRANCH  10  23
ATOM     14  C   UNL     1       4.675   1.973  20.297  0.00  0.00    +0.000 C 
ATOM     15  C   UNL     1       3.655   2.668  19.447  0.00  0.00    +0.000 A 
ATOM     16  C   UNL     1       2.486   1.999  19.054  0.00  0.00    +0.000 A 
ATOM     17  C   UNL     1       1.541   2.620  18.223  0.00  0.00    +0.000 A 
ATOM     18  C   UNL     1       1.735   3.925  17.787  0.00  0.00    +0.000 A 
ATOM     19  C   UNL     1       2.874   4.602  18.205  0.00  0.00    +0.000 A 
ATOM     20  C   UNL     1       3.832   3.981  19.010  0.00  0.00    +0.000 A 
ATOM     21  C   UNL     1       4.978   4.899  19.293  0.00  0.00    +0.000 C 
ATOM     22  C   UNL     1       4.613   6.195  18.548  0.00  0.00    +0.000 C 
ATOM     23  C   UNL     1       3.219   6.029  17.905  0.00  0.00    +0.000 C 
ENDBRANCH  10  23
ENDBRANCH   1  11
BRANCH   5  24
ATOM     24  S   UNL     1       0.244   9.867  22.655  0.00  0.00    +0.000 S 
ATOM     25  O   UNL     1       1.549   9.427  23.096  0.00  0.00    +0.000 OA
ATOM     26  O   UNL     1      -0.376  11.073  23.152  0.00  0.00    +0.000 OA
BRANCH  24  27
ATOM     27  N   UNL     1      -0.836   8.635  23.002  0.00  0.00    +0.000 NA
ATOM     28  H   UNL     1      -0.708   8.299  23.956  0.00  0.00    +0.000 HD
ATOM     29  H   UNL     1      -1.789   8.907  22.764  0.00  0.00    +0.000 HD
ENDBRANCH  24  27
ENDBRANCH   5  24
TORSDOF 4
ENDMDL
MODEL 4
REMARK VINA RESULT:      -8.2      3.612      8.449
REMARK  Name = 
REMARK  5 active torsions:
REMARK  status: ('A' for Active; 'I' for Inactive)
REMARK    1  A    between atoms: C_1  and  C_2
REMARK    2  A    between atoms: C_10  and  N_11
REMARK    3  A    between atoms: C_12  and  C_14
REMARK    4  A    between atoms: C_18  and  S_19
REMARK    5  A    between atoms: S_19  and  N_20
REMARK                            x       y       z     vdW  Elec       q    Type
REMARK                         _______ _______ _______ _____ _____    ______ ____
ROOT
ATOM      1  C   UNL     1       2.610   6.631  19.504  0.00  0.00    +0.000 A 
ATOM      2  C   UNL     1       3.195   7.167  18.346  0.00  0.00    +0.000 A 
ATOM      3  C   UNL     1       4.026   6.363  17.574  0.00  0.00    +0.000 A 
ATOM      4  C   UNL     1       4.268   5.034  17.925  0.00  0.00    +0.000 A 
ATOM      5  C   UNL     1       3.688   4.501  19.073  0.00  0.00    +0.000 A 
ATOM      6  C   UNL     1       2.871   5.305  19.878  0.00  0.00    +0.000 A 
ATOM      7  C   UNL     1       5.107   4.346  16.895  0.00  0.00    +0.000 C 
ATOM      8  C   UNL     1       5.384   5.437  15.853  0.00  0.00    +0.000 C 
ATOM      9  C   UNL     1       4.698   6.738  16.297  0.00  0.00    +0.000 C 
ENDROOT
BRANCH   1  11
ATOM     10  N   UNL     1       1.361   8.705  19.761  0.00  0.00    +0.000 N 
ATOM     11  C   UNL     1       1.612   7.443  20.250  0.00  0.00    +0.000 C 
ATOM     12  O   UNL     1       1.071   6.980  21.247  0.00  0.00    +0.000 OA
ATOM     13  H   UNL     1       1.765   9.012  18.885  0.00  0.00    +0.000 HD
BRANCH  10  23
ATOM     14  C   UNL     1      -0.331  14.148  18.664  0.00  0.00    +0.000 C 
ATOM     15  C   UNL     1      -0.618  12.677  18.617  0.00  0.00    +0.000 A 
ATOM     16  C   UNL     1      -1.515  12.161  17.669  0.00  0.00    +0.000 A 
ATOM     17  C   UNL     1      -1.828  10.794  17.638  0.00  0.00    +0.000 A 
ATOM     18  C   UNL     1      -1.237   9.915  18.537  0.00  0.00    +0.000 A 
ATOM     19  C   UNL     1      -0.321  10.418  19.453  0.00  0.00    +0.000 A 
ATOM     20  C   UNL     1      -0.025  11.783  19.507  0.00  0.00    +0.000 A 
ATOM     21  C   UNL     1       0.957  12.080  20.594  0.00  0.00    +0.000 C 
ATOM     22  C   UNL     1       1.241  10.708  21.229  0.00  0.00    +0.000 C 
ATOM     23  C   UNL     1       0.471   9.623  20.445  0.00  0.00    +0.000 C 
ENDBRANCH  10  23
ENDBRANCH   1  11
BRANCH   5  24
ATOM     24  S   UNL     1       3.835   2.785  19.457  0.00  0.00    +0.000 S 
ATOM     25  O   UNL     1       3.260   2.005  18.383  0.00  0.00    +0.000 OA
ATOM     26  O   UNL     1       5.154   2.525  19.984  0.00  0.00    +0.000 OA
BRANCH  24  27
ATOM     27  N   UNL     1       2.798   2.659  20.767  0.00  0.00    +0.000 NA
ATOM     28  H   UNL     1       2.370   3.561  20.979  0.00  0.00    +0.000 HD
ATOM     29  H   UNL     1       2.142   1.890  20.641  0.00  0.00    +0.000 HD
ENDBRANCH  24  27
ENDBRANCH   5  24
TORSDOF 4
ENDMDL
MODEL 5
REMARK VINA RESULT:      -8.1      2.240      2.888
REMARK  Name = 
REMARK  5 active torsions:
REMARK  status: ('A' for Active; 'I' for Inactive)
REMARK    1  A    between atoms: C_1  and  C_2
REMARK    2  A    between atoms: C_10  and  N_11
REMARK    3  A    between atoms: C_12  and  C_14
REMARK    4  A    between atoms: C_18  and  S_19
REMARK    5  A    between atoms: S_19  and  N_20
REMARK                            x       y       z     vdW  Elec       q    Type
REMARK                         _______ _______ _______ _____ _____    ______ ____
ROOT
ATOM      1  C   UNL     1       1.476   9.290  18.723  0.00  0.00    +0.000 A 
ATOM      2  C   UNL     1       1.226  10.557  18.173  0.00  0.00    +0.000 A 
ATOM      3  C   UNL     1       0.567  11.511  18.941  0.00  0.00    +0.000 A 
ATOM      4  C   UNL     1       0.172  11.231  20.250  0.00  0.00    +0.000 A 
ATOM      5  C   UNL     1       0.420   9.975  20.798  0.00  0.00    +0.000 A 
ATOM      6  C   UNL     1       1.057   8.992  20.028  0.00  0.00    +0.000 A 
ATOM      7  C   UNL     1      -0.424  12.436  20.905  0.00  0.00    +0.000 C 
ATOM      8  C   UNL     1      -0.374  13.514  19.815  0.00  0.00    +0.000 C 
ATOM      9  C   UNL     1       0.253  12.914  18.548  0.00  0.00    +0.000 C 
ENDROOT
BRANCH   1  11
ATOM     10  N   UNL     1       2.357   7.037  18.450  0.00  0.00    +0.000 N 
ATOM     11  C   UNL     1       2.303   8.321  17.957  0.00  0.00    +0.000 C 
ATOM     12  O   UNL     1       2.897   8.689  16.950  0.00  0.00    +0.000 OA
ATOM     13  H   UNL     1       1.779   6.758  19.233  0.00  0.00    +0.000 HD
BRANCH  10  23
ATOM     14  C   UNL     1       4.470   1.975  20.346  0.00  0.00    +0.000 C 
ATOM     15  C   UNL     1       3.447   2.723  19.545  0.00  0.00    +0.000 A 
ATOM     16  C   UNL     1       2.188   2.154  19.296  0.00  0.00    +0.000 A 
ATOM     17  C   UNL     1       1.235   2.820  18.513  0.00  0.00    +0.000 A 
ATOM     18  C   UNL     1       1.511   4.075  17.981  0.00  0.00    +0.000 A 
ATOM     19  C   UNL     1       2.744   4.656  18.257  0.00  0.00    +0.000 A 
ATOM     20  C   UNL     1       3.708   3.985  19.014  0.00  0.00    +0.000 A 
ATOM     21  C   UNL     1       4.956   4.798  19.140  0.00  0.00    +0.000 C 
ATOM     22  C   UNL     1       4.649   6.082  18.350  0.00  0.00    +0.000 C 
ATOM     23  C   UNL     1       3.194   6.022  17.840  0.00  0.00    +0.000 C 
ENDBRANCH  10  23
ENDBRANCH   1  11
BRANCH   5  24
ATOM     24  S   UNL     1       0.087   9.639  22.498  0.00  0.00    +0.000 S 
ATOM     25  O   UNL     1      -0.255  10.872  23.170  0.00  0.00    +0.000 OA
ATOM     26  O   UNL     1      -0.727   8.450  22.598  0.00  0.00    +0.000 OA
BRANCH  24  27
ATOM     27  N   UNL     1       1.607   9.186  23.039  0.00  0.00    +0.000 NA
ATOM     28  H   UNL     1       2.087   9.976  23.471  0.00  0.00    +0.000 HD
ATOM     29  H   UNL     1       1.554   8.347  23.615  0.00  0.00    +0.000 HD
ENDBRANCH  24  27
ENDBRANCH   5  24
TORSDOF 4
ENDMDL
MODEL 6
REMARK VINA RESULT:      -7.7      3.017      4.237
REMARK  Name = 
REMARK  5 active torsions:
REMARK  status: ('A' for Active; 'I' for Inactive)
REMARK    1  A    between atoms: C_1  and  C_2
REMARK    2  A    between atoms: C_10  and  N_11
REMARK    3  A    between atoms: C_12  and  C_14
REMARK    4  A    between atoms: C_18  and  S_19
REMARK    5  A    between atoms: S_19  and  N_20
REMARK                            x       y       z     vdW  Elec       q    Type
REMARK                         _______ _______ _______ _____ _____    ______ ____
ROOT
ATOM      1  C   UNL     1       1.725   7.564  20.031  0.00  0.00    +0.000 A 
ATOM      2  C   UNL     1       1.943   8.458  18.972  0.00  0.00    +0.000 A 
ATOM      3  C   UNL     1       1.546   9.784  19.112  0.00  0.00    +0.000 A 
ATOM      4  C   UNL     1       0.955  10.235  20.292  0.00  0.00    +0.000 A 
ATOM      5  C   UNL     1       0.737   9.349  21.345  0.00  0.00    +0.000 A 
ATOM      6  C   UNL     1       1.105   8.004  21.210  0.00  0.00    +0.000 A 
ATOM      7  C   UNL     1       0.707  11.709  20.245  0.00  0.00    +0.000 C 
ATOM      8  C   UNL     1       1.203  12.125  18.854  0.00  0.00    +0.000 C 
ATOM      9  C   UNL     1       1.731  10.883  18.121  0.00  0.00    +0.000 C 
ENDROOT
BRANCH   1  11
ATOM     10  N   UNL     1       3.253   5.981  18.989  0.00  0.00    +0.000 N 
ATOM     11  C   UNL     1       2.276   6.186  19.937  0.00  0.00    +0.000 C 
ATOM     12  O   UNL     1       1.850   5.307  20.676  0.00  0.00    +0.000 OA
ATOM     13  H   UNL     1       3.636   6.756  18.463  0.00  0.00    +0.000 HD
BRANCH  10  23
ATOM     14  C   UNL     1       6.306   3.722  14.599  0.00  0.00    +0.000 C 
ATOM     15  C   UNL     1       6.277   4.309  15.978  0.00  0.00    +0.000 A 
ATOM     16  C   UNL     1       7.415   4.941  16.503  0.00  0.00    +0.000 A 
ATOM     17  C   UNL     1       7.421   5.457  17.807  0.00  0.00    +0.000 A 
ATOM     18  C   UNL     1       6.285   5.373  18.603  0.00  0.00    +0.000 A 
ATOM     19  C   UNL     1       5.145   4.781  18.073  0.00  0.00    +0.000 A 
ATOM     20  C   UNL     1       5.142   4.240  16.785  0.00  0.00    +0.000 A 
ATOM     21  C   UNL     1       3.816   3.630  16.458  0.00  0.00    +0.000 C 
ATOM     22  C   UNL     1       2.976   3.857  17.727  0.00  0.00    +0.000 C 
ATOM     23  C   UNL     1       3.810   4.665  18.744  0.00  0.00    +0.000 C 
ENDBRANCH  10  23
ENDBRANCH   1  11
BRANCH   5  24
ATOM     24  S   UNL     1       0.148   9.916  22.908  0.00  0.00    +0.000 S 
ATOM     25  O   UNL     1       1.105   9.565  23.934  0.00  0.00    +0.000 OA
ATOM     26  O   UNL     1      -0.378  11.253  22.764  0.00  0.00    +0.000 OA
BRANCH  24  27
ATOM     27  N   UNL     1      -1.190   8.931  23.124  0.00  0.00    +0.000 NA
ATOM     28  H   UNL     1      -1.429   8.450  22.256  0.00  0.00    +0.000 HD
ATOM     29  H   UNL     1      -1.070   8.326  23.935  0.00  0.00    +0.000 HD
ENDBRANCH  24  27
ENDBRANCH   5  24
TORSDOF 4
ENDMDL
MODEL 7
REMARK VINA RESULT:      -7.6      3.052      8.075
REMARK  Name = 
REMARK  5 active torsions:
REMARK  status: ('A' for Active; 'I' for Inactive)
REMARK    1  A    between atoms: C_1  and  C_2
REMARK    2  A    between atoms: C_10  and  N_11
REMARK    3  A    between atoms: C_12  and  C_14
REMARK    4  A    between atoms: C_18  and  S_19
REMARK    5  A    between atoms: S_19  and  N_20
REMARK                            x       y       z     vdW  Elec       q    Type
REMARK                         _______ _______ _______ _____ _____    ______ ____
ROOT
ATOM      1  C   UNL     1       2.263   7.984  18.301  0.00  0.00    +0.000 A 
ATOM      2  C   UNL     1       1.769   7.257  19.395  0.00  0.00    +0.000 A 
ATOM      3  C   UNL     1       2.315   6.011  19.683  0.00  0.00    +0.000 A 
ATOM      4  C   UNL     1       3.355   5.489  18.913  0.00  0.00    +0.000 A 
ATOM      5  C   UNL     1       3.848   6.208  17.828  0.00  0.00    +0.000 A 
ATOM      6  C   UNL     1       3.289   7.453  17.506  0.00  0.00    +0.000 A 
ATOM      7  C   UNL     1       3.842   4.189  19.471  0.00  0.00    +0.000 C 
ATOM      8  C   UNL     1       2.944   3.949  20.692  0.00  0.00    +0.000 C 
ATOM      9  C   UNL     1       1.954   5.117  20.819  0.00  0.00    +0.000 C 
ENDROOT
BRANCH   1  11
ATOM     10  N   UNL     1       0.494   9.646  18.488  0.00  0.00    +0.000 N 
ATOM     11  C   UNL     1       1.779   9.373  18.080  0.00  0.00    +0.000 C 
ATOM     12  O   UNL     1       2.515  10.197  17.551  0.00  0.00    +0.000 OA
ATOM     13  H   UNL     1      -0.045   8.958  19.000  0.00  0.00    +0.000 HD
BRANCH  10  23
ATOM     14  C   UNL     1      -3.513  12.713  21.357  0.00  0.00    +0.000 C 
ATOM     15  C   UNL     1      -2.070  12.468  21.030  0.00  0.00    +0.000 A 
ATOM     16  C   UNL     1      -1.065  12.859  21.928  0.00  0.00    +0.000 A 
ATOM     17  C   UNL     1       0.291  12.677  21.620  0.00  0.00    +0.000 A 
ATOM     18  C   UNL     1       0.669  12.083  20.422  0.00  0.00    +0.000 A 
ATOM     19  C   UNL     1      -0.326  11.661  19.547  0.00  0.00    +0.000 A 
ATOM     20  C   UNL     1      -1.678  11.864  19.836  0.00  0.00    +0.000 A 
ATOM     21  C   UNL     1      -2.548  11.360  18.730  0.00  0.00    +0.000 C 
ATOM     22  C   UNL     1      -1.555  10.808  17.693  0.00  0.00    +0.000 C 
ATOM     23  C   UNL     1      -0.122  10.937  18.252  0.00  0.00    +0.000 C 
ENDBRANCH  10  23
ENDBRANCH   1  11
BRANCH   5  24
ATOM     24  S   UNL     1       5.268   5.659  16.937  0.00  0.00    +0.000 S 
ATOM     25  O   UNL     1       6.448   5.864  17.746  0.00  0.00    +0.000 OA
ATOM     26  O   UNL     1       4.974   4.396  16.301  0.00  0.00    +0.000 OA
BRANCH  24  27
ATOM     27  N   UNL     1       5.322   6.782  15.694  0.00  0.00    +0.000 NA
ATOM     28  H   UNL     1       4.669   7.546  15.867  0.00  0.00    +0.000 HD
ATOM     29  H   UNL     1       6.281   7.068  15.502  0.00  0.00    +0.000 HD
ENDBRANCH  24  27
ENDBRANCH   5  24
TORSDOF 4
ENDMDL
MODEL 8
REMARK VINA RESULT:      -7.6      2.146      3.152
REMARK  Name = 
REMARK  5 active torsions:
REMARK  status: ('A' for Active; 'I' for Inactive)
REMARK    1  A    between atoms: C_1  and  C_2
REMARK    2  A    between atoms: C_10  and  N_11
REMARK    3  A    between atoms: C_12  and  C_14
REMARK    4  A    between atoms: C_18  and  S_19
REMARK    5  A    between atoms: S_19  and  N_20
REMARK                            x       y       z     vdW  Elec       q    Type
REMARK                         _______ _______ _______ _____ _____    ______ ____
ROOT
ATOM      1  C   UNL     1       0.856   9.784  19.734  0.00  0.00    +0.000 A 
ATOM      2  C   UNL     1       1.522  11.008  19.894  0.00  0.00    +0.000 A 
ATOM      3  C   UNL     1       0.948  12.165  19.378  0.00  0.00    +0.000 A 
ATOM      4  C   UNL     1      -0.284  12.124  18.725  0.00  0.00    +0.000 A 
ATOM      5  C   UNL     1      -0.948  10.910  18.566  0.00  0.00    +0.000 A 
ATOM      6  C   UNL     1      -0.370   9.731  19.054  0.00  0.00    +0.000 A 
ATOM      7  C   UNL     1      -0.744  13.496  18.349  0.00  0.00    +0.000 C 
ATOM      8  C   UNL     1       0.387  14.413  18.835  0.00  0.00    +0.000 C 
ATOM      9  C   UNL     1       1.480  13.553  19.486  0.00  0.00    +0.000 C 
ENDROOT
BRANCH   1  11
ATOM     10  N   UNL     1       2.062   7.672  19.606  0.00  0.00    +0.000 N 
ATOM     11  C   UNL     1       1.398   8.573  20.407  0.00  0.00    +0.000 C 
ATOM     12  O   UNL     1       1.232   8.420  21.612  0.00  0.00    +0.000 OA
ATOM     13  H   UNL     1       2.251   7.884  18.634  0.00  0.00    +0.000 HD
BRANCH  10  23
ATOM     14  C   UNL     1       2.352   2.304  17.419  0.00  0.00    +0.000 C 
ATOM     15  C   UNL     1       3.031   3.603  17.735  0.00  0.00    +0.000 A 
ATOM     16  C   UNL     1       4.158   4.009  17.005  0.00  0.00    +0.000 A 
ATOM     17  C   UNL     1       4.831   5.199  17.314  0.00  0.00    +0.000 A 
ATOM     18  C   UNL     1       4.380   6.017  18.343  0.00  0.00    +0.000 A 
ATOM     19  C   UNL     1       3.242   5.636  19.044  0.00  0.00    +0.000 A 
ATOM     20  C   UNL     1       2.583   4.437  18.758  0.00  0.00    +0.000 A 
ATOM     21  C   UNL     1       1.414   4.234  19.668  0.00  0.00    +0.000 C 
ATOM     22  C   UNL     1       1.426   5.474  20.577  0.00  0.00    +0.000 C 
ATOM     23  C   UNL     1       2.563   6.416  20.127  0.00  0.00    +0.000 C 
ENDBRANCH  10  23
ENDBRANCH   1  11
BRANCH   5  24
ATOM     24  S   UNL     1      -2.579  10.842  17.897  0.00  0.00    +0.000 S 
ATOM     25  O   UNL     1      -2.970   9.460  17.732  0.00  0.00    +0.000 OA
ATOM     26  O   UNL     1      -3.413  11.808  18.573  0.00  0.00    +0.000 OA
BRANCH  24  27
ATOM     27  N   UNL     1      -2.325  11.469  16.364  0.00  0.00    +0.000 NA
ATOM     28  H   UNL     1      -3.208  11.580  15.866  0.00  0.00    +0.000 HD
ATOM     29  H   UNL     1      -1.744  12.305  16.404  0.00  0.00    +0.000 HD
ENDBRANCH  24  27
ENDBRANCH   5  24
TORSDOF 4
ENDMDL
MODEL 9
REMARK VINA RESULT:      -7.6      2.023      3.078
REMARK  Name = 
REMARK  5 active torsions:
REMARK  status: ('A' for Active; 'I' for Inactive)
REMARK    1  A    between atoms: C_1  and  C_2
REMARK    2  A    between atoms: C_10  and  N_11
REMARK    3  A    between atoms: C_12  and  C_14
REMARK    4  A    between atoms: C_18  and  S_19
REMARK    5  A    between atoms: S_19  and  N_20
REMARK                            x       y       z     vdW  Elec       q    Type
REMARK                         _______ _______ _______ _____ _____    ______ ____
ROOT
ATOM      1  C   UNL     1       0.290   9.893  20.806  0.00  0.00    +0.000 A 
ATOM      2  C   UNL     1      -0.082  10.833  21.780  0.00  0.00    +0.000 A 
ATOM      3  C   UNL     1      -1.041  11.790  21.466  0.00  0.00    +0.000 A 
ATOM      4  C   UNL     1      -1.647  11.813  20.210  0.00  0.00    +0.000 A 
ATOM      5  C   UNL     1      -1.281  10.882  19.242  0.00  0.00    +0.000 A 
ATOM      6  C   UNL     1      -0.295   9.928  19.532  0.00  0.00    +0.000 A 
ATOM      7  C   UNL     1      -2.712  12.862  20.141  0.00  0.00    +0.000 C 
ATOM      8  C   UNL     1      -2.676  13.518  21.528  0.00  0.00    +0.000 C 
ATOM      9  C   UNL     1      -1.593  12.835  22.375  0.00  0.00    +0.000 C 
ENDROOT
BRANCH   1  11
ATOM     10  N   UNL     1       1.478   7.853  20.209  0.00  0.00    +0.000 N 
ATOM     11  C   UNL     1       1.208   8.786  21.185  0.00  0.00    +0.000 C 
ATOM     12  O   UNL     1       1.670   8.738  22.318  0.00  0.00    +0.000 OA
ATOM     13  H   UNL     1       1.144   7.982  19.262  0.00  0.00    +0.000 HD
BRANCH  10  23
ATOM     14  C   UNL     1       2.563   3.002  17.214  0.00  0.00    +0.000 C 
ATOM     15  C   UNL     1       2.998   4.368  17.652  0.00  0.00    +0.000 A 
ATOM     16  C   UNL     1       3.912   5.102  16.879  0.00  0.00    +0.000 A 
ATOM     17  C   UNL     1       4.363   6.363  17.295  0.00  0.00    +0.000 A 
ATOM     18  C   UNL     1       3.896   6.924  18.477  0.00  0.00    +0.000 A 
ATOM     19  C   UNL     1       2.963   6.215  19.226  0.00  0.00    +0.000 A 
ATOM     20  C   UNL     1       2.530   4.947  18.831  0.00  0.00    +0.000 A 
ATOM     21  C   UNL     1       1.560   4.377  19.814  0.00  0.00    +0.000 C 
ATOM     22  C   UNL     1       1.439   5.465  20.896  0.00  0.00    +0.000 C 
ATOM     23  C   UNL     1       2.290   6.683  20.479  0.00  0.00    +0.000 C 
ENDBRANCH  10  23
ENDBRANCH   1  11
BRANCH   5  24
ATOM     24  S   UNL     1      -2.140  10.774  17.705  0.00  0.00    +0.000 S 
ATOM     25  O   UNL     1      -1.593   9.685  16.928  0.00  0.00    +0.000 OA
ATOM     26  O   UNL     1      -3.557  10.924  17.940  0.00  0.00    +0.000 OA
BRANCH  24  27
ATOM     27  N   UNL     1      -1.658  12.199  16.966  0.00  0.00    +0.000 NA
ATOM     28  H   UNL     1      -2.092  13.005  17.416  0.00  0.00    +0.000 HD
ATOM     29  H   UNL     1      -0.643  12.243  16.887  0.00  0.00    +0.000 HD
ENDBRANCH  24  27
ENDBRANCH   5  24
TORSDOF 4
ENDMDL
