MODEL 1
REMARK VINA RESULT:      -9.6      0.000      0.000
REMARK  Name = 
REMARK  4 active torsions:
REMARK  status: ('A' for Active; 'I' for Inactive)
REMARK    1  A    between atoms: C_2  and  C_10
REMARK    2  A    between atoms: C_10  and  C_11
REMARK    3  A    between atoms: C_10  and  N_18
REMARK    4  A    between atoms: C_11  and  C_12
REMARK                            x       y       z     vdW  Elec       q    Type
REMARK                         _______ _______ _______ _____ _____    ______ ____
ROOT
ATOM      1  C   UNL     1       4.308   4.603  17.721  0.00  0.00    +0.000 C 
ENDROOT
BRANCH   1   3
ATOM      2  O   UNL     1       6.040   5.939  16.571  0.00  0.00    +0.000 OA
ATOM      3  C   UNL     1       5.329   4.934  16.517  0.00  0.00    +0.000 C 
ATOM      4  N   UNL     1       5.257   4.185  15.359  0.00  0.00    +0.000 N 
ATOM      5  C   UNL     1       6.081   4.351  14.226  0.00  0.00    +0.000 A 
ATOM      6  C   UNL     1       5.824   3.547  13.118  0.00  0.00    +0.000 A 
ATOM      7  C   UNL     1       6.625   3.676  11.978  0.00  0.00    +0.000 A 
ATOM      8  C   UNL     1       7.656   4.605  11.973  0.00  0.00    +0.000 A 
ATOM      9  C   UNL     1       7.843   5.362  13.111  0.00  0.00    +0.000 A 
ATOM     10  N   UNL     1       7.087   5.244  14.224  0.00  0.00    +0.000 NA
ATOM     11  H   UNL     1       4.530   3.503  15.245  0.00  0.00    +0.000 HD
ENDBRANCH   1   3
BRANCH   1  12
ATOM     12  N   UNL     1       4.182   3.125  18.078  0.00  0.00    +0.000 N 
ATOM     13  C   UNL     1       2.971   2.410  17.666  0.00  0.00    +0.000 C 
ATOM     14  C   UNL     1       2.171   2.431  18.927  0.00  0.00    +0.000 A 
ATOM     15  C   UNL     1       0.821   2.640  19.131  0.00  0.00    +0.000 A 
ATOM     16  C   UNL     1       0.393   2.937  20.432  0.00  0.00    +0.000 A 
ATOM     17  C   UNL     1       1.296   2.959  21.513  0.00  0.00    +0.000 A 
ATOM     18  C   UNL     1       2.653   2.730  21.301  0.00  0.00    +0.000 A 
ATOM     19  C   UNL     1       3.052   2.507  20.000  0.00  0.00    +0.000 A 
ATOM     20  C   UNL     1       4.375   2.786  19.441  0.00  0.00    +0.000 C 
ATOM     21  O   UNL     1       5.393   2.877  20.105  0.00  0.00    +0.000 OA
ENDBRANCH   1  12
BRANCH   1  22
ATOM     22  C   UNL     1       2.886   5.221  17.585  0.00  0.00    +0.000 C 
BRANCH  22  23
ATOM     23  C   UNL     1       2.531   6.376  18.486  0.00  0.00    +0.000 A 
ATOM     24  C   UNL     1       2.274   6.128  19.846  0.00  0.00    +0.000 A 
ATOM     25  C   UNL     1       1.790   7.141  20.661  0.00  0.00    +0.000 A 
ATOM     26  C   UNL     1       1.585   8.415  20.136  0.00  0.00    +0.000 A 
ATOM     27  C   UNL     1       1.891   8.681  18.801  0.00  0.00    +0.000 A 
ATOM     28  C   UNL     1       2.378   7.668  17.976  0.00  0.00    +0.000 A 
ENDBRANCH  22  23
ENDBRANCH   1  22
TORSDOF 4
ENDMDL
MODEL 2
REMARK VINA RESULT:      -8.9      3.061      7.098
REMARK  Name = 
REMARK  4 active torsions:
REMARK  status: ('A' for Active; 'I' for Inactive)
REMARK    1  A    between atoms: C_2  and  C_10
REMARK    2  A    between atoms: C_10  and  C_11
REMARK    3  A    between atoms: C_10  and  N_18
REMARK    4  A    between atoms: C_11  and  C_12
REMARK                            x       y       z     vdW  Elec       q    Type
REMARK                         _______ _______ _______ _____ _____    ______ ____
ROOT
ATOM      1  C   UNL     1       2.555   6.226  18.988  0.00  0.00    +0.000 C 
ENDROOT
BRANCH   1   3
ATOM      2  O   UNL     1       2.260   8.664  18.720  0.00  0.00    +0.000 OA
ATOM      3  C   UNL     1       1.980   7.675  19.399  0.00  0.00    +0.000 C 
ATOM      4  N   UNL     1       1.333   7.815  20.611  0.00  0.00    +0.000 N 
ATOM      5  C   UNL     1       0.773   9.012  21.105  0.00  0.00    +0.000 A 
ATOM      6  C   UNL     1       0.214   8.984  22.381  0.00  0.00    +0.000 A 
ATOM      7  C   UNL     1      -0.358  10.149  22.903  0.00  0.00    +0.000 A 
ATOM      8  C   UNL     1      -0.353  11.309  22.142  0.00  0.00    +0.000 A 
ATOM      9  C   UNL     1       0.222  11.252  20.888  0.00  0.00    +0.000 A 
ATOM     10  N   UNL     1       0.768  10.134  20.364  0.00  0.00    +0.000 NA
ATOM     11  H   UNL     1       1.295   7.045  21.253  0.00  0.00    +0.000 HD
ENDBRANCH   1   3
BRANCH   1  12
ATOM     12  N   UNL     1       1.664   5.044  19.357  0.00  0.00    +0.000 N 
ATOM     13  C   UNL     1       1.972   4.295  20.579  0.00  0.00    +0.000 C 
ATOM     14  C   UNL     1       2.714   3.122  20.027  0.00  0.00    +0.000 A 
ATOM     15  C   UNL     1       3.841   2.473  20.493  0.00  0.00    +0.000 A 
ATOM     16  C   UNL     1       4.517   1.619  19.611  0.00  0.00    +0.000 A 
ATOM     17  C   UNL     1       4.033   1.376  18.311  0.00  0.00    +0.000 A 
ATOM     18  C   UNL     1       2.886   2.022  17.855  0.00  0.00    +0.000 A 
ATOM     19  C   UNL     1       2.281   2.906  18.724  0.00  0.00    +0.000 A 
ATOM     20  C   UNL     1       1.467   4.063  18.353  0.00  0.00    +0.000 C 
ATOM     21  O   UNL     1       0.895   4.182  17.283  0.00  0.00    +0.000 OA
ENDBRANCH   1  12
BRANCH   1  22
ATOM     22  C   UNL     1       4.014   5.930  19.442  0.00  0.00    +0.000 C 
BRANCH  22  23
ATOM     23  C   UNL     1       5.004   5.495  18.393  0.00  0.00    +0.000 A 
ATOM     24  C   UNL     1       4.570   5.348  17.063  0.00  0.00    +0.000 A 
ATOM     25  C   UNL     1       5.415   4.796  16.110  0.00  0.00    +0.000 A 
ATOM     26  C   UNL     1       6.706   4.414  16.466  0.00  0.00    +0.000 A 
ATOM     27  C   UNL     1       7.161   4.609  17.770  0.00  0.00    +0.000 A 
ATOM     28  C   UNL     1       6.318   5.162  18.734  0.00  0.00    +0.000 A 
ENDBRANCH  22  23
ENDBRANCH   1  22
TORSDOF 4
ENDMDL
MODEL 3
REMARK VINA RESULT:      -8.8      2.997      6.731
REMARK  Name = 
REMARK  4 active torsions:
REMARK  status: ('A' for Active; 'I' for Inactive)
REMARK    1  A    between atoms: C_2  and  C_10
REMARK    2  A    between atoms: C_10  and  C_11
REMARK    3  A    between atoms: C_10  and  N_18
REMARK    4  A    between atoms: C_11  and  C_12
REMARK                            x       y       z     vdW  Elec       q    Type
REMARK                         _______ _______ _______ _____ _____    ______ ____
ROOT
ATOM      1  C   UNL     1       2.748   6.423  18.283  0.00  0.00    +0.000 C 
ENDROOT
BRANCH   1   3
ATOM      2  O   UNL     1       2.494   8.719  17.405  0.00  0.00    +0.000 OA
ATOM      3  C   UNL     1       2.219   7.946  18.325  0.00  0.00    +0.000 C 
ATOM      4  N   UNL     1       1.622   8.413  19.480  0.00  0.00    +0.000 N 
ATOM      5  C   UNL     1       1.107   9.714  19.666  0.00  0.00    +0.000 A 
ATOM      6  C   UNL     1       0.598  10.031  20.922  0.00  0.00    +0.000 A 
ATOM      7  C   UNL     1       0.071  11.308  21.144  0.00  0.00    +0.000 A 
ATOM      8  C   UNL     1       0.072  12.233  20.110  0.00  0.00    +0.000 A 
ATOM      9  C   UNL     1       0.596  11.838  18.896  0.00  0.00    +0.000 A 
ATOM     10  N   UNL     1       1.098  10.607  18.661  0.00  0.00    +0.000 NA
ATOM     11  H   UNL     1       1.593   7.835  20.299  0.00  0.00    +0.000 HD
ENDBRANCH   1   3
BRANCH   1  12
ATOM     12  N   UNL     1       1.814   5.395  18.914  0.00  0.00    +0.000 N 
ATOM     13  C   UNL     1       2.179   4.828  20.215  0.00  0.00    +0.000 C 
ATOM     14  C   UNL     1       2.785   3.525  19.811  0.00  0.00    +0.000 A 
ATOM     15  C   UNL     1       3.903   2.868  20.289  0.00  0.00    +0.000 A 
ATOM     16  C   UNL     1       4.435   1.830  19.512  0.00  0.00    +0.000 A 
ATOM     17  C   UNL     1       3.819   1.423  18.313  0.00  0.00    +0.000 A 
ATOM     18  C   UNL     1       2.682   2.080  17.847  0.00  0.00    +0.000 A 
ATOM     19  C   UNL     1       2.222   3.139  18.601  0.00  0.00    +0.000 A 
ATOM     20  C   UNL     1       1.459   4.285  18.106  0.00  0.00    +0.000 C 
ATOM     21  O   UNL     1       0.802   4.278  17.079  0.00  0.00    +0.000 OA
ENDBRANCH   1  12
BRANCH   1  22
ATOM     22  C   UNL     1       4.193   6.200  18.817  0.00  0.00    +0.000 C 
BRANCH  22  23
ATOM     23  C   UNL     1       5.158   5.445  17.940  0.00  0.00    +0.000 A 
ATOM     24  C   UNL     1       6.470   5.226  18.398  0.00  0.00    +0.000 A 
ATOM     25  C   UNL     1       7.422   4.678  17.550  0.00  0.00    +0.000 A 
ATOM     26  C   UNL     1       7.070   4.318  16.252  0.00  0.00    +0.000 A 
ATOM     27  C   UNL     1       5.756   4.481  15.811  0.00  0.00    +0.000 A 
ATOM     28  C   UNL     1       4.794   5.031  16.656  0.00  0.00    +0.000 A 
ENDBRANCH  22  23
ENDBRANCH   1  22
TORSDOF 4
ENDMDL
MODEL 4
REMARK VINA RESULT:      -8.3      3.126      6.741
REMARK  Name = 
REMARK  4 active torsions:
REMARK  status: ('A' for Active; 'I' for Inactive)
REMARK    1  A    between atoms: C_2  and  C_10
REMARK    2  A    between atoms: C_10  and  C_11
REMARK    3  A    between atoms: C_10  and  N_18
REMARK    4  A    between atoms: C_11  and  C_12
REMARK                            x       y       z     vdW  Elec       q    Type
REMARK                         _______ _______ _______ _____ _____    ______ ____
ROOT
ATOM      1  C   UNL     1       2.438   6.199  19.235  0.00  0.00    +0.000 C 
ENDROOT
BRANCH   1   3
ATOM      2  O   UNL     1       1.512   7.592  21.053  0.00  0.00    +0.000 OA
ATOM      3  C   UNL     1       1.879   7.568  19.876  0.00  0.00    +0.000 C 
ATOM      4  N   UNL     1       1.646   8.647  19.046  0.00  0.00    +0.000 N 
ATOM      5  C   UNL     1       1.164   9.907  19.458  0.00  0.00    +0.000 A 
ATOM      6  C   UNL     1       0.926  10.861  18.471  0.00  0.00    +0.000 A 
ATOM      7  C   UNL     1       0.456  12.125  18.840  0.00  0.00    +0.000 A 
ATOM      8  C   UNL     1       0.231  12.402  20.182  0.00  0.00    +0.000 A 
ATOM      9  C   UNL     1       0.492  11.402  21.096  0.00  0.00    +0.000 A 
ATOM     10  N   UNL     1       0.957  10.180  20.758  0.00  0.00    +0.000 NA
ATOM     11  H   UNL     1       1.750   8.548  18.053  0.00  0.00    +0.000 HD
ENDBRANCH   1   3
BRANCH   1  12
ATOM     12  N   UNL     1       1.555   4.973  19.448  0.00  0.00    +0.000 N 
ATOM     13  C   UNL     1       1.798   4.137  20.627  0.00  0.00    +0.000 C 
ATOM     14  C   UNL     1       2.608   3.027  20.041  0.00  0.00    +0.000 A 
ATOM     15  C   UNL     1       3.717   2.368  20.534  0.00  0.00    +0.000 A 
ATOM     16  C   UNL     1       4.475   1.601  19.639  0.00  0.00    +0.000 A 
ATOM     17  C   UNL     1       4.088   1.450  18.293  0.00  0.00    +0.000 A 
ATOM     18  C   UNL     1       2.958   2.105  17.808  0.00  0.00    +0.000 A 
ATOM     19  C   UNL     1       2.272   2.905  18.698  0.00  0.00    +0.000 A 
ATOM     20  C   UNL     1       1.454   4.070  18.360  0.00  0.00    +0.000 C 
ATOM     21  O   UNL     1       0.955   4.261  17.265  0.00  0.00    +0.000 OA
ENDBRANCH   1  12
BRANCH   1  22
ATOM     22  C   UNL     1       3.909   5.841  19.596  0.00  0.00    +0.000 C 
BRANCH  22  23
ATOM     23  C   UNL     1       4.845   5.487  18.469  0.00  0.00    +0.000 A 
ATOM     24  C   UNL     1       4.386   5.585  17.143  0.00  0.00    +0.000 A 
ATOM     25  C   UNL     1       5.167   5.115  16.097  0.00  0.00    +0.000 A 
ATOM     26  C   UNL     1       6.422   4.571  16.360  0.00  0.00    +0.000 A 
ATOM     27  C   UNL     1       6.906   4.522  17.667  0.00  0.00    +0.000 A 
ATOM     28  C   UNL     1       6.127   4.992  18.723  0.00  0.00    +0.000 A 
ENDBRANCH  22  23
ENDBRANCH   1  22
TORSDOF 4
ENDMDL
MODEL 5
REMARK VINA RESULT:      -8.1      2.848      7.393
REMARK  Name = 
REMARK  4 active torsions:
REMARK  status: ('A' for Active; 'I' for Inactive)
REMARK    1  A    between atoms: C_2  and  C_10
REMARK    2  A    between atoms: C_10  and  C_11
REMARK    3  A    between atoms: C_10  and  N_18
REMARK    4  A    between atoms: C_11  and  C_12
REMARK                            x       y       z     vdW  Elec       q    Type
REMARK                         _______ _______ _______ _____ _____    ______ ____
ROOT
ATOM      1  C   UNL     1       3.190   6.524  18.762  0.00  0.00    +0.000 C 
ENDROOT
BRANCH   1   3
ATOM      2  O   UNL     1       2.039   8.677  18.379  0.00  0.00    +0.000 OA
ATOM      3  C   UNL     1       2.246   7.763  19.180  0.00  0.00    +0.000 C 
ATOM      4  N   UNL     1       1.834   7.873  20.494  0.00  0.00    +0.000 N 
ATOM      5  C   UNL     1       1.007   8.894  21.008  0.00  0.00    +0.000 A 
ATOM      6  C   UNL     1       0.745   8.884  22.376  0.00  0.00    +0.000 A 
ATOM      7  C   UNL     1      -0.078   9.874  22.923  0.00  0.00    +0.000 A 
ATOM      8  C   UNL     1      -0.612  10.850  22.092  0.00  0.00    +0.000 A 
ATOM      9  C   UNL     1      -0.302  10.788  20.749  0.00  0.00    +0.000 A 
ATOM     10  N   UNL     1       0.480   9.833  20.202  0.00  0.00    +0.000 NA
ATOM     11  H   UNL     1       2.183   7.236  21.185  0.00  0.00    +0.000 HD
ENDBRANCH   1   3
BRANCH   1  12
ATOM     12  N   UNL     1       4.633   6.890  18.429  0.00  0.00    +0.000 N 
ATOM     13  C   UNL     1       4.919   7.463  17.110  0.00  0.00    +0.000 C 
ATOM     14  C   UNL     1       5.412   6.264  16.368  0.00  0.00    +0.000 A 
ATOM     15  C   UNL     1       5.171   5.849  15.072  0.00  0.00    +0.000 A 
ATOM     16  C   UNL     1       5.486   4.525  14.739  0.00  0.00    +0.000 A 
ATOM     17  C   UNL     1       6.087   3.658  15.672  0.00  0.00    +0.000 A 
ATOM     18  C   UNL     1       6.341   4.090  16.972  0.00  0.00    +0.000 A 
ATOM     19  C   UNL     1       5.959   5.377  17.287  0.00  0.00    +0.000 A 
ATOM     20  C   UNL     1       5.602   5.872  18.616  0.00  0.00    +0.000 C 
ATOM     21  O   UNL     1       5.957   5.350  19.659  0.00  0.00    +0.000 OA
ENDBRANCH   1  12
BRANCH   1  22
ATOM     22  C   UNL     1       2.624   5.597  17.647  0.00  0.00    +0.000 C 
BRANCH  22  23
ATOM     23  C   UNL     1       2.243   4.190  18.028  0.00  0.00    +0.000 A 
ATOM     24  C   UNL     1       1.330   3.990  19.080  0.00  0.00    +0.000 A 
ATOM     25  C   UNL     1       1.085   2.710  19.557  0.00  0.00    +0.000 A 
ATOM     26  C   UNL     1       1.723   1.619  18.973  0.00  0.00    +0.000 A 
ATOM     27  C   UNL     1       2.586   1.805  17.893  0.00  0.00    +0.000 A 
ATOM     28  C   UNL     1       2.838   3.088  17.409  0.00  0.00    +0.000 A 
ENDBRANCH  22  23
ENDBRANCH   1  22
TORSDOF 4
ENDMDL
MODEL 6
REMARK VINA RESULT:      -8.1      2.746      5.369
REMARK  Name = 
REMARK  4 active torsions:
REMARK  status: ('A' for Active; 'I' for Inactive)
REMARK    1  A    between atoms: C_2  and  C_10
REMARK    2  A    between atoms: C_10  and  C_11
REMARK    3  A    between atoms: C_10  and  N_18
REMARK    4  A    between atoms: C_11  and  C_12
REMARK                            x       y       z     vdW  Elec       q    Type
REMARK                         _______ _______ _______ _____ _____    ______ ____
ROOT
ATOM      1  C   UNL     1       4.655   4.454  17.902  0.00  0.00    +0.000 C 
ENDROOT
BRANCH   1   3
ATOM      2  O   UNL     1       3.508   5.339  19.904  0.00  0.00    +0.000 OA
ATOM      3  C   UNL     1       3.769   5.529  18.715  0.00  0.00    +0.000 C 
ATOM      4  N   UNL     1       3.163   6.555  18.017  0.00  0.00    +0.000 N 
ATOM      5  C   UNL     1       2.366   7.571  18.587  0.00  0.00    +0.000 A 
ATOM      6  C   UNL     1       1.778   8.491  17.721  0.00  0.00    +0.000 A 
ATOM      7  C   UNL     1       0.987   9.517  18.247  0.00  0.00    +0.000 A 
ATOM      8  C   UNL     1       0.800   9.595  19.621  0.00  0.00    +0.000 A 
ATOM      9  C   UNL     1       1.417   8.644  20.408  0.00  0.00    +0.000 A 
ATOM     10  N   UNL     1       2.193   7.654  19.918  0.00  0.00    +0.000 NA
ATOM     11  H   UNL     1       3.211   6.580  17.016  0.00  0.00    +0.000 HD
ENDBRANCH   1   3
BRANCH   1  12
ATOM     12  N   UNL     1       4.186   3.006  18.019  0.00  0.00    +0.000 N 
ATOM     13  C   UNL     1       2.863   2.658  17.495  0.00  0.00    +0.000 C 
ATOM     14  C   UNL     1       2.040   2.666  18.741  0.00  0.00    +0.000 A 
ATOM     15  C   UNL     1       0.764   3.143  18.972  0.00  0.00    +0.000 A 
ATOM     16  C   UNL     1       0.363   3.325  20.302  0.00  0.00    +0.000 A 
ATOM     17  C   UNL     1       1.204   2.974  21.375  0.00  0.00    +0.000 A 
ATOM     18  C   UNL     1       2.484   2.478  21.134  0.00  0.00    +0.000 A 
ATOM     19  C   UNL     1       2.872   2.373  19.815  0.00  0.00    +0.000 A 
ATOM     20  C   UNL     1       4.245   2.426  19.312  0.00  0.00    +0.000 C 
ATOM     21  O   UNL     1       5.231   2.180  19.985  0.00  0.00    +0.000 OA
ENDBRANCH   1  12
BRANCH   1  22
ATOM     22  C   UNL     1       6.189   4.519  18.156  0.00  0.00    +0.000 C 
BRANCH  22  23
ATOM     23  C   UNL     1       6.840   5.878  18.190  0.00  0.00    +0.000 A 
ATOM     24  C   UNL     1       6.485   6.830  17.217  0.00  0.00    +0.000 A 
ATOM     25  C   UNL     1       7.181   8.027  17.126  0.00  0.00    +0.000 A 
ATOM     26  C   UNL     1       8.215   8.297  18.018  0.00  0.00    +0.000 A 
ATOM     27  C   UNL     1       8.535   7.381  19.020  0.00  0.00    +0.000 A 
ATOM     28  C   UNL     1       7.841   6.176  19.118  0.00  0.00    +0.000 A 
ENDBRANCH  22  23
ENDBRANCH   1  22
TORSDOF 4
ENDMDL
MODEL 7
REMARK VINA RESULT:      -8.1      2.972      6.044
REMARK  Name = 
REMARK  4 active torsions:
REMARK  status: ('A' for Active; 'I' for Inactive)
REMARK    1  A    between atoms: C_2  and  C_10
REMARK    2  A    between atoms: C_10  and  C_11
REMARK    3  A    between atoms: C_10  and  N_18
REMARK    4  A    between atoms: C_11  and  C_12
REMARK                            x       y       z     vdW  Elec       q    Type
REMARK                         _______ _______ _______ _____ _____    ______ ____
ROOT
ATOM      1  C   UNL     1       3.563   5.626  17.617  0.00  0.00    +0.000 C 
ENDROOT
BRANCH   1   3
ATOM      2  O   UNL     1       2.698   7.925  17.342  0.00  0.00    +0.000 OA
ATOM      3  C   UNL     1       2.786   6.955  18.098  0.00  0.00    +0.000 C 
ATOM      4  N   UNL     1       2.390   7.054  19.418  0.00  0.00    +0.000 N 
ATOM      5  C   UNL     1       1.700   8.147  19.984  0.00  0.00    +0.000 A 
ATOM      6  C   UNL     1       1.438   8.105  21.351  0.00  0.00    +0.000 A 
ATOM      7  C   UNL     1       0.748   9.165  21.949  0.00  0.00    +0.000 A 
ATOM      8  C   UNL     1       0.345  10.240  21.168  0.00  0.00    +0.000 A 
ATOM      9  C   UNL     1       0.645  10.203  19.821  0.00  0.00    +0.000 A 
ATOM     10  N   UNL     1       1.299   9.183  19.226  0.00  0.00    +0.000 NA
ATOM     11  H   UNL     1       2.654   6.345  20.076  0.00  0.00    +0.000 HD
ENDBRANCH   1   3
BRANCH   1  12
ATOM     12  N   UNL     1       2.677   4.408  17.376  0.00  0.00    +0.000 N 
ATOM     13  C   UNL     1       1.294   4.446  17.858  0.00  0.00    +0.000 C 
ATOM     14  C   UNL     1       1.405   3.685  19.138  0.00  0.00    +0.000 A 
ATOM     15  C   UNL     1       0.828   3.914  20.372  0.00  0.00    +0.000 A 
ATOM     16  C   UNL     1       1.361   3.241  21.479  0.00  0.00    +0.000 A 
ATOM     17  C   UNL     1       2.410   2.312  21.337  0.00  0.00    +0.000 A 
ATOM     18  C   UNL     1       2.975   2.074  20.086  0.00  0.00    +0.000 A 
ATOM     19  C   UNL     1       2.472   2.801  19.027  0.00  0.00    +0.000 A 
ATOM     20  C   UNL     1       3.192   3.158  17.805  0.00  0.00    +0.000 C 
ATOM     21  O   UNL     1       4.165   2.557  17.383  0.00  0.00    +0.000 OA
ENDBRANCH   1  12
BRANCH   1  22
ATOM     22  C   UNL     1       4.783   5.210  18.490  0.00  0.00    +0.000 C 
BRANCH  22  23
ATOM     23  C   UNL     1       6.064   5.986  18.325  0.00  0.00    +0.000 A 
ATOM     24  C   UNL     1       7.136   5.730  19.200  0.00  0.00    +0.000 A 
ATOM     25  C   UNL     1       8.264   6.537  19.175  0.00  0.00    +0.000 A 
ATOM     26  C   UNL     1       8.347   7.585  18.262  0.00  0.00    +0.000 A 
ATOM     27  C   UNL     1       7.312   7.808  17.354  0.00  0.00    +0.000 A 
ATOM     28  C   UNL     1       6.174   7.002  17.373  0.00  0.00    +0.000 A 
ENDBRANCH  22  23
ENDBRANCH   1  22
TORSDOF 4
ENDMDL
MODEL 8
REMARK VINA RESULT:      -8.0      2.983      6.828
REMARK  Name = 
REMARK  4 active torsions:
REMARK  status: ('A' for Active; 'I' for Inactive)
REMARK    1  A    between atoms: C_2  and  C_10
REMARK    2  A    between atoms: C_10  and  C_11
REMARK    3  A    between atoms: C_10  and  N_18
REMARK    4  A    between atoms: C_11  and  C_12
REMARK                            x       y       z     vdW  Elec       q    Type
REMARK                         _______ _______ _______ _____ _____    ______ ____
ROOT
ATOM      1  C   UNL     1       3.322   6.840  18.235  0.00  0.00    +0.000 C 
ENDROOT
BRANCH   1   3
ATOM      2  O   UNL     1       2.133   8.789  17.290  0.00  0.00    +0.000 OA
ATOM      3  C   UNL     1       2.306   8.090  18.291  0.00  0.00    +0.000 C 
ATOM      4  N   UNL     1       1.784   8.470  19.512  0.00  0.00    +0.000 N 
ATOM      5  C   UNL     1       0.882   9.535  19.720  0.00  0.00    +0.000 A 
ATOM      6  C   UNL     1       0.510   9.818  21.032  0.00  0.00    +0.000 A 
ATOM      7  C   UNL     1      -0.388  10.862  21.278  0.00  0.00    +0.000 A 
ATOM      8  C   UNL     1      -0.886  11.597  20.211  0.00  0.00    +0.000 A 
ATOM      9  C   UNL     1      -0.466  11.252  18.943  0.00  0.00    +0.000 A 
ATOM     10  N   UNL     1       0.391  10.241  18.686  0.00  0.00    +0.000 NA
ATOM     11  H   UNL     1       2.097   8.023  20.354  0.00  0.00    +0.000 HD
ENDBRANCH   1   3
BRANCH   1  12
ATOM     12  N   UNL     1       3.457   6.054  19.536  0.00  0.00    +0.000 N 
ATOM     13  C   UNL     1       4.546   5.079  19.651  0.00  0.00    +0.000 C 
ATOM     14  C   UNL     1       3.832   3.802  19.353  0.00  0.00    +0.000 A 
ATOM     15  C   UNL     1       4.221   2.710  18.602  0.00  0.00    +0.000 A 
ATOM     16  C   UNL     1       3.233   1.795  18.214  0.00  0.00    +0.000 A 
ATOM     17  C   UNL     1       1.895   1.944  18.626  0.00  0.00    +0.000 A 
ATOM     18  C   UNL     1       1.513   3.040  19.398  0.00  0.00    +0.000 A 
ATOM     19  C   UNL     1       2.497   3.956  19.707  0.00  0.00    +0.000 A 
ATOM     20  C   UNL     1       2.296   5.378  19.988  0.00  0.00    +0.000 C 
ATOM     21  O   UNL     1       1.242   5.858  20.367  0.00  0.00    +0.000 OA
ENDBRANCH   1  12
BRANCH   1  22
ATOM     22  C   UNL     1       4.740   7.153  17.675  0.00  0.00    +0.000 C 
BRANCH  22  23
ATOM     23  C   UNL     1       5.412   6.101  16.831  0.00  0.00    +0.000 A 
ATOM     24  C   UNL     1       4.624   5.290  15.994  0.00  0.00    +0.000 A 
ATOM     25  C   UNL     1       5.193   4.212  15.330  0.00  0.00    +0.000 A 
ATOM     26  C   UNL     1       6.552   3.949  15.472  0.00  0.00    +0.000 A 
ATOM     27  C   UNL     1       7.350   4.783  16.256  0.00  0.00    +0.000 A 
ATOM     28  C   UNL     1       6.787   5.868  16.927  0.00  0.00    +0.000 A 
ENDBRANCH  22  23
ENDBRANCH   1  22
TORSDOF 4
ENDMDL
MODEL 9
REMARK VINA RESULT:      -7.8      2.015      3.121
REMARK  Name = 
REMARK  4 active torsions:
REMARK  status: ('A' for Active; 'I' for Inactive)
REMARK    1  A    between atoms: C_2  and  C_10
REMARK    2  A    between atoms: C_10  and  C_11
REMARK    3  A    between atoms: C_10  and  N_18
REMARK    4  A    between atoms: C_11  and  C_12
REMARK                            x       y       z     vdW  Elec       q    Type
REMARK                         _______ _______ _______ _____ _____    ______ ____
ROOT
ATOM      1  C   UNL     1       2.772   6.297  19.420  0.00  0.00    +0.000 C 
ENDROOT
BRANCH   1   3
ATOM      2  O   UNL     1       5.162   5.672  19.350  0.00  0.00    +0.000 OA
ATOM      3  C   UNL     1       4.131   5.825  18.691  0.00  0.00    +0.000 C 
ATOM      4  N   UNL     1       4.166   5.778  17.311  0.00  0.00    +0.000 N 
ATOM      5  C   UNL     1       5.275   5.382  16.534  0.00  0.00    +0.000 A 
ATOM      6  C   UNL     1       5.152   5.458  15.149  0.00  0.00    +0.000 A 
ATOM      7  C   UNL     1       6.227   5.067  14.344  0.00  0.00    +0.000 A 
ATOM      8  C   UNL     1       7.396   4.617  14.942  0.00  0.00    +0.000 A 
ATOM      9  C   UNL     1       7.436   4.573  16.321  0.00  0.00    +0.000 A 
ATOM     10  N   UNL     1       6.404   4.935  17.113  0.00  0.00    +0.000 NA
ATOM     11  H   UNL     1       3.383   6.108  16.777  0.00  0.00    +0.000 HD
ENDBRANCH   1   3
BRANCH   1  12
ATOM     12  N   UNL     1       1.727   5.203  19.615  0.00  0.00    +0.000 N 
ATOM     13  C   UNL     1       1.826   4.349  20.802  0.00  0.00    +0.000 C 
ATOM     14  C   UNL     1       2.492   3.137  20.239  0.00  0.00    +0.000 A 
ATOM     15  C   UNL     1       3.490   2.337  20.761  0.00  0.00    +0.000 A 
ATOM     16  C   UNL     1       4.159   1.469  19.887  0.00  0.00    +0.000 A 
ATOM     17  C   UNL     1       3.787   1.364  18.533  0.00  0.00    +0.000 A 
ATOM     18  C   UNL     1       2.768   2.162  18.018  0.00  0.00    +0.000 A 
ATOM     19  C   UNL     1       2.175   3.053  18.888  0.00  0.00    +0.000 A 
ATOM     20  C   UNL     1       1.531   4.315  18.527  0.00  0.00    +0.000 C 
ATOM     21  O   UNL     1       1.089   4.565  17.419  0.00  0.00    +0.000 OA
ENDBRANCH   1  12
BRANCH   1  22
ATOM     22  C   UNL     1       2.089   7.558  18.814  0.00  0.00    +0.000 C 
BRANCH  22  23
ATOM     23  C   UNL     1       1.439   8.531  19.763  0.00  0.00    +0.000 A 
ATOM     24  C   UNL     1       1.406   8.228  21.136  0.00  0.00    +0.000 A 
ATOM     25  C   UNL     1       0.676   9.023  22.008  0.00  0.00    +0.000 A 
ATOM     26  C   UNL     1      -0.001  10.140  21.526  0.00  0.00    +0.000 A 
ATOM     27  C   UNL     1       0.074  10.477  20.175  0.00  0.00    +0.000 A 
ATOM     28  C   UNL     1       0.804   9.683  19.292  0.00  0.00    +0.000 A 
ENDBRANCH  22  23
ENDBRANCH   1  22
TORSDOF 4
ENDMDL
