MODEL 1
REMARK VINA RESULT:      -8.5      0.000      0.000
REMARK  Name = 
REMARK  5 active torsions:
REMARK  status: ('A' for Active; 'I' for Inactive)
REMARK    1  A    between atoms: C_1  and  C_2
REMARK    2  A    between atoms: N_5  and  C_6
REMARK    3  A    between atoms: C_10  and  N_11
REMARK    4  A    between atoms: C_12  and  C_14
REMARK    5  A    between atoms: N_21  and  C_22
REMARK                            x       y       z     vdW  Elec       q    Type
REMARK                         _______ _______ _______ _____ _____    ______ ____
ROOT
ATOM      1  C   UNL     1       1.861  10.172  17.747  0.00  0.00    +0.000 C 
ATOM      2  C   UNL     1       1.405   9.779  19.118  0.00  0.00    +0.000 A 
ATOM      3  N   UNL     1       1.540   8.488  19.466  0.00  0.00    +0.000 NA
ATOM      4  C   UNL     1       1.121   8.063  20.685  0.00  0.00    +0.000 A 
ATOM      5  N   UNL     1       1.203   6.707  21.008  0.00  0.00    +0.000 N 
ATOM      6  C   UNL     1       0.597   9.024  21.559  0.00  0.00    +0.000 A 
ATOM      7  C   UNL     1       0.130   9.081  22.881  0.00  0.00    +0.000 A 
ATOM      8  N   UNL     1      -0.225  10.310  23.259  0.00  0.00    +0.000 NA
ATOM      9  N   UNL     1      -0.006  11.087  22.150  0.00  0.00    +0.000 N 
ATOM     10  C   UNL     1       0.521  10.331  21.106  0.00  0.00    +0.000 A 
ATOM     11  N   UNL     1       0.904  10.753  19.886  0.00  0.00    +0.000 NA
ATOM     12  H   UNL     1       0.574   6.379  21.726  0.00  0.00    +0.000 HD
ENDROOT
BRANCH   5  13
ATOM     13  C   UNL     1       2.139   5.759  20.556  0.00  0.00    +0.000 A 
ATOM     14  C   UNL     1       1.956   4.414  20.879  0.00  0.00    +0.000 A 
ATOM     15  C   UNL     1       2.858   3.453  20.432  0.00  0.00    +0.000 A 
ATOM     16  C   UNL     1       3.964   3.828  19.667  0.00  0.00    +0.000 A 
ATOM     17  C   UNL     1       4.168   5.164  19.321  0.00  0.00    +0.000 A 
ATOM     18  C   UNL     1       3.232   6.116  19.747  0.00  0.00    +0.000 A 
BRANCH  17  19
ATOM     19  N   UNL     1       5.286   5.620  18.581  0.00  0.00    +0.000 N 
ATOM     20  C   UNL     1       6.603   5.615  18.994  0.00  0.00    +0.000 C 
ATOM     21  O   UNL     1       7.040   5.196  20.055  0.00  0.00    +0.000 OA
ATOM     22  H   UNL     1       5.088   6.023  17.677  0.00  0.00    +0.000 HD
BRANCH  20  23
ATOM     23  C   UNL     1       7.550   6.235  18.014  0.00  0.00    +0.000 C 
ATOM     24  C   UNL     1       8.144   7.598  18.305  0.00  0.00    +0.000 C 
ATOM     25  C   UNL     1       7.106   7.453  17.231  0.00  0.00    +0.000 C 
ENDBRANCH  20  23
ENDBRANCH  17  19
ENDBRANCH   5  13
BRANCH   9  26
ATOM     26  C   UNL     1      -0.306  12.483  22.178  0.00  0.00    +0.000 A 
ATOM     27  C   UNL     1      -1.376  12.948  22.962  0.00  0.00    +0.000 A 
ATOM     28  C   UNL     1      -1.679  14.313  23.005  0.00  0.00    +0.000 A 
ATOM     29  C   UNL     1      -0.927  15.222  22.264  0.00  0.00    +0.000 A 
ATOM     30  C   UNL     1       0.128  14.771  21.480  0.00  0.00    +0.000 A 
ATOM     31  C   UNL     1       0.439  13.411  21.436  0.00  0.00    +0.000 A 
ENDBRANCH   9  26
TORSDOF 4
ENDMDL
MODEL 2
REMARK VINA RESULT:      -8.3      3.772      8.582
REMARK  Name = 
REMARK  5 active torsions:
REMARK  status: ('A' for Active; 'I' for Inactive)
REMARK    1  A    between atoms: C_1  and  C_2
REMARK    2  A    between atoms: N_5  and  C_6
REMARK    3  A    between atoms: C_10  and  N_11
REMARK    4  A    between atoms: C_12  and  C_14
REMARK    5  A    between atoms: N_21  and  C_22
REMARK                            x       y       z     vdW  Elec       q    Type
REMARK                         _______ _______ _______ _____ _____    ______ ____
ROOT
ATOM      1  C   UNL     1       0.008   9.560  22.605  0.00  0.00    +0.000 C 
ATOM      2  C   UNL     1       0.618   9.385  21.249  0.00  0.00    +0.000 A 
ATOM      3  N   UNL     1       0.611  10.449  20.428  0.00  0.00    +0.000 NA
ATOM      4  C   UNL     1       1.125  10.347  19.176  0.00  0.00    +0.000 A 
ATOM      5  N   UNL     1       1.049  11.440  18.309  0.00  0.00    +0.000 N 
ATOM      6  C   UNL     1       1.694   9.121  18.809  0.00  0.00    +0.000 A 
ATOM      7  C   UNL     1       2.382   8.583  17.711  0.00  0.00    +0.000 A 
ATOM      8  N   UNL     1       2.765   7.320  17.901  0.00  0.00    +0.000 NA
ATOM      9  N   UNL     1       2.301   7.004  19.152  0.00  0.00    +0.000 N 
ATOM     10  C   UNL     1       1.665   8.095  19.739  0.00  0.00    +0.000 A 
ATOM     11  N   UNL     1       1.127   8.179  20.970  0.00  0.00    +0.000 NA
ATOM     12  H   UNL     1       1.091  11.231  17.322  0.00  0.00    +0.000 HD
ENDROOT
BRANCH   5  13
ATOM     13  C   UNL     1       1.052  12.809  18.631  0.00  0.00    +0.000 A 
ATOM     14  C   UNL     1      -0.162  13.494  18.702  0.00  0.00    +0.000 A 
ATOM     15  C   UNL     1      -0.190  14.846  19.034  0.00  0.00    +0.000 A 
ATOM     16  C   UNL     1       0.999  15.533  19.285  0.00  0.00    +0.000 A 
ATOM     17  C   UNL     1       2.227  14.872  19.231  0.00  0.00    +0.000 A 
ATOM     18  C   UNL     1       2.237  13.503  18.932  0.00  0.00    +0.000 A 
BRANCH  17  19
ATOM     19  N   UNL     1       3.472  15.513  19.438  0.00  0.00    +0.000 N 
ATOM     20  C   UNL     1       4.022  16.512  18.660  0.00  0.00    +0.000 C 
ATOM     21  O   UNL     1       3.524  17.036  17.674  0.00  0.00    +0.000 OA
ATOM     22  H   UNL     1       4.025  15.174  20.211  0.00  0.00    +0.000 HD
BRANCH  20  23
ATOM     23  C   UNL     1       5.391  16.936  19.092  0.00  0.00    +0.000 C 
ATOM     24  C   UNL     1       6.598  16.132  18.653  0.00  0.00    +0.000 C 
ATOM     25  C   UNL     1       6.148  16.078  20.083  0.00  0.00    +0.000 C 
ENDBRANCH  20  23
ENDBRANCH  17  19
ENDBRANCH   5  13
BRANCH   9  26
ATOM     26  C   UNL     1       2.508   5.698  19.690  0.00  0.00    +0.000 A 
ATOM     27  C   UNL     1       3.614   4.939  19.265  0.00  0.00    +0.000 A 
ATOM     28  C   UNL     1       3.834   3.660  19.786  0.00  0.00    +0.000 A 
ATOM     29  C   UNL     1       2.955   3.124  20.725  0.00  0.00    +0.000 A 
ATOM     30  C   UNL     1       1.856   3.863  21.145  0.00  0.00    +0.000 A 
ATOM     31  C   UNL     1       1.632   5.142  20.633  0.00  0.00    +0.000 A 
ENDBRANCH   9  26
TORSDOF 4
ENDMDL
MODEL 3
REMARK VINA RESULT:      -8.1      3.326      8.418
REMARK  Name = 
REMARK  5 active torsions:
REMARK  status: ('A' for Active; 'I' for Inactive)
REMARK    1  A    between atoms: C_1  and  C_2
REMARK    2  A    between atoms: N_5  and  C_6
REMARK    3  A    between atoms: C_10  and  N_11
REMARK    4  A    between atoms: C_12  and  C_14
REMARK    5  A    between atoms: N_21  and  C_22
REMARK                            x       y       z     vdW  Elec       q    Type
REMARK                         _______ _______ _______ _____ _____    ______ ____
ROOT
ATOM      1  C   UNL     1       0.218   9.414  22.804  0.00  0.00    +0.000 C 
ATOM      2  C   UNL     1       0.758   9.218  21.421  0.00  0.00    +0.000 A 
ATOM      3  N   UNL     1       0.748  10.281  20.599  0.00  0.00    +0.000 NA
ATOM      4  C   UNL     1       1.199  10.161  19.325  0.00  0.00    +0.000 A 
ATOM      5  N   UNL     1       1.119  11.255  18.461  0.00  0.00    +0.000 N 
ATOM      6  C   UNL     1       1.709   8.917  18.934  0.00  0.00    +0.000 A 
ATOM      7  C   UNL     1       2.327   8.355  17.807  0.00  0.00    +0.000 A 
ATOM      8  N   UNL     1       2.677   7.080  17.981  0.00  0.00    +0.000 NA
ATOM      9  N   UNL     1       2.261   6.781  19.254  0.00  0.00    +0.000 N 
ATOM     10  C   UNL     1       1.690   7.893  19.868  0.00  0.00    +0.000 A 
ATOM     11  N   UNL     1       1.213   7.996  21.122  0.00  0.00    +0.000 NA
ATOM     12  H   UNL     1       1.109  11.045  17.473  0.00  0.00    +0.000 HD
ENDROOT
BRANCH   5  13
ATOM     13  C   UNL     1       1.183  12.624  18.778  0.00  0.00    +0.000 A 
ATOM     14  C   UNL     1       0.074  13.433  18.527  0.00  0.00    +0.000 A 
ATOM     15  C   UNL     1       0.104  14.788  18.847  0.00  0.00    +0.000 A 
ATOM     16  C   UNL     1       1.249  15.353  19.410  0.00  0.00    +0.000 A 
ATOM     17  C   UNL     1       2.370  14.566  19.681  0.00  0.00    +0.000 A 
ATOM     18  C   UNL     1       2.313  13.197  19.389  0.00  0.00    +0.000 A 
BRANCH  17  19
ATOM     19  N   UNL     1       3.576  15.078  20.217  0.00  0.00    +0.000 N 
ATOM     20  C   UNL     1       3.956  15.068  21.544  0.00  0.00    +0.000 C 
ATOM     21  O   UNL     1       3.335  14.597  22.484  0.00  0.00    +0.000 OA
ATOM     22  H   UNL     1       4.199  15.528  19.562  0.00  0.00    +0.000 HD
BRANCH  20  23
ATOM     23  C   UNL     1       5.260  15.755  21.808  0.00  0.00    +0.000 C 
ATOM     24  C   UNL     1       6.534  14.939  21.894  0.00  0.00    +0.000 C 
ATOM     25  C   UNL     1       5.950  15.539  23.138  0.00  0.00    +0.000 C 
ENDBRANCH  20  23
ENDBRANCH  17  19
ENDBRANCH   5  13
BRANCH   9  26
ATOM     26  C   UNL     1       2.449   5.468  19.784  0.00  0.00    +0.000 A 
ATOM     27  C   UNL     1       3.632   4.766  19.494  0.00  0.00    +0.000 A 
ATOM     28  C   UNL     1       3.835   3.481  20.010  0.00  0.00    +0.000 A 
ATOM     29  C   UNL     1       2.862   2.885  20.810  0.00  0.00    +0.000 A 
ATOM     30  C   UNL     1       1.686   3.569  21.095  0.00  0.00    +0.000 A 
ATOM     31  C   UNL     1       1.480   4.853  20.588  0.00  0.00    +0.000 A 
ENDBRANCH   9  26
TORSDOF 4
ENDMDL
MODEL 4
REMARK VINA RESULT:      -8.1      2.269      3.190
REMARK  Name = 
REMARK  5 active torsions:
REMARK  status: ('A' for Active; 'I' for Inactive)
REMARK    1  A    between atoms: C_1  and  C_2
REMARK    2  A    between atoms: N_5  and  C_6
REMARK    3  A    between atoms: C_10  and  N_11
REMARK    4  A    between atoms: C_12  and  C_14
REMARK    5  A    between atoms: N_21  and  C_22
REMARK                            x       y       z     vdW  Elec       q    Type
REMARK                         _______ _______ _______ _____ _____    ______ ____
ROOT
ATOM      1  C   UNL     1       0.116   9.420  23.472  0.00  0.00    +0.000 C 
ATOM      2  C   UNL     1       0.097   9.779  22.019  0.00  0.00    +0.000 A 
ATOM      3  N   UNL     1       0.874   9.055  21.194  0.00  0.00    +0.000 NA
ATOM      4  C   UNL     1       0.921   9.348  19.871  0.00  0.00    +0.000 A 
ATOM      5  N   UNL     1       1.785   8.634  19.037  0.00  0.00    +0.000 N 
ATOM      6  C   UNL     1       0.101  10.386  19.409  0.00  0.00    +0.000 A 
ATOM      7  C   UNL     1      -0.237  10.975  18.181  0.00  0.00    +0.000 A 
ATOM      8  N   UNL     1      -1.147  11.943  18.297  0.00  0.00    +0.000 NA
ATOM      9  N   UNL     1      -1.406  12.012  19.642  0.00  0.00    +0.000 N 
ATOM     10  C   UNL     1      -0.676  11.054  20.341  0.00  0.00    +0.000 A 
ATOM     11  N   UNL     1      -0.702  10.791  21.661  0.00  0.00    +0.000 NA
ATOM     12  H   UNL     1       2.064   9.095  18.183  0.00  0.00    +0.000 HD
ENDROOT
BRANCH   5  13
ATOM     13  C   UNL     1       2.216   7.302  19.166  0.00  0.00    +0.000 A 
ATOM     14  C   UNL     1       1.887   6.588  20.319  0.00  0.00    +0.000 A 
ATOM     15  C   UNL     1       2.287   5.263  20.465  0.00  0.00    +0.000 A 
ATOM     16  C   UNL     1       3.034   4.639  19.464  0.00  0.00    +0.000 A 
ATOM     17  C   UNL     1       3.369   5.324  18.296  0.00  0.00    +0.000 A 
ATOM     18  C   UNL     1       2.928   6.646  18.146  0.00  0.00    +0.000 A 
BRANCH  17  19
ATOM     19  N   UNL     1       4.154   4.767  17.258  0.00  0.00    +0.000 N 
ATOM     20  C   UNL     1       5.513   4.530  17.291  0.00  0.00    +0.000 C 
ATOM     21  O   UNL     1       6.274   4.736  18.226  0.00  0.00    +0.000 OA
ATOM     22  H   UNL     1       3.671   4.559  16.396  0.00  0.00    +0.000 HD
BRANCH  20  23
ATOM     23  C   UNL     1       6.070   4.001  16.006  0.00  0.00    +0.000 C 
ATOM     24  C   UNL     1       6.898   4.908  15.118  0.00  0.00    +0.000 C 
ATOM     25  C   UNL     1       5.513   4.516  14.696  0.00  0.00    +0.000 C 
ENDBRANCH  20  23
ENDBRANCH  17  19
ENDBRANCH   5  13
BRANCH   9  26
ATOM     26  C   UNL     1      -2.331  12.974  20.149  0.00  0.00    +0.000 A 
ATOM     27  C   UNL     1      -1.862  14.229  20.578  0.00  0.00    +0.000 A 
ATOM     28  C   UNL     1      -2.757  15.184  21.072  0.00  0.00    +0.000 A 
ATOM     29  C   UNL     1      -4.118  14.897  21.151  0.00  0.00    +0.000 A 
ATOM     30  C   UNL     1      -4.588  13.657  20.737  0.00  0.00    +0.000 A 
ATOM     31  C   UNL     1      -3.703  12.701  20.238  0.00  0.00    +0.000 A 
ENDBRANCH   9  26
TORSDOF 4
ENDMDL
MODEL 5
REMARK VINA RESULT:      -8.1      1.364      1.535
REMARK  Name = 
REMARK  5 active torsions:
REMARK  status: ('A' for Active; 'I' for Inactive)
REMARK    1  A    between atoms: C_1  and  C_2
REMARK    2  A    between atoms: N_5  and  C_6
REMARK    3  A    between atoms: C_10  and  N_11
REMARK    4  A    between atoms: C_12  and  C_14
REMARK    5  A    between atoms: N_21  and  C_22
REMARK                            x       y       z     vdW  Elec       q    Type
REMARK                         _______ _______ _______ _____ _____    ______ ____
ROOT
ATOM      1  C   UNL     1       2.359   8.675  17.126  0.00  0.00    +0.000 C 
ATOM      2  C   UNL     1       1.925   8.618  18.558  0.00  0.00    +0.000 A 
ATOM      3  N   UNL     1       1.957   7.418  19.164  0.00  0.00    +0.000 NA
ATOM      4  C   UNL     1       1.551   7.295  20.453  0.00  0.00    +0.000 A 
ATOM      5  N   UNL     1       1.524   6.033  21.049  0.00  0.00    +0.000 N 
ATOM      6  C   UNL     1       1.154   8.461  21.120  0.00  0.00    +0.000 A 
ATOM      7  C   UNL     1       0.749   8.833  22.410  0.00  0.00    +0.000 A 
ATOM      8  N   UNL     1       0.523  10.142  22.532  0.00  0.00    +0.000 NA
ATOM      9  N   UNL     1       0.765  10.651  21.282  0.00  0.00    +0.000 N 
ATOM     10  C   UNL     1       1.178   9.649  20.406  0.00  0.00    +0.000 A 
ATOM     11  N   UNL     1       1.547   9.773  19.118  0.00  0.00    +0.000 NA
ATOM     12  H   UNL     1       0.897   5.922  21.833  0.00  0.00    +0.000 HD
ENDROOT
BRANCH   5  13
ATOM     13  C   UNL     1       2.350   4.926  20.784  0.00  0.00    +0.000 A 
ATOM     14  C   UNL     1       2.124   3.729  21.466  0.00  0.00    +0.000 A 
ATOM     15  C   UNL     1       2.917   2.613  21.211  0.00  0.00    +0.000 A 
ATOM     16  C   UNL     1       3.955   2.685  20.281  0.00  0.00    +0.000 A 
ATOM     17  C   UNL     1       4.198   3.866  19.578  0.00  0.00    +0.000 A 
ATOM     18  C   UNL     1       3.369   4.970  19.816  0.00  0.00    +0.000 A 
BRANCH  17  19
ATOM     19  N   UNL     1       5.255   4.021  18.648  0.00  0.00    +0.000 N 
ATOM     20  C   UNL     1       6.420   4.736  18.840  0.00  0.00    +0.000 C 
ATOM     21  O   UNL     1       6.756   5.339  19.848  0.00  0.00    +0.000 OA
ATOM     22  H   UNL     1       5.120   3.594  17.744  0.00  0.00    +0.000 HD
BRANCH  20  23
ATOM     23  C   UNL     1       7.314   4.776  17.640  0.00  0.00    +0.000 C 
ATOM     24  C   UNL     1       7.121   5.859  16.598  0.00  0.00    +0.000 C 
ATOM     25  C   UNL     1       6.735   4.445  16.280  0.00  0.00    +0.000 C 
ENDBRANCH  20  23
ENDBRANCH  17  19
ENDBRANCH   5  13
BRANCH   9  26
ATOM     26  C   UNL     1       0.596  12.045  21.025  0.00  0.00    +0.000 A 
ATOM     27  C   UNL     1      -0.701  12.587  20.965  0.00  0.00    +0.000 A 
ATOM     28  C   UNL     1      -0.884  13.952  20.720  0.00  0.00    +0.000 A 
ATOM     29  C   UNL     1       0.216  14.784  20.527  0.00  0.00    +0.000 A 
ATOM     30  C   UNL     1       1.501  14.256  20.577  0.00  0.00    +0.000 A 
ATOM     31  C   UNL     1       1.692  12.896  20.826  0.00  0.00    +0.000 A 
ENDBRANCH   9  26
TORSDOF 4
ENDMDL
MODEL 6
REMARK VINA RESULT:      -8.1      3.584      8.260
REMARK  Name = 
REMARK  5 active torsions:
REMARK  status: ('A' for Active; 'I' for Inactive)
REMARK    1  A    between atoms: C_1  and  C_2
REMARK    2  A    between atoms: N_5  and  C_6
REMARK    3  A    between atoms: C_10  and  N_11
REMARK    4  A    between atoms: C_12  and  C_14
REMARK    5  A    between atoms: N_21  and  C_22
REMARK                            x       y       z     vdW  Elec       q    Type
REMARK                         _______ _______ _______ _____ _____    ______ ____
ROOT
ATOM      1  C   UNL     1       0.288   9.279  22.636  0.00  0.00    +0.000 C 
ATOM      2  C   UNL     1       0.848   9.008  21.274  0.00  0.00    +0.000 A 
ATOM      3  N   UNL     1       0.855  10.026  20.396  0.00  0.00    +0.000 NA
ATOM      4  C   UNL     1       1.325   9.837  19.138  0.00  0.00    +0.000 A 
ATOM      5  N   UNL     1       1.262  10.884  18.215  0.00  0.00    +0.000 N 
ATOM      6  C   UNL     1       1.835   8.571  18.821  0.00  0.00    +0.000 A 
ATOM      7  C   UNL     1       2.468   7.949  17.735  0.00  0.00    +0.000 A 
ATOM      8  N   UNL     1       2.809   6.683  17.982  0.00  0.00    +0.000 NA
ATOM      9  N   UNL     1       2.373   6.454  19.262  0.00  0.00    +0.000 N 
ATOM     10  C   UNL     1       1.798   7.599  19.807  0.00  0.00    +0.000 A 
ATOM     11  N   UNL     1       1.302   7.770  21.047  0.00  0.00    +0.000 NA
ATOM     12  H   UNL     1       1.266  10.621  17.240  0.00  0.00    +0.000 HD
ENDROOT
BRANCH   5  13
ATOM     13  C   UNL     1       1.326  12.267  18.461  0.00  0.00    +0.000 A 
ATOM     14  C   UNL     1       0.144  12.974  18.686  0.00  0.00    +0.000 A 
ATOM     15  C   UNL     1       0.180  14.341  18.948  0.00  0.00    +0.000 A 
ATOM     16  C   UNL     1       1.399  15.020  18.974  0.00  0.00    +0.000 A 
ATOM     17  C   UNL     1       2.598  14.338  18.762  0.00  0.00    +0.000 A 
ATOM     18  C   UNL     1       2.550  12.956  18.537  0.00  0.00    +0.000 A 
BRANCH  17  19
ATOM     19  N   UNL     1       3.865  14.968  18.738  0.00  0.00    +0.000 N 
ATOM     20  C   UNL     1       4.757  15.061  19.788  0.00  0.00    +0.000 C 
ATOM     21  O   UNL     1       4.624  14.598  20.910  0.00  0.00    +0.000 OA
ATOM     22  H   UNL     1       4.120  15.426  17.875  0.00  0.00    +0.000 HD
BRANCH  20  23
ATOM     23  C   UNL     1       5.985  15.858  19.473  0.00  0.00    +0.000 C 
ATOM     24  C   UNL     1       7.221  15.155  18.948  0.00  0.00    +0.000 C 
ATOM     25  C   UNL     1       7.211  15.696  20.347  0.00  0.00    +0.000 C 
ENDBRANCH  20  23
ENDBRANCH  17  19
ENDBRANCH   5  13
BRANCH   9  26
ATOM     26  C   UNL     1       2.548   5.171  19.864  0.00  0.00    +0.000 A 
ATOM     27  C   UNL     1       3.641   4.370  19.487  0.00  0.00    +0.000 A 
ATOM     28  C   UNL     1       3.830   3.113  20.071  0.00  0.00    +0.000 A 
ATOM     29  C   UNL     1       2.932   2.641  21.026  0.00  0.00    +0.000 A 
ATOM     30  C   UNL     1       1.844   3.423  21.400  0.00  0.00    +0.000 A 
ATOM     31  C   UNL     1       1.653   4.680  20.825  0.00  0.00    +0.000 A 
ENDBRANCH   9  26
TORSDOF 4
ENDMDL
MODEL 7
REMARK VINA RESULT:      -8.0      3.318      9.423
REMARK  Name = 
REMARK  5 active torsions:
REMARK  status: ('A' for Active; 'I' for Inactive)
REMARK    1  A    between atoms: C_1  and  C_2
REMARK    2  A    between atoms: N_5  and  C_6
REMARK    3  A    between atoms: C_10  and  N_11
REMARK    4  A    between atoms: C_12  and  C_14
REMARK    5  A    between atoms: N_21  and  C_22
REMARK                            x       y       z     vdW  Elec       q    Type
REMARK                         _______ _______ _______ _____ _____    ______ ____
ROOT
ATOM      1  C   UNL     1       0.246   9.260  22.583  0.00  0.00    +0.000 C 
ATOM      2  C   UNL     1       0.836   9.006  21.231  0.00  0.00    +0.000 A 
ATOM      3  N   UNL     1       0.856  10.032  20.363  0.00  0.00    +0.000 NA
ATOM      4  C   UNL     1       1.353   9.858  19.113  0.00  0.00    +0.000 A 
ATOM      5  N   UNL     1       1.305  10.913  18.199  0.00  0.00    +0.000 N 
ATOM      6  C   UNL     1       1.877   8.598  18.795  0.00  0.00    +0.000 A 
ATOM      7  C   UNL     1       2.536   7.989  17.717  0.00  0.00    +0.000 A 
ATOM      8  N   UNL     1       2.879   6.724  17.959  0.00  0.00    +0.000 NA
ATOM      9  N   UNL     1       2.417   6.479  19.227  0.00  0.00    +0.000 N 
ATOM     10  C   UNL     1       1.824   7.616  19.771  0.00  0.00    +0.000 A 
ATOM     11  N   UNL     1       1.302   7.772  21.001  0.00  0.00    +0.000 NA
ATOM     12  H   UNL     1       1.331  10.660  17.222  0.00  0.00    +0.000 HD
ENDROOT
BRANCH   5  13
ATOM     13  C   UNL     1       1.356  12.294  18.460  0.00  0.00    +0.000 A 
ATOM     14  C   UNL     1       2.581  12.958  18.372  0.00  0.00    +0.000 A 
ATOM     15  C   UNL     1       2.658  14.328  18.609  0.00  0.00    +0.000 A 
ATOM     16  C   UNL     1       1.512  15.049  18.950  0.00  0.00    +0.000 A 
ATOM     17  C   UNL     1       0.273  14.413  19.035  0.00  0.00    +0.000 A 
ATOM     18  C   UNL     1       0.203  13.042  18.758  0.00  0.00    +0.000 A 
BRANCH  17  19
ATOM     19  N   UNL     1      -0.922  15.073  19.411  0.00  0.00    +0.000 N 
ATOM     20  C   UNL     1      -1.396  15.248  20.696  0.00  0.00    +0.000 C 
ATOM     21  O   UNL     1      -0.860  14.889  21.733  0.00  0.00    +0.000 OA
ATOM     22  H   UNL     1      -1.499  15.415  18.656  0.00  0.00    +0.000 HD
BRANCH  20  23
ATOM     23  C   UNL     1      -2.731  15.923  20.766  0.00  0.00    +0.000 C 
ATOM     24  C   UNL     1      -2.811  17.435  20.695  0.00  0.00    +0.000 C 
ATOM     25  C   UNL     1      -3.081  16.735  21.994  0.00  0.00    +0.000 C 
ENDBRANCH  20  23
ENDBRANCH  17  19
ENDBRANCH   5  13
BRANCH   9  26
ATOM     26  C   UNL     1       2.586   5.191  19.820  0.00  0.00    +0.000 A 
ATOM     27  C   UNL     1       3.718   4.422  19.498  0.00  0.00    +0.000 A 
ATOM     28  C   UNL     1       3.902   3.161  20.075  0.00  0.00    +0.000 A 
ATOM     29  C   UNL     1       2.960   2.654  20.967  0.00  0.00    +0.000 A 
ATOM     30  C   UNL     1       1.834   3.404  21.286  0.00  0.00    +0.000 A 
ATOM     31  C   UNL     1       1.647   4.665  20.718  0.00  0.00    +0.000 A 
ENDBRANCH   9  26
TORSDOF 4
ENDMDL
MODEL 8
REMARK VINA RESULT:      -8.0      2.698      4.604
REMARK  Name = 
REMARK  5 active torsions:
REMARK  status: ('A' for Active; 'I' for Inactive)
REMARK    1  A    between atoms: C_1  and  C_2
REMARK    2  A    between atoms: N_5  and  C_6
REMARK    3  A    between atoms: C_10  and  N_11
REMARK    4  A    between atoms: C_12  and  C_14
REMARK    5  A    between atoms: N_21  and  C_22
REMARK                            x       y       z     vdW  Elec       q    Type
REMARK                         _______ _______ _______ _____ _____    ______ ____
ROOT
ATOM      1  C   UNL     1       3.127  14.081  20.810  0.00  0.00    +0.000 C 
ATOM      2  C   UNL     1       1.791  13.471  21.102  0.00  0.00    +0.000 A 
ATOM      3  N   UNL     1       1.491  12.317  20.482  0.00  0.00    +0.000 NA
ATOM      4  C   UNL     1       0.285  11.728  20.684  0.00  0.00    +0.000 A 
ATOM      5  N   UNL     1      -0.041  10.567  19.981  0.00  0.00    +0.000 N 
ATOM      6  C   UNL     1      -0.591  12.344  21.588  0.00  0.00    +0.000 A 
ATOM      7  C   UNL     1      -1.849  12.087  22.153  0.00  0.00    +0.000 A 
ATOM      8  N   UNL     1      -2.225  13.012  23.037  0.00  0.00    +0.000 NA
ATOM      9  N   UNL     1      -1.197  13.919  23.044  0.00  0.00    +0.000 N 
ATOM     10  C   UNL     1      -0.174  13.521  22.186  0.00  0.00    +0.000 A 
ATOM     11  N   UNL     1       1.007  14.128  21.965  0.00  0.00    +0.000 NA
ATOM     12  H   UNL     1      -1.025  10.373  19.870  0.00  0.00    +0.000 HD
ENDROOT
BRANCH   5  13
ATOM     13  C   UNL     1       0.822   9.557  19.519  0.00  0.00    +0.000 A 
ATOM     14  C   UNL     1       1.396   9.679  18.252  0.00  0.00    +0.000 A 
ATOM     15  C   UNL     1       2.266   8.703  17.775  0.00  0.00    +0.000 A 
ATOM     16  C   UNL     1       2.563   7.584  18.555  0.00  0.00    +0.000 A 
ATOM     17  C   UNL     1       2.013   7.440  19.830  0.00  0.00    +0.000 A 
ATOM     18  C   UNL     1       1.168   8.448  20.312  0.00  0.00    +0.000 A 
BRANCH  17  19
ATOM     19  N   UNL     1       2.241   6.316  20.659  0.00  0.00    +0.000 N 
ATOM     20  C   UNL     1       1.951   5.000  20.359  0.00  0.00    +0.000 C 
ATOM     21  O   UNL     1       1.472   4.570  19.320  0.00  0.00    +0.000 OA
ATOM     22  H   UNL     1       2.619   6.507  21.575  0.00  0.00    +0.000 HD
BRANCH  20  23
ATOM     23  C   UNL     1       2.240   4.044  21.474  0.00  0.00    +0.000 C 
ATOM     24  C   UNL     1       2.944   2.735  21.176  0.00  0.00    +0.000 C 
ATOM     25  C   UNL     1       1.487   2.732  21.532  0.00  0.00    +0.000 C 
ENDBRANCH  20  23
ENDBRANCH  17  19
ENDBRANCH   5  13
BRANCH   9  26
ATOM     26  C   UNL     1      -1.266  15.081  23.870  0.00  0.00    +0.000 A 
ATOM     27  C   UNL     1      -1.739  14.968  25.190  0.00  0.00    +0.000 A 
ATOM     28  C   UNL     1      -1.807  16.096  26.015  0.00  0.00    +0.000 A 
ATOM     29  C   UNL     1      -1.414  17.342  25.532  0.00  0.00    +0.000 A 
ATOM     30  C   UNL     1      -0.953  17.465  24.227  0.00  0.00    +0.000 A 
ATOM     31  C   UNL     1      -0.877  16.344  23.401  0.00  0.00    +0.000 A 
ENDBRANCH   9  26
TORSDOF 4
ENDMDL
MODEL 9
REMARK VINA RESULT:      -7.9      3.714      9.609
REMARK  Name = 
REMARK  5 active torsions:
REMARK  status: ('A' for Active; 'I' for Inactive)
REMARK    1  A    between atoms: C_1  and  C_2
REMARK    2  A    between atoms: N_5  and  C_6
REMARK    3  A    between atoms: C_10  and  N_11
REMARK    4  A    between atoms: C_12  and  C_14
REMARK    5  A    between atoms: N_21  and  C_22
REMARK                            x       y       z     vdW  Elec       q    Type
REMARK                         _______ _______ _______ _____ _____    ______ ____
ROOT
ATOM      1  C   UNL     1       0.298   9.673  22.707  0.00  0.00    +0.000 C 
ATOM      2  C   UNL     1       0.822   9.436  21.325  0.00  0.00    +0.000 A 
ATOM      3  N   UNL     1       0.855  10.487  20.488  0.00  0.00    +0.000 NA
ATOM      4  C   UNL     1       1.294  10.331  19.214  0.00  0.00    +0.000 A 
ATOM      5  N   UNL     1       1.257  11.416  18.336  0.00  0.00    +0.000 N 
ATOM      6  C   UNL     1       1.746   9.061  18.838  0.00  0.00    +0.000 A 
ATOM      7  C   UNL     1       2.334   8.458  17.715  0.00  0.00    +0.000 A 
ATOM      8  N   UNL     1       2.628   7.171  17.905  0.00  0.00    +0.000 NA
ATOM      9  N   UNL     1       2.206   6.907  19.183  0.00  0.00    +0.000 N 
ATOM     10  C   UNL     1       1.687   8.051  19.785  0.00  0.00    +0.000 A 
ATOM     11  N   UNL     1       1.222   8.191  21.040  0.00  0.00    +0.000 NA
ATOM     12  H   UNL     1       1.232  11.193  17.351  0.00  0.00    +0.000 HD
ENDROOT
BRANCH   5  13
ATOM     13  C   UNL     1       1.381  12.785  18.635  0.00  0.00    +0.000 A 
ATOM     14  C   UNL     1       2.654  13.330  18.811  0.00  0.00    +0.000 A 
ATOM     15  C   UNL     1       2.807  14.685  19.092  0.00  0.00    +0.000 A 
ATOM     16  C   UNL     1       1.687  15.509  19.215  0.00  0.00    +0.000 A 
ATOM     17  C   UNL     1       0.403  14.994  19.034  0.00  0.00    +0.000 A 
ATOM     18  C   UNL     1       0.265  13.636  18.715  0.00  0.00    +0.000 A 
BRANCH  17  19
ATOM     19  N   UNL     1      -0.777  15.762  19.179  0.00  0.00    +0.000 N 
ATOM     20  C   UNL     1      -1.007  17.022  18.662  0.00  0.00    +0.000 C 
ATOM     21  O   UNL     1      -0.247  17.683  17.971  0.00  0.00    +0.000 OA
ATOM     22  H   UNL     1      -1.505  15.358  19.750  0.00  0.00    +0.000 HD
BRANCH  20  23
ATOM     23  C   UNL     1      -2.329  17.607  19.052  0.00  0.00    +0.000 C 
ATOM     24  C   UNL     1      -2.427  18.476  20.289  0.00  0.00    +0.000 C 
ATOM     25  C   UNL     1      -3.019  17.098  20.299  0.00  0.00    +0.000 C 
ENDBRANCH  20  23
ENDBRANCH  17  19
ENDBRANCH   5  13
BRANCH   9  26
ATOM     26  C   UNL     1       2.340   5.595  19.730  0.00  0.00    +0.000 A 
ATOM     27  C   UNL     1       3.516   4.861  19.495  0.00  0.00    +0.000 A 
ATOM     28  C   UNL     1       3.665   3.576  20.028  0.00  0.00    +0.000 A 
ATOM     29  C   UNL     1       2.646   3.011  20.791  0.00  0.00    +0.000 A 
ATOM     30  C   UNL     1       1.477   3.726  21.022  0.00  0.00    +0.000 A 
ATOM     31  C   UNL     1       1.323   5.010  20.498  0.00  0.00    +0.000 A 
ENDBRANCH   9  26
TORSDOF 4
ENDMDL
