MODEL 1
REMARK VINA RESULT:      -9.4      0.000      0.000
REMARK  Name = 
REMARK  4 active torsions:
REMARK  status: ('A' for Active; 'I' for Inactive)
REMARK    1  A    between atoms: C_2  and  C_3
REMARK    2  A    between atoms: C_3  and  N_4
REMARK    3  A    between atoms: N_19  and  C_20
REMARK    4  A    between atoms: C_20  and  C_21
REMARK                            x       y       z     vdW  Elec       q    Type
REMARK                         _______ _______ _______ _____ _____    ______ ____
ROOT
ATOM      1  C   UNL     1       7.299   5.883  16.954  0.00  0.00    +0.000 C 
ENDROOT
BRANCH   1   2
ATOM      2  N   UNL     1       5.914   5.601  17.259  0.00  0.00    +0.000 N 
ATOM      3  C   UNL     1       4.861   6.225  16.663  0.00  0.00    +0.000 C 
ATOM      4  O   UNL     1       4.921   7.125  15.844  0.00  0.00    +0.000 OA
ATOM      5  N   UNL     1       3.702   5.636  17.097  0.00  0.00    +0.000 N 
ATOM      6  C   UNL     1       3.977   4.449  17.866  0.00  0.00    +0.000 C 
ATOM      7  C   UNL     1       3.853   3.164  17.015  0.00  0.00    +0.000 C 
ATOM      8  C   UNL     1       3.033   2.146  17.816  0.00  0.00    +0.000 C 
ATOM      9  C   UNL     1       2.462   2.956  18.933  0.00  0.00    +0.000 A 
ATOM     10  C   UNL     1       1.504   2.538  19.843  0.00  0.00    +0.000 A 
ATOM     11  C   UNL     1       1.068   3.439  20.812  0.00  0.00    +0.000 A 
ATOM     12  C   UNL     1       1.597   4.735  20.863  0.00  0.00    +0.000 A 
ATOM     13  C   UNL     1       2.579   5.143  19.951  0.00  0.00    +0.000 A 
ATOM     14  C   UNL     1       3.011   4.241  18.988  0.00  0.00    +0.000 A 
ATOM     15  C   UNL     1       5.466   4.653  18.151  0.00  0.00    +0.000 C 
ATOM     16  O   UNL     1       6.160   4.011  18.927  0.00  0.00    +0.000 OA
ATOM     17  H   UNL     1       2.801   5.883  16.713  0.00  0.00    +0.000 HD
ENDBRANCH   1   2
BRANCH   1  19
ATOM     18  O   UNL     1       8.206   6.464  19.132  0.00  0.00    +0.000 OA
ATOM     19  C   UNL     1       7.903   6.837  18.003  0.00  0.00    +0.000 C 
ATOM     20  N   UNL     1       7.968   8.168  17.629  0.00  0.00    +0.000 N 
ATOM     21  H   UNL     1       7.486   8.428  16.766  0.00  0.00    +0.000 HD
BRANCH  20  22
ATOM     22  C   UNL     1       8.186   9.235  18.595  0.00  0.00    +0.000 C 
BRANCH  22  23
ATOM     23  C   UNL     1       9.058  10.427  18.149  0.00  0.00    +0.000 C 
ATOM     24  C   UNL     1       8.222  11.537  17.484  0.00  0.00    +0.000 C 
ATOM     25  O   UNL     1       8.556  12.895  17.786  0.00  0.00    +0.000 OA
ATOM     26  C   UNL     1       9.801  13.045  18.318  0.00  0.00    +0.000 A 
ATOM     27  C   UNL     1      10.443  14.266  18.123  0.00  0.00    +0.000 A 
ATOM     28  C   UNL     1      11.722  14.467  18.643  0.00  0.00    +0.000 A 
ATOM     29  C   UNL     1      12.333  13.464  19.398  0.00  0.00    +0.000 A 
ATOM     30  C   UNL     1      11.666  12.260  19.632  0.00  0.00    +0.000 A 
ATOM     31  C   UNL     1      10.410  12.048  19.070  0.00  0.00    +0.000 A 
ATOM     32  O   UNL     1       9.780  10.862  19.315  0.00  0.00    +0.000 OA
ENDBRANCH  22  23
ENDBRANCH  20  22
ENDBRANCH   1  19
TORSDOF 4
ENDMDL
MODEL 2
REMARK VINA RESULT:      -8.7      1.484      1.966
REMARK  Name = 
REMARK  4 active torsions:
REMARK  status: ('A' for Active; 'I' for Inactive)
REMARK    1  A    between atoms: C_2  and  C_3
REMARK    2  A    between atoms: C_3  and  N_4
REMARK    3  A    between atoms: N_19  and  C_20
REMARK    4  A    between atoms: C_20  and  C_21
REMARK                            x       y       z     vdW  Elec       q    Type
REMARK                         _______ _______ _______ _____ _____    ______ ____
ROOT
ATOM      1  C   UNL     1       5.960   7.198  16.505  0.00  0.00    +0.000 C 
ENDROOT
BRANCH   1   2
ATOM      2  N   UNL     1       5.231   5.987  16.808  0.00  0.00    +0.000 N 
ATOM      3  C   UNL     1       5.246   4.873  16.026  0.00  0.00    +0.000 C 
ATOM      4  O   UNL     1       5.817   4.746  14.957  0.00  0.00    +0.000 OA
ATOM      5  N   UNL     1       4.549   3.881  16.665  0.00  0.00    +0.000 N 
ATOM      6  C   UNL     1       4.209   4.267  18.012  0.00  0.00    +0.000 C 
ATOM      7  C   UNL     1       5.207   3.699  19.047  0.00  0.00    +0.000 C 
ATOM      8  C   UNL     1       4.396   3.101  20.203  0.00  0.00    +0.000 C 
ATOM      9  C   UNL     1       3.001   3.060  19.669  0.00  0.00    +0.000 A 
ATOM     10  C   UNL     1       1.913   2.443  20.265  0.00  0.00    +0.000 A 
ATOM     11  C   UNL     1       0.683   2.487  19.611  0.00  0.00    +0.000 A 
ATOM     12  C   UNL     1       0.557   3.149  18.383  0.00  0.00    +0.000 A 
ATOM     13  C   UNL     1       1.659   3.787  17.798  0.00  0.00    +0.000 A 
ATOM     14  C   UNL     1       2.882   3.742  18.453  0.00  0.00    +0.000 A 
ATOM     15  C   UNL     1       4.460   5.774  17.930  0.00  0.00    +0.000 C 
ATOM     16  O   UNL     1       4.154   6.615  18.761  0.00  0.00    +0.000 OA
ATOM     17  H   UNL     1       4.510   2.938  16.304  0.00  0.00    +0.000 HD
ENDBRANCH   1   2
BRANCH   1  19
ATOM     18  O   UNL     1       7.673   6.350  18.003  0.00  0.00    +0.000 OA
ATOM     19  C   UNL     1       7.221   7.307  17.382  0.00  0.00    +0.000 C 
ATOM     20  N   UNL     1       7.741   8.582  17.521  0.00  0.00    +0.000 N 
ATOM     21  H   UNL     1       7.175   9.352  17.160  0.00  0.00    +0.000 HD
BRANCH  20  22
ATOM     22  C   UNL     1       8.702   8.919  18.561  0.00  0.00    +0.000 C 
BRANCH  22  23
ATOM     23  C   UNL     1       8.993  10.414  18.800  0.00  0.00    +0.000 C 
ATOM     24  C   UNL     1       9.385  10.701  20.262  0.00  0.00    +0.000 C 
ATOM     25  O   UNL     1      10.432  11.646  20.500  0.00  0.00    +0.000 OA
ATOM     26  C   UNL     1      10.690  12.452  19.433  0.00  0.00    +0.000 A 
ATOM     27  C   UNL     1      11.225  13.712  19.692  0.00  0.00    +0.000 A 
ATOM     28  C   UNL     1      11.502  14.578  18.633  0.00  0.00    +0.000 A 
ATOM     29  C   UNL     1      11.288  14.162  17.317  0.00  0.00    +0.000 A 
ATOM     30  C   UNL     1      10.797  12.880  17.061  0.00  0.00    +0.000 A 
ATOM     31  C   UNL     1      10.478  12.039  18.124  0.00  0.00    +0.000 A 
ATOM     32  O   UNL     1       9.999  10.792  17.844  0.00  0.00    +0.000 OA
ENDBRANCH  22  23
ENDBRANCH  20  22
ENDBRANCH   1  19
TORSDOF 4
ENDMDL
MODEL 3
REMARK VINA RESULT:      -8.7      1.590      2.207
REMARK  Name = 
REMARK  4 active torsions:
REMARK  status: ('A' for Active; 'I' for Inactive)
REMARK    1  A    between atoms: C_2  and  C_3
REMARK    2  A    between atoms: C_3  and  N_4
REMARK    3  A    between atoms: N_19  and  C_20
REMARK    4  A    between atoms: C_20  and  C_21
REMARK                            x       y       z     vdW  Elec       q    Type
REMARK                         _______ _______ _______ _____ _____    ______ ____
ROOT
ATOM      1  C   UNL     1       7.826   6.199  18.543  0.00  0.00    +0.000 C 
ENDROOT
BRANCH   1   2
ATOM      2  N   UNL     1       6.738   5.292  18.249  0.00  0.00    +0.000 N 
ATOM      3  C   UNL     1       6.739   4.415  17.210  0.00  0.00    +0.000 C 
ATOM      4  O   UNL     1       7.606   4.297  16.361  0.00  0.00    +0.000 OA
ATOM      5  N   UNL     1       5.617   3.634  17.296  0.00  0.00    +0.000 N 
ATOM      6  C   UNL     1       4.923   3.854  18.540  0.00  0.00    +0.000 C 
ATOM      7  C   UNL     1       5.277   2.785  19.599  0.00  0.00    +0.000 C 
ATOM      8  C   UNL     1       3.969   2.308  20.241  0.00  0.00    +0.000 C 
ATOM      9  C   UNL     1       2.913   2.867  19.345  0.00  0.00    +0.000 A 
ATOM     10  C   UNL     1       1.559   2.577  19.392  0.00  0.00    +0.000 A 
ATOM     11  C   UNL     1       0.716   3.177  18.458  0.00  0.00    +0.000 A 
ATOM     12  C   UNL     1       1.235   4.059  17.501  0.00  0.00    +0.000 A 
ATOM     13  C   UNL     1       2.602   4.362  17.474  0.00  0.00    +0.000 A 
ATOM     14  C   UNL     1       3.438   3.762  18.406  0.00  0.00    +0.000 A 
ATOM     15  C   UNL     1       5.583   5.160  18.987  0.00  0.00    +0.000 C 
ATOM     16  O   UNL     1       5.232   5.883  19.908  0.00  0.00    +0.000 OA
ATOM     17  H   UNL     1       5.460   2.852  16.675  0.00  0.00    +0.000 HD
ENDBRANCH   1   2
BRANCH   1  19
ATOM     18  O   UNL     1       6.970   7.636  16.781  0.00  0.00    +0.000 OA
ATOM     19  C   UNL     1       7.625   7.542  17.814  0.00  0.00    +0.000 C 
ATOM     20  N   UNL     1       8.331   8.613  18.334  0.00  0.00    +0.000 N 
ATOM     21  H   UNL     1       9.027   8.401  19.052  0.00  0.00    +0.000 HD
BRANCH  20  22
ATOM     22  C   UNL     1       8.526   9.848  17.590  0.00  0.00    +0.000 C 
BRANCH  22  23
ATOM     23  C   UNL     1       8.972  11.092  18.385  0.00  0.00    +0.000 C 
ATOM     24  C   UNL     1       9.690  10.713  19.694  0.00  0.00    +0.000 C 
ATOM     25  O   UNL     1      10.832  11.486  20.077  0.00  0.00    +0.000 OA
ATOM     26  C   UNL     1      10.915  12.687  19.442  0.00  0.00    +0.000 A 
ATOM     27  C   UNL     1      11.586  13.718  20.097  0.00  0.00    +0.000 A 
ATOM     28  C   UNL     1      11.693  14.970  19.490  0.00  0.00    +0.000 A 
ATOM     29  C   UNL     1      11.170  15.172  18.211  0.00  0.00    +0.000 A 
ATOM     30  C   UNL     1      10.540  14.123  17.539  0.00  0.00    +0.000 A 
ATOM     31  C   UNL     1      10.395  12.890  18.169  0.00  0.00    +0.000 A 
ATOM     32  O   UNL     1       9.775  11.882  17.490  0.00  0.00    +0.000 OA
ENDBRANCH  22  23
ENDBRANCH  20  22
ENDBRANCH   1  19
TORSDOF 4
ENDMDL
MODEL 4
REMARK VINA RESULT:      -8.7      1.082      1.377
REMARK  Name = 
REMARK  4 active torsions:
REMARK  status: ('A' for Active; 'I' for Inactive)
REMARK    1  A    between atoms: C_2  and  C_3
REMARK    2  A    between atoms: C_3  and  N_4
REMARK    3  A    between atoms: N_19  and  C_20
REMARK    4  A    between atoms: C_20  and  C_21
REMARK                            x       y       z     vdW  Elec       q    Type
REMARK                         _______ _______ _______ _____ _____    ______ ____
ROOT
ATOM      1  C   UNL     1       6.755   6.491  16.972  0.00  0.00    +0.000 C 
ENDROOT
BRANCH   1   2
ATOM      2  N   UNL     1       5.476   6.089  17.516  0.00  0.00    +0.000 N 
ATOM      3  C   UNL     1       4.364   6.872  17.503  0.00  0.00    +0.000 C 
ATOM      4  O   UNL     1       4.288   8.017  17.091  0.00  0.00    +0.000 OA
ATOM      5  N   UNL     1       3.310   6.142  17.986  0.00  0.00    +0.000 N 
ATOM      6  C   UNL     1       3.670   4.757  18.157  0.00  0.00    +0.000 C 
ATOM      7  C   UNL     1       3.219   3.889  16.960  0.00  0.00    +0.000 C 
ATOM      8  C   UNL     1       2.549   2.628  17.519  0.00  0.00    +0.000 C 
ATOM      9  C   UNL     1       2.359   2.944  18.966  0.00  0.00    +0.000 A 
ATOM     10  C   UNL     1       1.636   2.195  19.881  0.00  0.00    +0.000 A 
ATOM     11  C   UNL     1       1.545   2.654  21.193  0.00  0.00    +0.000 A 
ATOM     12  C   UNL     1       2.180   3.844  21.573  0.00  0.00    +0.000 A 
ATOM     13  C   UNL     1       2.924   4.585  20.646  0.00  0.00    +0.000 A 
ATOM     14  C   UNL     1       3.013   4.123  19.339  0.00  0.00    +0.000 A 
ATOM     15  C   UNL     1       5.194   4.866  18.080  0.00  0.00    +0.000 C 
ATOM     16  O   UNL     1       6.006   3.991  18.344  0.00  0.00    +0.000 OA
ATOM     17  H   UNL     1       2.365   6.500  17.981  0.00  0.00    +0.000 HD
ENDBRANCH   1   2
BRANCH   1  19
ATOM     18  O   UNL     1       7.959   6.207  19.063  0.00  0.00    +0.000 OA
ATOM     19  C   UNL     1       7.712   6.925  18.099  0.00  0.00    +0.000 C 
ATOM     20  N   UNL     1       8.181   8.225  18.014  0.00  0.00    +0.000 N 
ATOM     21  H   UNL     1       7.748   8.825  17.309  0.00  0.00    +0.000 HD
BRANCH  20  22
ATOM     22  C   UNL     1       8.805   8.899  19.143  0.00  0.00    +0.000 C 
BRANCH  22  23
ATOM     23  C   UNL     1       8.986  10.427  19.043  0.00  0.00    +0.000 C 
ATOM     24  C   UNL     1       9.201  11.075  20.424  0.00  0.00    +0.000 C 
ATOM     25  O   UNL     1      10.164  12.129  20.524  0.00  0.00    +0.000 OA
ATOM     26  C   UNL     1      10.492  12.683  19.324  0.00  0.00    +0.000 A 
ATOM     27  C   UNL     1      10.927  14.007  19.323  0.00  0.00    +0.000 A 
ATOM     28  C   UNL     1      11.269  14.622  18.118  0.00  0.00    +0.000 A 
ATOM     29  C   UNL     1      11.222  13.896  16.926  0.00  0.00    +0.000 A 
ATOM     30  C   UNL     1      10.832  12.555  16.939  0.00  0.00    +0.000 A 
ATOM     31  C   UNL     1      10.446  11.962  18.138  0.00  0.00    +0.000 A 
ATOM     32  O   UNL     1      10.068  10.650  18.122  0.00  0.00    +0.000 OA
ENDBRANCH  22  23
ENDBRANCH  20  22
ENDBRANCH   1  19
TORSDOF 4
ENDMDL
MODEL 5
REMARK VINA RESULT:      -8.4      5.799      9.754
REMARK  Name = 
REMARK  4 active torsions:
REMARK  status: ('A' for Active; 'I' for Inactive)
REMARK    1  A    between atoms: C_2  and  C_3
REMARK    2  A    between atoms: C_3  and  N_4
REMARK    3  A    between atoms: N_19  and  C_20
REMARK    4  A    between atoms: C_20  and  C_21
REMARK                            x       y       z     vdW  Elec       q    Type
REMARK                         _______ _______ _______ _____ _____    ______ ____
ROOT
ATOM      1  C   UNL     1      -0.342  10.357  21.246  0.00  0.00    +0.000 C 
ENDROOT
BRANCH   1   2
ATOM      2  N   UNL     1       0.155  11.264  20.236  0.00  0.00    +0.000 N 
ATOM      3  C   UNL     1       0.080  11.028  18.898  0.00  0.00    +0.000 C 
ATOM      4  O   UNL     1      -0.356  10.024  18.362  0.00  0.00    +0.000 OA
ATOM      5  N   UNL     1       0.533  12.137  18.233  0.00  0.00    +0.000 N 
ATOM      6  C   UNL     1       0.745  13.238  19.138  0.00  0.00    +0.000 C 
ATOM      7  C   UNL     1      -0.453  14.215  19.155  0.00  0.00    +0.000 C 
ATOM      8  C   UNL     1       0.101  15.641  19.058  0.00  0.00    +0.000 C 
ATOM      9  C   UNL     1       1.533  15.437  18.685  0.00  0.00    +0.000 A 
ATOM     10  C   UNL     1       2.430  16.423  18.308  0.00  0.00    +0.000 A 
ATOM     11  C   UNL     1       3.729  16.047  17.970  0.00  0.00    +0.000 A 
ATOM     12  C   UNL     1       4.112  14.700  18.022  0.00  0.00    +0.000 A 
ATOM     13  C   UNL     1       3.203  13.713  18.423  0.00  0.00    +0.000 A 
ATOM     14  C   UNL     1       1.910  14.092  18.759  0.00  0.00    +0.000 A 
ATOM     15  C   UNL     1       0.730  12.492  20.474  0.00  0.00    +0.000 C 
ATOM     16  O   UNL     1       1.044  12.939  21.568  0.00  0.00    +0.000 OA
ATOM     17  H   UNL     1       0.482  12.215  17.227  0.00  0.00    +0.000 HD
ENDBRANCH   1   2
BRANCH   1  19
ATOM     18  O   UNL     1       1.606   9.516  22.428  0.00  0.00    +0.000 OA
ATOM     19  C   UNL     1       0.724   9.303  21.602  0.00  0.00    +0.000 C 
ATOM     20  N   UNL     1       0.694   8.146  20.843  0.00  0.00    +0.000 N 
ATOM     21  H   UNL     1       0.077   8.146  20.029  0.00  0.00    +0.000 HD
BRANCH  20  22
ATOM     22  C   UNL     1       1.810   7.212  20.809  0.00  0.00    +0.000 C 
BRANCH  22  23
ATOM     23  C   UNL     1       2.303   6.746  19.424  0.00  0.00    +0.000 C 
ATOM     24  C   UNL     1       2.445   7.920  18.437  0.00  0.00    +0.000 C 
ATOM     25  O   UNL     1       3.573   7.919  17.557  0.00  0.00    +0.000 OA
ATOM     26  C   UNL     1       4.170   6.701  17.438  0.00  0.00    +0.000 A 
ATOM     27  C   UNL     1       4.855   6.432  16.255  0.00  0.00    +0.000 A 
ATOM     28  C   UNL     1       5.479   5.195  16.082  0.00  0.00    +0.000 A 
ATOM     29  C   UNL     1       5.457   4.253  17.113  0.00  0.00    +0.000 A 
ATOM     30  C   UNL     1       4.811   4.547  18.315  0.00  0.00    +0.000 A 
ATOM     31  C   UNL     1       4.150   5.763  18.463  0.00  0.00    +0.000 A 
ATOM     32  O   UNL     1       3.526   6.024  19.649  0.00  0.00    +0.000 OA
ENDBRANCH  22  23
ENDBRANCH  20  22
ENDBRANCH   1  19
TORSDOF 4
ENDMDL
MODEL 6
REMARK VINA RESULT:      -8.4      6.028     10.841
REMARK  Name = 
REMARK  4 active torsions:
REMARK  status: ('A' for Active; 'I' for Inactive)
REMARK    1  A    between atoms: C_2  and  C_3
REMARK    2  A    between atoms: C_3  and  N_4
REMARK    3  A    between atoms: N_19  and  C_20
REMARK    4  A    between atoms: C_20  and  C_21
REMARK                            x       y       z     vdW  Elec       q    Type
REMARK                         _______ _______ _______ _____ _____    ______ ____
ROOT
ATOM      1  C   UNL     1      -0.383  10.761  21.308  0.00  0.00    +0.000 C 
ENDROOT
BRANCH   1   2
ATOM      2  N   UNL     1       0.085  11.660  20.276  0.00  0.00    +0.000 N 
ATOM      3  C   UNL     1      -0.054  11.425  18.943  0.00  0.00    +0.000 C 
ATOM      4  O   UNL     1      -0.533  10.429  18.428  0.00  0.00    +0.000 OA
ATOM      5  N   UNL     1       0.388  12.526  18.257  0.00  0.00    +0.000 N 
ATOM      6  C   UNL     1       0.660  13.623  19.152  0.00  0.00    +0.000 C 
ATOM      7  C   UNL     1      -0.518  14.621  19.222  0.00  0.00    +0.000 C 
ATOM      8  C   UNL     1       0.057  16.037  19.099  0.00  0.00    +0.000 C 
ATOM      9  C   UNL     1       1.467  15.807  18.662  0.00  0.00    +0.000 A 
ATOM     10  C   UNL     1       2.364  16.776  18.244  0.00  0.00    +0.000 A 
ATOM     11  C   UNL     1       3.640  16.377  17.849  0.00  0.00    +0.000 A 
ATOM     12  C   UNL     1       4.000  15.023  17.883  0.00  0.00    +0.000 A 
ATOM     13  C   UNL     1       3.092  14.053  18.326  0.00  0.00    +0.000 A 
ATOM     14  C   UNL     1       1.823  14.455  18.720  0.00  0.00    +0.000 A 
ATOM     15  C   UNL     1       0.693  12.877  20.488  0.00  0.00    +0.000 C 
ATOM     16  O   UNL     1       1.063  13.318  21.566  0.00  0.00    +0.000 OA
ATOM     17  H   UNL     1       0.293  12.605  17.254  0.00  0.00    +0.000 HD
ENDBRANCH   1   2
BRANCH   1  19
ATOM     18  O   UNL     1       1.536   9.870  22.503  0.00  0.00    +0.000 OA
ATOM     19  C   UNL     1       0.688   9.701  21.632  0.00  0.00    +0.000 C 
ATOM     20  N   UNL     1       0.706   8.599  20.795  0.00  0.00    +0.000 N 
ATOM     21  H   UNL     1       0.120   8.646  19.959  0.00  0.00    +0.000 HD
BRANCH  20  22
ATOM     22  C   UNL     1       1.839   7.686  20.740  0.00  0.00    +0.000 C 
BRANCH  22  23
ATOM     23  C   UNL     1       1.808   6.583  19.663  0.00  0.00    +0.000 C 
ATOM     24  C   UNL     1       2.937   6.752  18.629  0.00  0.00    +0.000 C 
ATOM     25  O   UNL     1       3.604   5.573  18.170  0.00  0.00    +0.000 OA
ATOM     26  C   UNL     1       2.911   4.426  18.412  0.00  0.00    +0.000 A 
ATOM     27  C   UNL     1       3.134   3.346  17.561  0.00  0.00    +0.000 A 
ATOM     28  C   UNL     1       2.444   2.150  17.763  0.00  0.00    +0.000 A 
ATOM     29  C   UNL     1       1.571   2.024  18.845  0.00  0.00    +0.000 A 
ATOM     30  C   UNL     1       1.388   3.093  19.725  0.00  0.00    +0.000 A 
ATOM     31  C   UNL     1       2.043   4.299  19.489  0.00  0.00    +0.000 A 
ATOM     32  O   UNL     1       1.845   5.328  20.364  0.00  0.00    +0.000 OA
ENDBRANCH  22  23
ENDBRANCH  20  22
ENDBRANCH   1  19
TORSDOF 4
ENDMDL
MODEL 7
REMARK VINA RESULT:      -8.3      5.198      8.478
REMARK  Name = 
REMARK  4 active torsions:
REMARK  status: ('A' for Active; 'I' for Inactive)
REMARK    1  A    between atoms: C_2  and  C_3
REMARK    2  A    between atoms: C_3  and  N_4
REMARK    3  A    between atoms: N_19  and  C_20
REMARK    4  A    between atoms: C_20  and  C_21
REMARK                            x       y       z     vdW  Elec       q    Type
REMARK                         _______ _______ _______ _____ _____    ______ ____
ROOT
ATOM      1  C   UNL     1       2.220   7.053  19.708  0.00  0.00    +0.000 C 
ENDROOT
BRANCH   1   2
ATOM      2  N   UNL     1       1.894   8.361  19.186  0.00  0.00    +0.000 N 
ATOM      3  C   UNL     1       2.319   8.827  17.980  0.00  0.00    +0.000 C 
ATOM      4  O   UNL     1       3.059   8.252  17.200  0.00  0.00    +0.000 OA
ATOM      5  N   UNL     1       1.733  10.044  17.750  0.00  0.00    +0.000 N 
ATOM      6  C   UNL     1       0.727  10.333  18.742  0.00  0.00    +0.000 C 
ATOM      7  C   UNL     1      -0.695   9.990  18.243  0.00  0.00    +0.000 C 
ATOM      8  C   UNL     1      -1.611  11.171  18.583  0.00  0.00    +0.000 C 
ATOM      9  C   UNL     1      -0.658  12.254  18.971  0.00  0.00    +0.000 A 
ATOM     10  C   UNL     1      -0.977  13.583  19.202  0.00  0.00    +0.000 A 
ATOM     11  C   UNL     1       0.049  14.465  19.536  0.00  0.00    +0.000 A 
ATOM     12  C   UNL     1       1.370  14.008  19.641  0.00  0.00    +0.000 A 
ATOM     13  C   UNL     1       1.679  12.659  19.425  0.00  0.00    +0.000 A 
ATOM     14  C   UNL     1       0.654  11.783  19.094  0.00  0.00    +0.000 A 
ATOM     15  C   UNL     1       1.091   9.294  19.804  0.00  0.00    +0.000 C 
ATOM     16  O   UNL     1       0.654   9.224  20.943  0.00  0.00    +0.000 OA
ATOM     17  H   UNL     1       1.838  10.530  16.871  0.00  0.00    +0.000 HD
ENDBRANCH   1   2
BRANCH   1  19
ATOM     18  O   UNL     1       1.832   5.459  17.916  0.00  0.00    +0.000 OA
ATOM     19  C   UNL     1       2.645   6.104  18.570  0.00  0.00    +0.000 C 
ATOM     20  N   UNL     1       4.010   5.936  18.415  0.00  0.00    +0.000 N 
ATOM     21  H   UNL     1       4.609   6.328  19.144  0.00  0.00    +0.000 HD
BRANCH  20  22
ATOM     22  C   UNL     1       4.573   4.842  17.636  0.00  0.00    +0.000 C 
BRANCH  22  23
ATOM     23  C   UNL     1       5.140   5.183  16.243  0.00  0.00    +0.000 C 
ATOM     24  C   UNL     1       6.453   5.983  16.334  0.00  0.00    +0.000 C 
ATOM     25  O   UNL     1       7.494   5.664  15.405  0.00  0.00    +0.000 OA
ATOM     26  C   UNL     1       7.061   4.963  14.321  0.00  0.00    +0.000 A 
ATOM     27  C   UNL     1       7.788   5.090  13.139  0.00  0.00    +0.000 A 
ATOM     28  C   UNL     1       7.381   4.397  11.998  0.00  0.00    +0.000 A 
ATOM     29  C   UNL     1       6.279   3.542  12.057  0.00  0.00    +0.000 A 
ATOM     30  C   UNL     1       5.583   3.381  13.257  0.00  0.00    +0.000 A 
ATOM     31  C   UNL     1       5.964   4.112  14.379  0.00  0.00    +0.000 A 
ATOM     32  O   UNL     1       5.266   3.936  15.538  0.00  0.00    +0.000 OA
ENDBRANCH  22  23
ENDBRANCH  20  22
ENDBRANCH   1  19
TORSDOF 4
ENDMDL
MODEL 8
REMARK VINA RESULT:      -8.3      1.584      2.620
REMARK  Name = 
REMARK  4 active torsions:
REMARK  status: ('A' for Active; 'I' for Inactive)
REMARK    1  A    between atoms: C_2  and  C_3
REMARK    2  A    between atoms: C_3  and  N_4
REMARK    3  A    between atoms: N_19  and  C_20
REMARK    4  A    between atoms: C_20  and  C_21
REMARK                            x       y       z     vdW  Elec       q    Type
REMARK                         _______ _______ _______ _____ _____    ______ ____
ROOT
ATOM      1  C   UNL     1       7.799   6.651  17.554  0.00  0.00    +0.000 C 
ENDROOT
BRANCH   1   2
ATOM      2  N   UNL     1       6.737   5.880  18.161  0.00  0.00    +0.000 N 
ATOM      3  C   UNL     1       6.779   5.396  19.433  0.00  0.00    +0.000 C 
ATOM      4  O   UNL     1       7.709   5.491  20.214  0.00  0.00    +0.000 OA
ATOM      5  N   UNL     1       5.569   4.820  19.721  0.00  0.00    +0.000 N 
ATOM      6  C   UNL     1       4.605   5.086  18.683  0.00  0.00    +0.000 C 
ATOM      7  C   UNL     1       3.684   6.276  19.038  0.00  0.00    +0.000 C 
ATOM      8  C   UNL     1       2.240   5.863  18.732  0.00  0.00    +0.000 C 
ATOM      9  C   UNL     1       2.337   4.388  18.514  0.00  0.00    +0.000 A 
ATOM     10  C   UNL     1       1.275   3.508  18.376  0.00  0.00    +0.000 A 
ATOM     11  C   UNL     1       1.551   2.153  18.200  0.00  0.00    +0.000 A 
ATOM     12  C   UNL     1       2.877   1.701  18.159  0.00  0.00    +0.000 A 
ATOM     13  C   UNL     1       3.943   2.600  18.280  0.00  0.00    +0.000 A 
ATOM     14  C   UNL     1       3.664   3.949  18.454  0.00  0.00    +0.000 A 
ATOM     15  C   UNL     1       5.537   5.561  17.566  0.00  0.00    +0.000 C 
ATOM     16  O   UNL     1       5.243   5.748  16.395  0.00  0.00    +0.000 OA
ATOM     17  H   UNL     1       5.348   4.476  20.644  0.00  0.00    +0.000 HD
ENDBRANCH   1   2
BRANCH   1  19
ATOM     18  O   UNL     1       6.449   8.610  17.062  0.00  0.00    +0.000 OA
ATOM     19  C   UNL     1       7.463   8.155  17.583  0.00  0.00    +0.000 C 
ATOM     20  N   UNL     1       8.437   8.972  18.129  0.00  0.00    +0.000 N 
ATOM     21  H   UNL     1       9.341   8.541  18.329  0.00  0.00    +0.000 HD
BRANCH  20  22
ATOM     22  C   UNL     1       8.439  10.415  17.933  0.00  0.00    +0.000 C 
BRANCH  22  23
ATOM     23  C   UNL     1       9.564  11.221  18.612  0.00  0.00    +0.000 C 
ATOM     24  C   UNL     1      10.790  11.387  17.695  0.00  0.00    +0.000 C 
ATOM     25  O   UNL     1      11.459  12.652  17.698  0.00  0.00    +0.000 OA
ATOM     26  C   UNL     1      11.165  13.421  18.783  0.00  0.00    +0.000 A 
ATOM     27  C   UNL     1      12.120  14.349  19.194  0.00  0.00    +0.000 A 
ATOM     28  C   UNL     1      11.869  15.157  20.304  0.00  0.00    +0.000 A 
ATOM     29  C   UNL     1      10.644  15.067  20.968  0.00  0.00    +0.000 A 
ATOM     30  C   UNL     1       9.671  14.170  20.523  0.00  0.00    +0.000 A 
ATOM     31  C   UNL     1       9.947  13.334  19.444  0.00  0.00    +0.000 A 
ATOM     32  O   UNL     1       8.978  12.466  19.031  0.00  0.00    +0.000 OA
ENDBRANCH  22  23
ENDBRANCH  20  22
ENDBRANCH   1  19
TORSDOF 4
ENDMDL
MODEL 9
REMARK VINA RESULT:      -8.3      6.655      9.924
REMARK  Name = 
REMARK  4 active torsions:
REMARK  status: ('A' for Active; 'I' for Inactive)
REMARK    1  A    between atoms: C_2  and  C_3
REMARK    2  A    between atoms: C_3  and  N_4
REMARK    3  A    between atoms: N_19  and  C_20
REMARK    4  A    between atoms: C_20  and  C_21
REMARK                            x       y       z     vdW  Elec       q    Type
REMARK                         _______ _______ _______ _____ _____    ______ ____
ROOT
ATOM      1  C   UNL     1       1.344  11.172  19.570  0.00  0.00    +0.000 C 
ENDROOT
BRANCH   1   2
ATOM      2  N   UNL     1       0.048  11.644  19.133  0.00  0.00    +0.000 N 
ATOM      3  C   UNL     1      -0.170  12.871  18.588  0.00  0.00    +0.000 C 
ATOM      4  O   UNL     1       0.656  13.755  18.436  0.00  0.00    +0.000 OA
ATOM      5  N   UNL     1      -1.477  12.942  18.182  0.00  0.00    +0.000 N 
ATOM      6  C   UNL     1      -2.123  11.657  18.277  0.00  0.00    +0.000 C 
ATOM      7  C   UNL     1      -2.147  10.918  16.920  0.00  0.00    +0.000 C 
ATOM      8  C   UNL     1      -3.562  10.368  16.708  0.00  0.00    +0.000 C 
ATOM      9  C   UNL     1      -4.367  11.053  17.764  0.00  0.00    +0.000 A 
ATOM     10  C   UNL     1      -5.746  11.030  17.888  0.00  0.00    +0.000 A 
ATOM     11  C   UNL     1      -6.333  11.748  18.928  0.00  0.00    +0.000 A 
ATOM     12  C   UNL     1      -5.537  12.469  19.828  0.00  0.00    +0.000 A 
ATOM     13  C   UNL     1      -4.142  12.472  19.706  0.00  0.00    +0.000 A 
ATOM     14  C   UNL     1      -3.561  11.753  18.669  0.00  0.00    +0.000 A 
ATOM     15  C   UNL     1      -1.122  10.920  19.169  0.00  0.00    +0.000 C 
ATOM     16  O   UNL     1      -1.280   9.834  19.707  0.00  0.00    +0.000 OA
ATOM     17  H   UNL     1      -1.834  13.735  17.667  0.00  0.00    +0.000 HD
ENDBRANCH   1   2
BRANCH   1  19
ATOM     18  O   UNL     1       2.359  10.875  17.383  0.00  0.00    +0.000 OA
ATOM     19  C   UNL     1       2.034  10.367  18.452  0.00  0.00    +0.000 C 
ATOM     20  N   UNL     1       2.155   9.008  18.684  0.00  0.00    +0.000 N 
ATOM     21  H   UNL     1       1.656   8.633  19.493  0.00  0.00    +0.000 HD
BRANCH  20  22
ATOM     22  C   UNL     1       2.463   8.064  17.620  0.00  0.00    +0.000 C 
BRANCH  22  23
ATOM     23  C   UNL     1       2.511   6.568  17.993  0.00  0.00    +0.000 C 
ATOM     24  C   UNL     1       3.864   5.926  17.633  0.00  0.00    +0.000 C 
ATOM     25  O   UNL     1       4.424   4.988  18.557  0.00  0.00    +0.000 OA
ATOM     26  C   UNL     1       3.520   4.495  19.448  0.00  0.00    +0.000 A 
ATOM     27  C   UNL     1       3.762   3.230  19.979  0.00  0.00    +0.000 A 
ATOM     28  C   UNL     1       2.862   2.677  20.892  0.00  0.00    +0.000 A 
ATOM     29  C   UNL     1       1.750   3.413  21.306  0.00  0.00    +0.000 A 
ATOM     30  C   UNL     1       1.538   4.700  20.808  0.00  0.00    +0.000 A 
ATOM     31  C   UNL     1       2.413   5.226  19.861  0.00  0.00    +0.000 A 
ATOM     32  O   UNL     1       2.181   6.486  19.390  0.00  0.00    +0.000 OA
ENDBRANCH  22  23
ENDBRANCH  20  22
ENDBRANCH   1  19
TORSDOF 4
ENDMDL
