MODEL 1
REMARK VINA RESULT:      -9.6      0.000      0.000
REMARK  Name = 
REMARK  2 active torsions:
REMARK  status: ('A' for Active; 'I' for Inactive)
REMARK    1  A    between atoms: C_2  and  C_3
REMARK    2  A    between atoms: C_16  and  C_17
REMARK                            x       y       z     vdW  Elec       q    Type
REMARK                         _______ _______ _______ _____ _____    ______ ____
ROOT
ATOM      1  O   UNL     1       1.443   6.711  21.200  0.00  0.00    +0.000 OA
ATOM      2  C   UNL     1       1.653   7.389  20.200  0.00  0.00    +0.000 C 
ATOM      3  N   UNL     1       1.122   8.659  19.993  0.00  0.00    +0.000 N 
ATOM      4  C   UNL     1       1.129   9.390  18.717  0.00  0.00    +0.000 C 
ATOM      5  C   UNL     1       0.248  10.651  18.921  0.00  0.00    +0.000 C 
ATOM      6  C   UNL     1       0.165  10.733  20.455  0.00  0.00    +0.000 C 
ATOM      7  C   UNL     1      -0.958  11.513  21.127  0.00  0.00    +0.000 C 
ATOM      8  C   UNL     1      -0.768  11.453  22.647  0.00  0.00    +0.000 C 
ATOM      9  C   UNL     1      -0.636  10.017  23.160  0.00  0.00    +0.000 C 
ATOM     10  C   UNL     1       0.435   9.214  22.409  0.00  0.00    +0.000 C 
ATOM     11  C   UNL     1       0.165   9.267  20.903  0.00  0.00    +0.000 C 
ENDROOT
BRANCH   2  12
ATOM     12  C   UNL     1       2.557   6.785  19.124  0.00  0.00    +0.000 A 
ATOM     13  N   UNL     1       3.393   7.593  18.538  0.00  0.00    +0.000 NA
ATOM     14  N   UNL     1       4.187   7.107  17.549  0.00  0.00    +0.000 N 
ATOM     15  C   UNL     1       4.141   5.839  17.027  0.00  0.00    +0.000 A 
ATOM     16  O   UNL     1       4.850   5.488  16.093  0.00  0.00    +0.000 OA
ATOM     17  C   UNL     1       3.192   4.912  17.667  0.00  0.00    +0.000 A 
ATOM     18  C   UNL     1       3.087   3.596  17.198  0.00  0.00    +0.000 A 
ATOM     19  C   UNL     1       2.199   2.713  17.808  0.00  0.00    +0.000 A 
ATOM     20  C   UNL     1       1.429   3.143  18.887  0.00  0.00    +0.000 A 
ATOM     21  C   UNL     1       1.535   4.460  19.355  0.00  0.00    +0.000 A 
ATOM     22  C   UNL     1       2.413   5.357  18.738  0.00  0.00    +0.000 A 
ATOM     23  H   UNL     1       4.829   7.763  17.115  0.00  0.00    +0.000 HD
ENDBRANCH   2  12
BRANCH   5  24
ATOM     24  C   UNL     1      -1.083  10.680  18.186  0.00  0.00    +0.000 A 
ATOM     25  C   UNL     1      -2.085  11.627  18.427  0.00  0.00    +0.000 A 
ATOM     26  C   UNL     1      -3.303  11.573  17.738  0.00  0.00    +0.000 A 
ATOM     27  C   UNL     1      -3.530  10.582  16.785  0.00  0.00    +0.000 A 
ATOM     28  C   UNL     1      -2.540   9.644  16.517  0.00  0.00    +0.000 A 
ATOM     29  C   UNL     1      -1.329   9.692  17.213  0.00  0.00    +0.000 A 
ENDBRANCH   5  24
TORSDOF 2
ENDMDL
MODEL 2
REMARK VINA RESULT:      -9.5      2.584      7.552
REMARK  Name = 
REMARK  2 active torsions:
REMARK  status: ('A' for Active; 'I' for Inactive)
REMARK    1  A    between atoms: C_2  and  C_3
REMARK    2  A    between atoms: C_16  and  C_17
REMARK                            x       y       z     vdW  Elec       q    Type
REMARK                         _______ _______ _______ _____ _____    ______ ____
ROOT
ATOM      1  O   UNL     1       1.151   7.257  21.332  0.00  0.00    +0.000 OA
ATOM      2  C   UNL     1       1.537   7.459  20.186  0.00  0.00    +0.000 C 
ATOM      3  N   UNL     1       2.046   6.473  19.348  0.00  0.00    +0.000 N 
ATOM      4  C   UNL     1       2.756   6.710  18.082  0.00  0.00    +0.000 C 
ATOM      5  C   UNL     1       3.312   5.337  17.618  0.00  0.00    +0.000 C 
ATOM      6  C   UNL     1       2.488   4.359  18.472  0.00  0.00    +0.000 C 
ATOM      7  C   UNL     1       2.986   2.940  18.718  0.00  0.00    +0.000 C 
ATOM      8  C   UNL     1       1.952   2.187  19.564  0.00  0.00    +0.000 C 
ATOM      9  C   UNL     1       1.596   2.936  20.849  0.00  0.00    +0.000 C 
ATOM     10  C   UNL     1       1.187   4.393  20.594  0.00  0.00    +0.000 C 
ATOM     11  C   UNL     1       2.278   5.107  19.793  0.00  0.00    +0.000 C 
ENDROOT
BRANCH   2  12
ATOM     12  C   UNL     1       1.446   8.895  19.663  0.00  0.00    +0.000 A 
ATOM     13  N   UNL     1       2.039   9.146  18.531  0.00  0.00    +0.000 NA
ATOM     14  N   UNL     1       2.016  10.415  18.050  0.00  0.00    +0.000 N 
ATOM     15  C   UNL     1       1.494  11.511  18.688  0.00  0.00    +0.000 A 
ATOM     16  O   UNL     1       1.562  12.639  18.218  0.00  0.00    +0.000 OA
ATOM     17  C   UNL     1       0.829  11.251  19.977  0.00  0.00    +0.000 A 
ATOM     18  C   UNL     1       0.264  12.316  20.691  0.00  0.00    +0.000 A 
ATOM     19  C   UNL     1      -0.376  12.072  21.905  0.00  0.00    +0.000 A 
ATOM     20  C   UNL     1      -0.457  10.770  22.393  0.00  0.00    +0.000 A 
ATOM     21  C   UNL     1       0.109   9.706  21.678  0.00  0.00    +0.000 A 
ATOM     22  C   UNL     1       0.767   9.945  20.466  0.00  0.00    +0.000 A 
ATOM     23  H   UNL     1       2.487  10.577  17.165  0.00  0.00    +0.000 HD
ENDBRANCH   2  12
BRANCH   5  24
ATOM     24  C   UNL     1       4.820   5.156  17.679  0.00  0.00    +0.000 A 
ATOM     25  C   UNL     1       5.604   5.523  18.778  0.00  0.00    +0.000 A 
ATOM     26  C   UNL     1       6.995   5.361  18.753  0.00  0.00    +0.000 A 
ATOM     27  C   UNL     1       7.620   4.812  17.635  0.00  0.00    +0.000 A 
ATOM     28  C   UNL     1       6.857   4.423  16.540  0.00  0.00    +0.000 A 
ATOM     29  C   UNL     1       5.470   4.595  16.562  0.00  0.00    +0.000 A 
ENDBRANCH   5  24
TORSDOF 2
ENDMDL
MODEL 3
REMARK VINA RESULT:      -9.3      1.919      7.401
REMARK  Name = 
REMARK  2 active torsions:
REMARK  status: ('A' for Active; 'I' for Inactive)
REMARK    1  A    between atoms: C_2  and  C_3
REMARK    2  A    between atoms: C_16  and  C_17
REMARK                            x       y       z     vdW  Elec       q    Type
REMARK                         _______ _______ _______ _____ _____    ______ ____
ROOT
ATOM      1  O   UNL     1       2.147   9.348  17.034  0.00  0.00    +0.000 OA
ATOM      2  C   UNL     1       1.946   8.955  18.179  0.00  0.00    +0.000 C 
ATOM      3  N   UNL     1       2.537   7.822  18.730  0.00  0.00    +0.000 N 
ATOM      4  C   UNL     1       2.132   7.172  19.985  0.00  0.00    +0.000 C 
ATOM      5  C   UNL     1       2.928   5.843  20.077  0.00  0.00    +0.000 C 
ATOM      6  C   UNL     1       4.044   6.073  19.045  0.00  0.00    +0.000 C 
ATOM      7  C   UNL     1       4.792   4.891  18.440  0.00  0.00    +0.000 C 
ATOM      8  C   UNL     1       5.865   5.417  17.479  0.00  0.00    +0.000 C 
ATOM      9  C   UNL     1       5.289   6.371  16.431  0.00  0.00    +0.000 C 
ATOM     10  C   UNL     1       4.459   7.504  17.050  0.00  0.00    +0.000 C 
ATOM     11  C   UNL     1       3.373   6.918  17.956  0.00  0.00    +0.000 C 
ENDROOT
BRANCH   2  12
ATOM     12  C   UNL     1       0.983   9.776  19.039  0.00  0.00    +0.000 A 
ATOM     13  N   UNL     1       1.400  10.117  20.224  0.00  0.00    +0.000 NA
ATOM     14  N   UNL     1       0.563  10.812  21.036  0.00  0.00    +0.000 N 
ATOM     15  C   UNL     1      -0.744  11.129  20.766  0.00  0.00    +0.000 A 
ATOM     16  O   UNL     1      -1.459  11.709  21.573  0.00  0.00    +0.000 OA
ATOM     17  C   UNL     1      -1.240  10.741  19.434  0.00  0.00    +0.000 A 
ATOM     18  C   UNL     1      -2.563  11.033  19.077  0.00  0.00    +0.000 A 
ATOM     19  C   UNL     1      -3.032  10.678  17.813  0.00  0.00    +0.000 A 
ATOM     20  C   UNL     1      -2.179  10.044  16.913  0.00  0.00    +0.000 A 
ATOM     21  C   UNL     1      -0.856   9.752  17.273  0.00  0.00    +0.000 A 
ATOM     22  C   UNL     1      -0.382  10.091  18.545  0.00  0.00    +0.000 A 
ATOM     23  H   UNL     1       0.919  11.063  21.953  0.00  0.00    +0.000 HD
ENDBRANCH   2  12
BRANCH   5  24
ATOM     24  C   UNL     1       2.132   4.559  19.912  0.00  0.00    +0.000 A 
ATOM     25  C   UNL     1       1.562   4.145  18.703  0.00  0.00    +0.000 A 
ATOM     26  C   UNL     1       0.809   2.966  18.631  0.00  0.00    +0.000 A 
ATOM     27  C   UNL     1       0.631   2.173  19.762  0.00  0.00    +0.000 A 
ATOM     28  C   UNL     1       1.205   2.556  20.969  0.00  0.00    +0.000 A 
ATOM     29  C   UNL     1       1.947   3.738  21.043  0.00  0.00    +0.000 A 
ENDBRANCH   5  24
TORSDOF 2
ENDMDL
MODEL 4
REMARK VINA RESULT:      -9.0      2.509      7.567
REMARK  Name = 
REMARK  2 active torsions:
REMARK  status: ('A' for Active; 'I' for Inactive)
REMARK    1  A    between atoms: C_2  and  C_3
REMARK    2  A    between atoms: C_16  and  C_17
REMARK                            x       y       z     vdW  Elec       q    Type
REMARK                         _______ _______ _______ _____ _____    ______ ____
ROOT
ATOM      1  O   UNL     1       1.000   7.384  21.572  0.00  0.00    +0.000 OA
ATOM      2  C   UNL     1       1.369   7.681  20.441  0.00  0.00    +0.000 C 
ATOM      3  N   UNL     1       2.021   6.806  19.578  0.00  0.00    +0.000 N 
ATOM      4  C   UNL     1       2.708   7.186  18.334  0.00  0.00    +0.000 C 
ATOM      5  C   UNL     1       3.455   5.921  17.833  0.00  0.00    +0.000 C 
ATOM      6  C   UNL     1       2.764   4.807  18.637  0.00  0.00    +0.000 C 
ATOM      7  C   UNL     1       3.451   3.463  18.843  0.00  0.00    +0.000 C 
ATOM      8  C   UNL     1       2.520   2.543  19.643  0.00  0.00    +0.000 C 
ATOM      9  C   UNL     1       2.047   3.188  20.947  0.00  0.00    +0.000 C 
ATOM     10  C   UNL     1       1.442   4.583  20.735  0.00  0.00    +0.000 C 
ATOM     11  C   UNL     1       2.434   5.470  19.979  0.00  0.00    +0.000 C 
ENDROOT
BRANCH   2  12
ATOM     12  C   UNL     1       1.086   9.108  19.967  0.00  0.00    +0.000 A 
ATOM     13  N   UNL     1       1.553   9.442  18.798  0.00  0.00    +0.000 NA
ATOM     14  N   UNL     1       1.359  10.711  18.356  0.00  0.00    +0.000 N 
ATOM     15  C   UNL     1       0.781  11.734  19.064  0.00  0.00    +0.000 A 
ATOM     16  O   UNL     1       0.692  12.871  18.621  0.00  0.00    +0.000 OA
ATOM     17  C   UNL     1       0.256  11.380  20.395  0.00  0.00    +0.000 A 
ATOM     18  C   UNL     1      -0.355  12.365  21.181  0.00  0.00    +0.000 A 
ATOM     19  C   UNL     1      -0.863  12.032  22.436  0.00  0.00    +0.000 A 
ATOM     20  C   UNL     1      -0.768  10.720  22.893  0.00  0.00    +0.000 A 
ATOM     21  C   UNL     1      -0.155   9.735  22.105  0.00  0.00    +0.000 A 
ATOM     22  C   UNL     1       0.371  10.065  20.851  0.00  0.00    +0.000 A 
ATOM     23  H   UNL     1       1.735  10.938  17.440  0.00  0.00    +0.000 HD
ENDBRANCH   2  12
BRANCH   5  24
ATOM     24  C   UNL     1       4.973   5.949  17.916  0.00  0.00    +0.000 A 
ATOM     25  C   UNL     1       5.804   6.332  16.857  0.00  0.00    +0.000 A 
ATOM     26  C   UNL     1       7.198   6.299  16.991  0.00  0.00    +0.000 A 
ATOM     27  C   UNL     1       7.781   5.901  18.192  0.00  0.00    +0.000 A 
ATOM     28  C   UNL     1       6.973   5.536  19.262  0.00  0.00    +0.000 A 
ATOM     29  C   UNL     1       5.583   5.558  19.125  0.00  0.00    +0.000 A 
ENDBRANCH   5  24
TORSDOF 2
ENDMDL
MODEL 5
REMARK VINA RESULT:      -8.7      2.557      7.771
REMARK  Name = 
REMARK  2 active torsions:
REMARK  status: ('A' for Active; 'I' for Inactive)
REMARK    1  A    between atoms: C_2  and  C_3
REMARK    2  A    between atoms: C_16  and  C_17
REMARK                            x       y       z     vdW  Elec       q    Type
REMARK                         _______ _______ _______ _____ _____    ______ ____
ROOT
ATOM      1  O   UNL     1       2.088   9.282  17.023  0.00  0.00    +0.000 OA
ATOM      2  C   UNL     1       1.999   8.915  18.190  0.00  0.00    +0.000 C 
ATOM      3  N   UNL     1       2.623   7.782  18.701  0.00  0.00    +0.000 N 
ATOM      4  C   UNL     1       2.338   7.164  20.005  0.00  0.00    +0.000 C 
ATOM      5  C   UNL     1       3.116   5.822  20.042  0.00  0.00    +0.000 C 
ATOM      6  C   UNL     1       4.123   6.009  18.896  0.00  0.00    +0.000 C 
ATOM      7  C   UNL     1       4.783   4.801  18.242  0.00  0.00    +0.000 C 
ATOM      8  C   UNL     1       5.761   5.287  17.165  0.00  0.00    +0.000 C 
ATOM      9  C   UNL     1       5.096   6.232  16.162  0.00  0.00    +0.000 C 
ATOM     10  C   UNL     1       4.355   7.393  16.839  0.00  0.00    +0.000 C 
ATOM     11  C   UNL     1       3.359   6.846  17.865  0.00  0.00    +0.000 C 
ENDROOT
BRANCH   2  12
ATOM     12  C   UNL     1       1.145   9.772  19.127  0.00  0.00    +0.000 A 
ATOM     13  N   UNL     1       0.276   9.144  19.867  0.00  0.00    +0.000 NA
ATOM     14  N   UNL     1      -0.530   9.869  20.684  0.00  0.00    +0.000 N 
ATOM     15  C   UNL     1      -0.588  11.238  20.754  0.00  0.00    +0.000 A 
ATOM     16  O   UNL     1      -1.384  11.825  21.475  0.00  0.00    +0.000 OA
ATOM     17  C   UNL     1       0.379  11.968  19.916  0.00  0.00    +0.000 A 
ATOM     18  C   UNL     1       0.389  13.369  19.933  0.00  0.00    +0.000 A 
ATOM     19  C   UNL     1       1.310  14.063  19.150  0.00  0.00    +0.000 A 
ATOM     20  C   UNL     1       2.219  13.357  18.364  0.00  0.00    +0.000 A 
ATOM     21  C   UNL     1       2.206  11.956  18.348  0.00  0.00    +0.000 A 
ATOM     22  C   UNL     1       1.274  11.252  19.119  0.00  0.00    +0.000 A 
ATOM     23  H   UNL     1      -1.195   9.349  21.248  0.00  0.00    +0.000 HD
ENDBRANCH   2  12
BRANCH   5  24
ATOM     24  C   UNL     1       2.284   4.550  19.987  0.00  0.00    +0.000 A 
ATOM     25  C   UNL     1       1.606   4.112  18.844  0.00  0.00    +0.000 A 
ATOM     26  C   UNL     1       0.828   2.948  18.874  0.00  0.00    +0.000 A 
ATOM     27  C   UNL     1       0.730   2.195  20.043  0.00  0.00    +0.000 A 
ATOM     28  C   UNL     1       1.411   2.603  21.184  0.00  0.00    +0.000 A 
ATOM     29  C   UNL     1       2.179   3.770  21.156  0.00  0.00    +0.000 A 
ENDBRANCH   5  24
TORSDOF 2
ENDMDL
MODEL 6
REMARK VINA RESULT:      -8.6      2.260      7.288
REMARK  Name = 
REMARK  2 active torsions:
REMARK  status: ('A' for Active; 'I' for Inactive)
REMARK    1  A    between atoms: C_2  and  C_3
REMARK    2  A    between atoms: C_16  and  C_17
REMARK                            x       y       z     vdW  Elec       q    Type
REMARK                         _______ _______ _______ _____ _____    ______ ____
ROOT
ATOM      1  O   UNL     1       0.637   7.955  21.500  0.00  0.00    +0.000 OA
ATOM      2  C   UNL     1       1.125   8.317  20.435  0.00  0.00    +0.000 C 
ATOM      3  N   UNL     1       1.754   7.463  19.535  0.00  0.00    +0.000 N 
ATOM      4  C   UNL     1       2.574   7.883  18.388  0.00  0.00    +0.000 C 
ATOM      5  C   UNL     1       3.229   6.599  17.813  0.00  0.00    +0.000 C 
ATOM      6  C   UNL     1       2.367   5.494  18.447  0.00  0.00    +0.000 C 
ATOM      7  C   UNL     1       2.897   4.070  18.561  0.00  0.00    +0.000 C 
ATOM      8  C   UNL     1       1.816   3.184  19.194  0.00  0.00    +0.000 C 
ATOM      9  C   UNL     1       1.305   3.749  20.521  0.00  0.00    +0.000 C 
ATOM     10  C   UNL     1       0.863   5.215  20.412  0.00  0.00    +0.000 C 
ATOM     11  C   UNL     1       1.997   6.058  19.824  0.00  0.00    +0.000 C 
ENDROOT
BRANCH   2  12
ATOM     12  C   UNL     1       1.026   9.804  20.092  0.00  0.00    +0.000 A 
ATOM     13  N   UNL     1       1.826  10.609  20.731  0.00  0.00    +0.000 NA
ATOM     14  N   UNL     1       1.744  11.942  20.487  0.00  0.00    +0.000 N 
ATOM     15  C   UNL     1       0.824  12.559  19.678  0.00  0.00    +0.000 A 
ATOM     16  O   UNL     1       0.774  13.776  19.551  0.00  0.00    +0.000 OA
ATOM     17  C   UNL     1      -0.099  11.668  18.954  0.00  0.00    +0.000 A 
ATOM     18  C   UNL     1      -1.066  12.218  18.103  0.00  0.00    +0.000 A 
ATOM     19  C   UNL     1      -1.934  11.378  17.408  0.00  0.00    +0.000 A 
ATOM     20  C   UNL     1      -1.826   9.997  17.558  0.00  0.00    +0.000 A 
ATOM     21  C   UNL     1      -0.859   9.448  18.411  0.00  0.00    +0.000 A 
ATOM     22  C   UNL     1       0.006  10.286  19.124  0.00  0.00    +0.000 A 
ATOM     23  H   UNL     1       2.383  12.540  21.001  0.00  0.00    +0.000 HD
ENDBRANCH   2  12
BRANCH   5  24
ATOM     24  C   UNL     1       4.730   6.454  18.006  0.00  0.00    +0.000 A 
ATOM     25  C   UNL     1       5.316   5.697  19.026  0.00  0.00    +0.000 A 
ATOM     26  C   UNL     1       6.708   5.636  19.166  0.00  0.00    +0.000 A 
ATOM     27  C   UNL     1       7.536   6.318  18.277  0.00  0.00    +0.000 A 
ATOM     28  C   UNL     1       6.975   7.060  17.244  0.00  0.00    +0.000 A 
ATOM     29  C   UNL     1       5.585   7.128  17.111  0.00  0.00    +0.000 A 
ENDBRANCH   5  24
TORSDOF 2
ENDMDL
MODEL 7
REMARK VINA RESULT:      -8.4      2.327      7.135
REMARK  Name = 
REMARK  2 active torsions:
REMARK  status: ('A' for Active; 'I' for Inactive)
REMARK    1  A    between atoms: C_2  and  C_3
REMARK    2  A    between atoms: C_16  and  C_17
REMARK                            x       y       z     vdW  Elec       q    Type
REMARK                         _______ _______ _______ _____ _____    ______ ____
ROOT
ATOM      1  O   UNL     1       1.280   8.678  21.341  0.00  0.00    +0.000 OA
ATOM      2  C   UNL     1       1.450   8.838  20.137  0.00  0.00    +0.000 C 
ATOM      3  N   UNL     1       1.889   7.841  19.272  0.00  0.00    +0.000 N 
ATOM      4  C   UNL     1       2.353   8.051  17.892  0.00  0.00    +0.000 C 
ATOM      5  C   UNL     1       2.933   6.696  17.406  0.00  0.00    +0.000 C 
ATOM      6  C   UNL     1       2.347   5.715  18.435  0.00  0.00    +0.000 C 
ATOM      7  C   UNL     1       2.993   4.353  18.659  0.00  0.00    +0.000 C 
ATOM      8  C   UNL     1       2.181   3.581  19.705  0.00  0.00    +0.000 C 
ATOM      9  C   UNL     1       1.987   4.380  20.996  0.00  0.00    +0.000 C 
ATOM     10  C   UNL     1       1.423   5.785  20.745  0.00  0.00    +0.000 C 
ATOM     11  C   UNL     1       2.302   6.526  19.735  0.00  0.00    +0.000 C 
ENDROOT
BRANCH   2  12
ATOM     12  C   UNL     1       1.155  10.228  19.570  0.00  0.00    +0.000 A 
ATOM     13  N   UNL     1       2.050  11.150  19.782  0.00  0.00    +0.000 NA
ATOM     14  N   UNL     1       1.811  12.409  19.331  0.00  0.00    +0.000 N 
ATOM     15  C   UNL     1       0.656  12.846  18.732  0.00  0.00    +0.000 A 
ATOM     16  O   UNL     1       0.489  14.013  18.403  0.00  0.00    +0.000 OA
ATOM     17  C   UNL     1      -0.375  11.821  18.494  0.00  0.00    +0.000 A 
ATOM     18  C   UNL     1      -1.582  12.183  17.882  0.00  0.00    +0.000 A 
ATOM     19  C   UNL     1      -2.555  11.214  17.645  0.00  0.00    +0.000 A 
ATOM     20  C   UNL     1      -2.315   9.891  18.009  0.00  0.00    +0.000 A 
ATOM     21  C   UNL     1      -1.107   9.530  18.621  0.00  0.00    +0.000 A 
ATOM     22  C   UNL     1      -0.131  10.500  18.878  0.00  0.00    +0.000 A 
ATOM     23  H   UNL     1       2.529  13.103  19.512  0.00  0.00    +0.000 HD
ENDBRANCH   2  12
BRANCH   5  24
ATOM     24  C   UNL     1       4.440   6.628  17.214  0.00  0.00    +0.000 A 
ATOM     25  C   UNL     1       5.345   7.482  17.854  0.00  0.00    +0.000 A 
ATOM     26  C   UNL     1       6.720   7.387  17.603  0.00  0.00    +0.000 A 
ATOM     27  C   UNL     1       7.211   6.425  16.724  0.00  0.00    +0.000 A 
ATOM     28  C   UNL     1       6.330   5.554  16.093  0.00  0.00    +0.000 A 
ATOM     29  C   UNL     1       4.957   5.656  16.335  0.00  0.00    +0.000 A 
ENDBRANCH   5  24
TORSDOF 2
ENDMDL
MODEL 8
REMARK VINA RESULT:      -8.4      3.015      6.006
REMARK  Name = 
REMARK  2 active torsions:
REMARK  status: ('A' for Active; 'I' for Inactive)
REMARK    1  A    between atoms: C_2  and  C_3
REMARK    2  A    between atoms: C_16  and  C_17
REMARK                            x       y       z     vdW  Elec       q    Type
REMARK                         _______ _______ _______ _____ _____    ______ ____
ROOT
ATOM      1  O   UNL     1       3.656   2.968  15.973  0.00  0.00    +0.000 OA
ATOM      2  C   UNL     1       4.252   3.918  16.470  0.00  0.00    +0.000 C 
ATOM      3  N   UNL     1       3.850   4.572  17.630  0.00  0.00    +0.000 N 
ATOM      4  C   UNL     1       4.372   5.860  18.110  0.00  0.00    +0.000 C 
ATOM      5  C   UNL     1       3.484   6.282  19.310  0.00  0.00    +0.000 C 
ATOM      6  C   UNL     1       2.787   4.959  19.668  0.00  0.00    +0.000 C 
ATOM      7  C   UNL     1       1.488   4.960  20.464  0.00  0.00    +0.000 C 
ATOM      8  C   UNL     1       1.047   3.511  20.703  0.00  0.00    +0.000 C 
ATOM      9  C   UNL     1       0.961   2.708  19.403  0.00  0.00    +0.000 C 
ATOM     10  C   UNL     1       2.244   2.793  18.566  0.00  0.00    +0.000 C 
ATOM     11  C   UNL     1       2.606   4.259  18.316  0.00  0.00    +0.000 C 
ENDROOT
BRANCH   2  12
ATOM     12  C   UNL     1       5.514   4.401  15.752  0.00  0.00    +0.000 A 
ATOM     13  N   UNL     1       6.335   5.140  16.442  0.00  0.00    +0.000 NA
ATOM     14  N   UNL     1       7.448   5.624  15.833  0.00  0.00    +0.000 N 
ATOM     15  C   UNL     1       7.768   5.483  14.506  0.00  0.00    +0.000 A 
ATOM     16  O   UNL     1       8.763   5.998  14.013  0.00  0.00    +0.000 OA
ATOM     17  C   UNL     1       6.845   4.661  13.704  0.00  0.00    +0.000 A 
ATOM     18  C   UNL     1       7.102   4.464  12.341  0.00  0.00    +0.000 A 
ATOM     19  C   UNL     1       6.237   3.677  11.582  0.00  0.00    +0.000 A 
ATOM     20  C   UNL     1       5.131   3.085  12.187  0.00  0.00    +0.000 A 
ATOM     21  C   UNL     1       4.875   3.284  13.550  0.00  0.00    +0.000 A 
ATOM     22  C   UNL     1       5.729   4.086  14.316  0.00  0.00    +0.000 A 
ATOM     23  H   UNL     1       8.068   6.195  16.399  0.00  0.00    +0.000 HD
ENDBRANCH   2  12
BRANCH   5  24
ATOM     24  C   UNL     1       2.564   7.473  19.092  0.00  0.00    +0.000 A 
ATOM     25  C   UNL     1       2.375   8.095  17.853  0.00  0.00    +0.000 A 
ATOM     26  C   UNL     1       1.539   9.212  17.731  0.00  0.00    +0.000 A 
ATOM     27  C   UNL     1       0.864   9.712  18.843  0.00  0.00    +0.000 A 
ATOM     28  C   UNL     1       1.023   9.097  20.079  0.00  0.00    +0.000 A 
ATOM     29  C   UNL     1       1.865   7.988  20.202  0.00  0.00    +0.000 A 
ENDBRANCH   5  24
TORSDOF 2
ENDMDL
MODEL 9
REMARK VINA RESULT:      -8.4      4.730      6.395
REMARK  Name = 
REMARK  2 active torsions:
REMARK  status: ('A' for Active; 'I' for Inactive)
REMARK    1  A    between atoms: C_2  and  C_3
REMARK    2  A    between atoms: C_16  and  C_17
REMARK                            x       y       z     vdW  Elec       q    Type
REMARK                         _______ _______ _______ _____ _____    ______ ____
ROOT
ATOM      1  O   UNL     1      -1.143  11.581  23.373  0.00  0.00    +0.000 OA
ATOM      2  C   UNL     1      -1.287  12.325  22.408  0.00  0.00    +0.000 C 
ATOM      3  N   UNL     1      -2.502  12.887  22.030  0.00  0.00    +0.000 N 
ATOM      4  C   UNL     1      -2.771  13.560  20.751  0.00  0.00    +0.000 C 
ATOM      5  C   UNL     1      -4.299  13.827  20.699  0.00  0.00    +0.000 C 
ATOM      6  C   UNL     1      -4.699  13.651  22.173  0.00  0.00    +0.000 C 
ATOM      7  C   UNL     1      -6.145  13.353  22.551  0.00  0.00    +0.000 C 
ATOM      8  C   UNL     1      -6.255  13.266  24.078  0.00  0.00    +0.000 C 
ATOM      9  C   UNL     1      -5.256  12.275  24.677  0.00  0.00    +0.000 C 
ATOM     10  C   UNL     1      -3.815  12.529  24.213  0.00  0.00    +0.000 C 
ATOM     11  C   UNL     1      -3.758  12.554  22.684  0.00  0.00    +0.000 C 
ENDROOT
BRANCH   2  12
ATOM     12  C   UNL     1      -0.039  12.643  21.581  0.00  0.00    +0.000 A 
ATOM     13  N   UNL     1       0.607  13.731  21.889  0.00  0.00    +0.000 NA
ATOM     14  N   UNL     1       1.697  14.072  21.155  0.00  0.00    +0.000 N 
ATOM     15  C   UNL     1       2.155  13.420  20.038  0.00  0.00    +0.000 A 
ATOM     16  O   UNL     1       3.114  13.821  19.391  0.00  0.00    +0.000 OA
ATOM     17  C   UNL     1       1.430  12.193  19.665  0.00  0.00    +0.000 A 
ATOM     18  C   UNL     1       1.837  11.465  18.540  0.00  0.00    +0.000 A 
ATOM     19  C   UNL     1       1.160  10.297  18.191  0.00  0.00    +0.000 A 
ATOM     20  C   UNL     1       0.092   9.859  18.969  0.00  0.00    +0.000 A 
ATOM     21  C   UNL     1      -0.314  10.590  20.094  0.00  0.00    +0.000 A 
ATOM     22  C   UNL     1       0.349  11.771  20.443  0.00  0.00    +0.000 A 
ATOM     23  H   UNL     1       2.179  14.925  21.422  0.00  0.00    +0.000 HD
ENDBRANCH   2  12
BRANCH   5  24
ATOM     24  C   UNL     1      -5.100  13.012  19.697  0.00  0.00    +0.000 A 
ATOM     25  C   UNL     1      -4.653  11.811  19.134  0.00  0.00    +0.000 A 
ATOM     26  C   UNL     1      -5.428  11.130  18.188  0.00  0.00    +0.000 A 
ATOM     27  C   UNL     1      -6.671  11.629  17.804  0.00  0.00    +0.000 A 
ATOM     28  C   UNL     1      -7.142  12.810  18.366  0.00  0.00    +0.000 A 
ATOM     29  C   UNL     1      -6.363  13.495  19.302  0.00  0.00    +0.000 A 
ENDBRANCH   5  24
TORSDOF 2
ENDMDL
