MODEL 1
REMARK VINA RESULT:      -6.8      0.000      0.000
REMARK  Name = 
REMARK  5 active torsions:
REMARK  status: ('A' for Active; 'I' for Inactive)
REMARK    1  A    between atoms: C_1  and  O_2
REMARK    2  A    between atoms: O_2  and  C_3
REMARK    3  A    between atoms: C_3  and  C_5
REMARK    4  A    between atoms: C_14  and  C_15
REMARK    5  A    between atoms: C_20  and  C_21
REMARK                            x       y       z     vdW  Elec       q    Type
REMARK                         _______ _______ _______ _____ _____    ______ ____
ROOT
ATOM      1  C   UNL     1       3.360  15.803  20.130  0.00  0.00    +0.000 C 
ATOM      2  C   UNL     1       3.743  17.117  19.584  0.00  0.00    +0.000 C 
ATOM      3  C   UNL     1       2.052  17.299  19.201  0.00  0.00    +0.000 A 
ATOM      4  C   UNL     1       1.252  18.284  19.796  0.00  0.00    +0.000 A 
ATOM      5  C   UNL     1      -0.173  18.198  19.754  0.00  0.00    +0.000 A 
ATOM      6  C   UNL     1      -0.869  17.163  19.090  0.00  0.00    +0.000 A 
ATOM      7  C   UNL     1      -0.141  16.122  18.561  0.00  0.00    +0.000 A 
ATOM      8  C   UNL     1       1.234  16.152  18.716  0.00  0.00    +0.000 A 
ATOM      9  O   UNL     1       1.807  14.902  18.487  0.00  0.00    +0.000 OA
ATOM     10  C   UNL     1       3.158  15.233  18.572  0.00  0.00    +0.000 C 
ATOM     11  C   UNL     1       3.281  16.176  17.070  0.00  0.00    +0.000 C 
ATOM     12  N   UNL     1       4.193  14.292  18.364  0.00  0.00    +0.000 NA
ATOM     13  C   UNL     1       5.197  15.101  18.401  0.00  0.00    +0.000 A 
ATOM     14  S   UNL     1       6.662  14.472  17.816  0.00  0.00    +0.000 S 
ATOM     15  C   UNL     1       7.547  15.747  18.546  0.00  0.00    +0.000 A 
ATOM     16  C   UNL     1       8.886  15.571  18.694  0.00  0.00    +0.000 C 
ATOM     17  C   UNL     1       6.514  16.874  18.981  0.00  0.00    +0.000 A 
ATOM     18  O   UNL     1       6.866  17.929  19.503  0.00  0.00    +0.000 OA
ATOM     19  N   UNL     1       5.176  16.456  18.818  0.00  0.00    +0.000 N 
ENDROOT
BRANCH  16  20
ATOM     20  C   UNL     1       9.603  14.267  18.401  0.00  0.00    +0.000 A 
ATOM     21  C   UNL     1      10.490  14.194  17.307  0.00  0.00    +0.000 A 
ATOM     22  C   UNL     1      11.230  13.026  17.018  0.00  0.00    +0.000 A 
ATOM     23  C   UNL     1      11.104  11.905  17.829  0.00  0.00    +0.000 A 
ATOM     24  C   UNL     1      10.254  11.973  18.926  0.00  0.00    +0.000 A 
ATOM     25  F   UNL     1      10.156  10.907  19.729  0.00  0.00    +0.000 F 
ATOM     26  C   UNL     1       9.516  13.137  19.227  0.00  0.00    +0.000 A 
ENDBRANCH  16  20
BRANCH   1  27
ATOM     27  C   UNL     1       4.347  15.649  21.293  0.00  0.00    +0.000 C 
ATOM     28  O   UNL     1       4.926  16.519  21.920  0.00  0.00    +0.000 OA
BRANCH  27  30
ATOM     29  C   UNL     1       5.352  13.838  22.534  0.00  0.00    +0.000 C 
ATOM     30  O   UNL     1       4.360  14.306  21.622  0.00  0.00    +0.000 OA
ENDBRANCH  27  30
ENDBRANCH   1  27
TORSDOF 3
ENDMDL
MODEL 2
REMARK VINA RESULT:      -6.5      0.914      1.259
REMARK  Name = 
REMARK  5 active torsions:
REMARK  status: ('A' for Active; 'I' for Inactive)
REMARK    1  A    between atoms: C_1  and  O_2
REMARK    2  A    between atoms: O_2  and  C_3
REMARK    3  A    between atoms: C_3  and  C_5
REMARK    4  A    between atoms: C_14  and  C_15
REMARK    5  A    between atoms: C_20  and  C_21
REMARK                            x       y       z     vdW  Elec       q    Type
REMARK                         _______ _______ _______ _____ _____    ______ ____
ROOT
ATOM      1  C   UNL     1       3.369  15.836  20.240  0.00  0.00    +0.000 C 
ATOM      2  C   UNL     1       3.667  17.182  19.717  0.00  0.00    +0.000 C 
ATOM      3  C   UNL     1       1.973  17.253  19.312  0.00  0.00    +0.000 A 
ATOM      4  C   UNL     1       1.099  18.171  19.909  0.00  0.00    +0.000 A 
ATOM      5  C   UNL     1      -0.315  17.987  19.845  0.00  0.00    +0.000 A 
ATOM      6  C   UNL     1      -0.930  16.916  19.158  0.00  0.00    +0.000 A 
ATOM      7  C   UNL     1      -0.124  15.936  18.625  0.00  0.00    +0.000 A 
ATOM      8  C   UNL     1       1.243  16.058  18.801  0.00  0.00    +0.000 A 
ATOM      9  O   UNL     1       1.904  14.854  18.563  0.00  0.00    +0.000 OA
ATOM     10  C   UNL     1       3.228  15.277  18.672  0.00  0.00    +0.000 C 
ATOM     11  C   UNL     1       3.305  16.247  17.185  0.00  0.00    +0.000 C 
ATOM     12  N   UNL     1       4.328  14.412  18.465  0.00  0.00    +0.000 NA
ATOM     13  C   UNL     1       5.273  15.287  18.528  0.00  0.00    +0.000 A 
ATOM     14  S   UNL     1       6.786  14.770  17.956  0.00  0.00    +0.000 S 
ATOM     15  C   UNL     1       7.570  16.092  18.715  0.00  0.00    +0.000 A 
ATOM     16  C   UNL     1       8.916  16.008  18.880  0.00  0.00    +0.000 C 
ATOM     17  C   UNL     1       6.456  17.139  19.151  0.00  0.00    +0.000 A 
ATOM     18  O   UNL     1       6.727  18.209  19.692  0.00  0.00    +0.000 OA
ATOM     19  N   UNL     1       5.153  16.632  18.962  0.00  0.00    +0.000 N 
ENDROOT
BRANCH  16  20
ATOM     20  C   UNL     1       9.726  14.760  18.580  0.00  0.00    +0.000 A 
ATOM     21  C   UNL     1       9.737  13.700  19.510  0.00  0.00    +0.000 A 
ATOM     22  C   UNL     1      10.424  12.491  19.261  0.00  0.00    +0.000 A 
ATOM     23  C   UNL     1      11.111  12.316  18.067  0.00  0.00    +0.000 A 
ATOM     24  C   UNL     1      11.087  13.342  17.130  0.00  0.00    +0.000 A 
ATOM     25  F   UNL     1      11.718  13.163  15.965  0.00  0.00    +0.000 F 
ATOM     26  C   UNL     1      10.397  14.550  17.366  0.00  0.00    +0.000 A 
ENDBRANCH  16  20
BRANCH   1  27
ATOM     27  C   UNL     1       4.349  15.735  21.414  0.00  0.00    +0.000 C 
ATOM     28  O   UNL     1       4.801  16.628  22.108  0.00  0.00    +0.000 OA
BRANCH  27  30
ATOM     29  C   UNL     1       5.788  13.947  22.168  0.00  0.00    +0.000 C 
ATOM     30  O   UNL     1       4.529  14.385  21.660  0.00  0.00    +0.000 OA
ENDBRANCH  27  30
ENDBRANCH   1  27
TORSDOF 3
ENDMDL
MODEL 3
REMARK VINA RESULT:      -6.5      5.335      8.490
REMARK  Name = 
REMARK  5 active torsions:
REMARK  status: ('A' for Active; 'I' for Inactive)
REMARK    1  A    between atoms: C_1  and  O_2
REMARK    2  A    between atoms: O_2  and  C_3
REMARK    3  A    between atoms: C_3  and  C_5
REMARK    4  A    between atoms: C_14  and  C_15
REMARK    5  A    between atoms: C_20  and  C_21
REMARK                            x       y       z     vdW  Elec       q    Type
REMARK                         _______ _______ _______ _____ _____    ______ ____
ROOT
ATOM      1  C   UNL     1       1.024  15.802  21.272  0.00  0.00    +0.000 C 
ATOM      2  C   UNL     1       1.847  14.680  21.760  0.00  0.00    +0.000 C 
ATOM      3  C   UNL     1       3.140  15.846  21.854  0.00  0.00    +0.000 A 
ATOM      4  C   UNL     1       3.727  16.215  23.072  0.00  0.00    +0.000 A 
ATOM      5  C   UNL     1       4.510  17.404  23.179  0.00  0.00    +0.000 A 
ATOM      6  C   UNL     1       4.783  18.256  22.085  0.00  0.00    +0.000 A 
ATOM      7  C   UNL     1       4.165  17.994  20.884  0.00  0.00    +0.000 A 
ATOM      8  C   UNL     1       3.307  16.909  20.823  0.00  0.00    +0.000 A 
ATOM      9  O   UNL     1       2.475  16.970  19.706  0.00  0.00    +0.000 OA
ATOM     10  C   UNL     1       1.834  15.737  19.811  0.00  0.00    +0.000 C 
ATOM     11  C   UNL     1       3.218  14.700  19.406  0.00  0.00    +0.000 C 
ATOM     12  N   UNL     1       0.891  15.281  18.862  0.00  0.00    +0.000 NA
ATOM     13  C   UNL     1       0.725  14.085  19.317  0.00  0.00    +0.000 A 
ATOM     14  S   UNL     1      -0.056  13.006  18.264  0.00  0.00    +0.000 S 
ATOM     15  C   UNL     1      -0.352  11.907  19.546  0.00  0.00    +0.000 A 
ATOM     16  C   UNL     1      -1.292  10.948  19.341  0.00  0.00    +0.000 C 
ATOM     17  C   UNL     1       0.544  12.345  20.785  0.00  0.00    +0.000 A 
ATOM     18  O   UNL     1       0.566  11.718  21.841  0.00  0.00    +0.000 OA
ATOM     19  N   UNL     1       1.183  13.584  20.562  0.00  0.00    +0.000 N 
ENDROOT
BRANCH  16  20
ATOM     20  C   UNL     1      -2.193  10.897  18.122  0.00  0.00    +0.000 A 
ATOM     21  C   UNL     1      -1.875  10.026  17.060  0.00  0.00    +0.000 A 
ATOM     22  C   UNL     1      -2.705   9.892  15.925  0.00  0.00    +0.000 A 
ATOM     23  C   UNL     1      -3.882  10.625  15.834  0.00  0.00    +0.000 A 
ATOM     24  C   UNL     1      -4.221  11.468  16.886  0.00  0.00    +0.000 A 
ATOM     25  F   UNL     1      -5.370  12.149  16.818  0.00  0.00    +0.000 F 
ATOM     26  C   UNL     1      -3.402  11.603  18.027  0.00  0.00    +0.000 A 
ENDBRANCH  16  20
BRANCH   1  27
ATOM     27  C   UNL     1      -0.354  15.446  21.840  0.00  0.00    +0.000 C 
ATOM     28  O   UNL     1      -1.437  15.470  21.282  0.00  0.00    +0.000 OA
BRANCH  27  30
ATOM     29  C   UNL     1      -1.207  14.247  23.755  0.00  0.00    +0.000 C 
ATOM     30  O   UNL     1      -0.136  14.930  23.105  0.00  0.00    +0.000 OA
ENDBRANCH  27  30
ENDBRANCH   1  27
TORSDOF 3
ENDMDL
MODEL 4
REMARK VINA RESULT:      -6.4      5.192      8.429
REMARK  Name = 
REMARK  5 active torsions:
REMARK  status: ('A' for Active; 'I' for Inactive)
REMARK    1  A    between atoms: C_1  and  O_2
REMARK    2  A    between atoms: O_2  and  C_3
REMARK    3  A    between atoms: C_3  and  C_5
REMARK    4  A    between atoms: C_14  and  C_15
REMARK    5  A    between atoms: C_20  and  C_21
REMARK                            x       y       z     vdW  Elec       q    Type
REMARK                         _______ _______ _______ _____ _____    ______ ____
ROOT
ATOM      1  C   UNL     1       0.928  15.755  21.272  0.00  0.00    +0.000 C 
ATOM      2  C   UNL     1       1.784  14.647  21.733  0.00  0.00    +0.000 C 
ATOM      3  C   UNL     1       3.057  15.836  21.797  0.00  0.00    +0.000 A 
ATOM      4  C   UNL     1       3.669  16.212  23.001  0.00  0.00    +0.000 A 
ATOM      5  C   UNL     1       4.434  17.414  23.092  0.00  0.00    +0.000 A 
ATOM      6  C   UNL     1       4.662  18.275  21.995  0.00  0.00    +0.000 A 
ATOM      7  C   UNL     1       4.017  18.005  20.809  0.00  0.00    +0.000 A 
ATOM      8  C   UNL     1       3.178  16.905  20.767  0.00  0.00    +0.000 A 
ATOM      9  O   UNL     1       2.316  16.955  19.673  0.00  0.00    +0.000 OA
ATOM     10  C   UNL     1       1.700  15.711  19.790  0.00  0.00    +0.000 C 
ATOM     11  C   UNL     1       3.091  14.700  19.344  0.00  0.00    +0.000 C 
ATOM     12  N   UNL     1       0.740  15.241  18.864  0.00  0.00    +0.000 NA
ATOM     13  C   UNL     1       0.608  14.040  19.318  0.00  0.00    +0.000 A 
ATOM     14  S   UNL     1      -0.181  12.950  18.282  0.00  0.00    +0.000 S 
ATOM     15  C   UNL     1      -0.422  11.842  19.567  0.00  0.00    +0.000 A 
ATOM     16  C   UNL     1      -1.350  10.866  19.383  0.00  0.00    +0.000 C 
ATOM     17  C   UNL     1       0.498  12.292  20.783  0.00  0.00    +0.000 A 
ATOM     18  O   UNL     1       0.559  11.662  21.836  0.00  0.00    +0.000 OA
ATOM     19  N   UNL     1       1.108  13.543  20.549  0.00  0.00    +0.000 N 
ENDROOT
BRANCH  16  20
ATOM     20  C   UNL     1      -2.282  10.804  18.188  0.00  0.00    +0.000 A 
ATOM     21  C   UNL     1      -3.494  11.525  18.215  0.00  0.00    +0.000 A 
ATOM     22  C   UNL     1      -4.375  11.552  17.112  0.00  0.00    +0.000 A 
ATOM     23  C   UNL     1      -4.055  10.862  15.950  0.00  0.00    +0.000 A 
ATOM     24  C   UNL     1      -2.851  10.169  15.900  0.00  0.00    +0.000 A 
ATOM     25  F   UNL     1      -2.524   9.532  14.770  0.00  0.00    +0.000 F 
ATOM     26  C   UNL     1      -1.962  10.142  16.994  0.00  0.00    +0.000 A 
ENDBRANCH  16  20
BRANCH   1  27
ATOM     27  C   UNL     1      -0.428  15.372  21.875  0.00  0.00    +0.000 C 
ATOM     28  O   UNL     1      -1.527  15.389  21.349  0.00  0.00    +0.000 OA
BRANCH  27  30
ATOM     29  C   UNL     1      -1.245  14.267  23.860  0.00  0.00    +0.000 C 
ATOM     30  O   UNL     1      -0.166  14.842  23.125  0.00  0.00    +0.000 OA
ENDBRANCH  27  30
ENDBRANCH   1  27
TORSDOF 3
ENDMDL
MODEL 5
REMARK VINA RESULT:      -6.4      7.327     10.856
REMARK  Name = 
REMARK  5 active torsions:
REMARK  status: ('A' for Active; 'I' for Inactive)
REMARK    1  A    between atoms: C_1  and  O_2
REMARK    2  A    between atoms: O_2  and  C_3
REMARK    3  A    between atoms: C_3  and  C_5
REMARK    4  A    between atoms: C_14  and  C_15
REMARK    5  A    between atoms: C_20  and  C_21
REMARK                            x       y       z     vdW  Elec       q    Type
REMARK                         _______ _______ _______ _____ _____    ______ ____
ROOT
ATOM      1  C   UNL     1      -0.904  10.406  19.207  0.00  0.00    +0.000 C 
ATOM      2  C   UNL     1       0.146  11.380  18.860  0.00  0.00    +0.000 C 
ATOM      3  C   UNL     1       1.237  10.021  18.923  0.00  0.00    +0.000 A 
ATOM      4  C   UNL     1       1.922   9.559  17.791  0.00  0.00    +0.000 A 
ATOM      5  C   UNL     1       2.513   8.259  17.771  0.00  0.00    +0.000 A 
ATOM      6  C   UNL     1       2.491   7.378  18.875  0.00  0.00    +0.000 A 
ATOM      7  C   UNL     1       1.761   7.739  19.984  0.00  0.00    +0.000 A 
ATOM      8  C   UNL     1       1.087   8.948  19.946  0.00  0.00    +0.000 A 
ATOM      9  O   UNL     1       0.108   9.024  20.936  0.00  0.00    +0.000 OA
ATOM     10  C   UNL     1      -0.307  10.344  20.767  0.00  0.00    +0.000 C 
ATOM     11  C   UNL     1       1.155  11.147  21.380  0.00  0.00    +0.000 C 
ATOM     12  N   UNL     1      -1.289  10.949  21.586  0.00  0.00    +0.000 NA
ATOM     13  C   UNL     1      -1.196  12.154  21.136  0.00  0.00    +0.000 A 
ATOM     14  S   UNL     1      -1.935  13.348  22.091  0.00  0.00    +0.000 S 
ATOM     15  C   UNL     1      -1.869  14.477  20.802  0.00  0.00    +0.000 A 
ATOM     16  C   UNL     1      -2.664  15.575  20.894  0.00  0.00    +0.000 C 
ATOM     17  C   UNL     1      -0.891  13.897  19.691  0.00  0.00    +0.000 A 
ATOM     18  O   UNL     1      -0.622  14.509  18.660  0.00  0.00    +0.000 OA
ATOM     19  N   UNL     1      -0.495  12.572  19.976  0.00  0.00    +0.000 N 
ENDROOT
BRANCH  16  20
ATOM     20  C   UNL     1      -3.707  15.773  21.977  0.00  0.00    +0.000 A 
ATOM     21  C   UNL     1      -5.011  15.274  21.784  0.00  0.00    +0.000 A 
ATOM     22  C   UNL     1      -6.009  15.377  22.779  0.00  0.00    +0.000 A 
ATOM     23  C   UNL     1      -5.717  15.977  23.997  0.00  0.00    +0.000 A 
ATOM     24  C   UNL     1      -4.427  16.449  24.211  0.00  0.00    +0.000 A 
ATOM     25  F   UNL     1      -4.133  16.997  25.395  0.00  0.00    +0.000 F 
ATOM     26  C   UNL     1      -3.422  16.345  23.226  0.00  0.00    +0.000 A 
ENDBRANCH  16  20
BRANCH   1  27
ATOM     27  C   UNL     1      -2.116  10.977  18.461  0.00  0.00    +0.000 C 
ATOM     28  O   UNL     1      -3.199  11.308  18.909  0.00  0.00    +0.000 OA
BRANCH  27  30
ATOM     29  C   UNL     1      -2.642  10.993  16.104  0.00  0.00    +0.000 C 
ATOM     30  O   UNL     1      -1.705  11.201  17.159  0.00  0.00    +0.000 OA
ENDBRANCH  27  30
ENDBRANCH   1  27
TORSDOF 3
ENDMDL
MODEL 6
REMARK VINA RESULT:      -6.3      7.395     10.838
REMARK  Name = 
REMARK  5 active torsions:
REMARK  status: ('A' for Active; 'I' for Inactive)
REMARK    1  A    between atoms: C_1  and  O_2
REMARK    2  A    between atoms: O_2  and  C_3
REMARK    3  A    between atoms: C_3  and  C_5
REMARK    4  A    between atoms: C_14  and  C_15
REMARK    5  A    between atoms: C_20  and  C_21
REMARK                            x       y       z     vdW  Elec       q    Type
REMARK                         _______ _______ _______ _____ _____    ______ ____
ROOT
ATOM      1  C   UNL     1      -0.933  10.573  19.285  0.00  0.00    +0.000 C 
ATOM      2  C   UNL     1       0.125  11.521  18.893  0.00  0.00    +0.000 C 
ATOM      3  C   UNL     1       1.188  10.139  18.928  0.00  0.00    +0.000 A 
ATOM      4  C   UNL     1       1.823   9.654  17.777  0.00  0.00    +0.000 A 
ATOM      5  C   UNL     1       2.385   8.342  17.746  0.00  0.00    +0.000 A 
ATOM      6  C   UNL     1       2.383   7.469  18.857  0.00  0.00    +0.000 A 
ATOM      7  C   UNL     1       1.700   7.855  19.988  0.00  0.00    +0.000 A 
ATOM      8  C   UNL     1       1.052   9.077  19.965  0.00  0.00    +0.000 A 
ATOM      9  O   UNL     1       0.110   9.182  20.988  0.00  0.00    +0.000 OA
ATOM     10  C   UNL     1      -0.282  10.509  20.823  0.00  0.00    +0.000 C 
ATOM     11  C   UNL     1       1.217  11.285  21.377  0.00  0.00    +0.000 C 
ATOM     12  N   UNL     1      -1.221  11.141  21.670  0.00  0.00    +0.000 NA
ATOM     13  C   UNL     1      -1.119  12.341  21.208  0.00  0.00    +0.000 A 
ATOM     14  S   UNL     1      -1.797  13.558  22.179  0.00  0.00    +0.000 S 
ATOM     15  C   UNL     1      -1.753  14.675  20.879  0.00  0.00    +0.000 A 
ATOM     16  C   UNL     1      -2.520  15.791  20.990  0.00  0.00    +0.000 C 
ATOM     17  C   UNL     1      -0.827  14.066  19.739  0.00  0.00    +0.000 A 
ATOM     18  O   UNL     1      -0.582  14.664  18.695  0.00  0.00    +0.000 OA
ATOM     19  N   UNL     1      -0.451  12.735  20.021  0.00  0.00    +0.000 N 
ENDROOT
BRANCH  16  20
ATOM     20  C   UNL     1      -3.520  16.020  22.108  0.00  0.00    +0.000 A 
ATOM     21  C   UNL     1      -3.159  16.828  23.206  0.00  0.00    +0.000 A 
ATOM     22  C   UNL     1      -4.065  17.125  24.248  0.00  0.00    +0.000 A 
ATOM     23  C   UNL     1      -5.360  16.623  24.207  0.00  0.00    +0.000 A 
ATOM     24  C   UNL     1      -5.737  15.847  23.118  0.00  0.00    +0.000 A 
ATOM     25  F   UNL     1      -6.993  15.391  23.058  0.00  0.00    +0.000 F 
ATOM     26  C   UNL     1      -4.841  15.551  22.068  0.00  0.00    +0.000 A 
ENDBRANCH  16  20
BRANCH   1  27
ATOM     27  C   UNL     1      -2.158  11.164  18.577  0.00  0.00    +0.000 C 
ATOM     28  O   UNL     1      -3.224  11.504  19.057  0.00  0.00    +0.000 OA
BRANCH  27  30
ATOM     29  C   UNL     1      -2.688  11.043  16.224  0.00  0.00    +0.000 C 
ATOM     30  O   UNL     1      -1.780  11.395  17.266  0.00  0.00    +0.000 OA
ENDBRANCH  27  30
ENDBRANCH   1  27
TORSDOF 3
ENDMDL
MODEL 7
REMARK VINA RESULT:      -6.3      4.250      5.939
REMARK  Name = 
REMARK  5 active torsions:
REMARK  status: ('A' for Active; 'I' for Inactive)
REMARK    1  A    between atoms: C_1  and  O_2
REMARK    2  A    between atoms: O_2  and  C_3
REMARK    3  A    between atoms: C_3  and  C_5
REMARK    4  A    between atoms: C_14  and  C_15
REMARK    5  A    between atoms: C_20  and  C_21
REMARK                            x       y       z     vdW  Elec       q    Type
REMARK                         _______ _______ _______ _____ _____    ______ ____
ROOT
ATOM      1  C   UNL     1      -0.740  11.767  20.665  0.00  0.00    +0.000 C 
ATOM      2  C   UNL     1      -1.243  13.139  20.857  0.00  0.00    +0.000 C 
ATOM      3  C   UNL     1      -2.479  12.702  19.708  0.00  0.00    +0.000 A 
ATOM      4  C   UNL     1      -3.835  12.639  20.057  0.00  0.00    +0.000 A 
ATOM      5  C   UNL     1      -4.774  11.947  19.234  0.00  0.00    +0.000 A 
ATOM      6  C   UNL     1      -4.427  11.323  18.015  0.00  0.00    +0.000 A 
ATOM      7  C   UNL     1      -3.098  11.276  17.662  0.00  0.00    +0.000 A 
ATOM      8  C   UNL     1      -2.180  11.842  18.529  0.00  0.00    +0.000 A 
ATOM      9  O   UNL     1      -0.881  11.409  18.262  0.00  0.00    +0.000 OA
ATOM     10  C   UNL     1      -0.169  12.206  19.156  0.00  0.00    +0.000 C 
ATOM     11  C   UNL     1      -0.403  13.768  18.343  0.00  0.00    +0.000 C 
ATOM     12  N   UNL     1       1.242  12.179  19.250  0.00  0.00    +0.000 NA
ATOM     13  C   UNL     1       1.397  13.161  20.072  0.00  0.00    +0.000 A 
ATOM     14  S   UNL     1       2.979  13.763  20.200  0.00  0.00    +0.000 S 
ATOM     15  C   UNL     1       2.589  14.594  21.648  0.00  0.00    +0.000 A 
ATOM     16  C   UNL     1       3.622  15.011  22.425  0.00  0.00    +0.000 C 
ATOM     17  C   UNL     1       1.006  14.613  21.791  0.00  0.00    +0.000 A 
ATOM     18  O   UNL     1       0.432  15.174  22.722  0.00  0.00    +0.000 OA
ATOM     19  N   UNL     1       0.378  13.811  20.815  0.00  0.00    +0.000 N 
ENDROOT
BRANCH  16  20
ATOM     20  C   UNL     1       5.072  14.646  22.168  0.00  0.00    +0.000 A 
ATOM     21  C   UNL     1       5.871  15.493  21.372  0.00  0.00    +0.000 A 
ATOM     22  C   UNL     1       7.241  15.237  21.145  0.00  0.00    +0.000 A 
ATOM     23  C   UNL     1       7.845  14.127  21.720  0.00  0.00    +0.000 A 
ATOM     24  C   UNL     1       7.077  13.298  22.529  0.00  0.00    +0.000 A 
ATOM     25  F   UNL     1       7.663  12.247  23.112  0.00  0.00    +0.000 F 
ATOM     26  C   UNL     1       5.709  13.550  22.767  0.00  0.00    +0.000 A 
ENDBRANCH  16  20
BRANCH   1  27
ATOM     27  C   UNL     1      -0.183  11.442  22.056  0.00  0.00    +0.000 C 
ATOM     28  O   UNL     1      -0.591  11.810  23.143  0.00  0.00    +0.000 OA
BRANCH  27  30
ATOM     29  C   UNL     1       0.465   9.243  21.298  0.00  0.00    +0.000 C 
ATOM     30  O   UNL     1       0.814  10.502  21.869  0.00  0.00    +0.000 OA
ENDBRANCH  27  30
ENDBRANCH   1  27
TORSDOF 3
ENDMDL
MODEL 8
REMARK VINA RESULT:      -6.2      5.881      7.408
REMARK  Name = 
REMARK  5 active torsions:
REMARK  status: ('A' for Active; 'I' for Inactive)
REMARK    1  A    between atoms: C_1  and  O_2
REMARK    2  A    between atoms: O_2  and  C_3
REMARK    3  A    between atoms: C_3  and  C_5
REMARK    4  A    between atoms: C_14  and  C_15
REMARK    5  A    between atoms: C_20  and  C_21
REMARK                            x       y       z     vdW  Elec       q    Type
REMARK                         _______ _______ _______ _____ _____    ______ ____
ROOT
ATOM      1  C   UNL     1       0.258  13.106  20.597  0.00  0.00    +0.000 C 
ATOM      2  C   UNL     1      -0.998  12.622  19.997  0.00  0.00    +0.000 C 
ATOM      3  C   UNL     1      -1.792  13.535  21.251  0.00  0.00    +0.000 A 
ATOM      4  C   UNL     1      -2.610  14.638  20.969  0.00  0.00    +0.000 A 
ATOM      5  C   UNL     1      -2.953  15.578  21.988  0.00  0.00    +0.000 A 
ATOM      6  C   UNL     1      -2.541  15.451  23.333  0.00  0.00    +0.000 A 
ATOM      7  C   UNL     1      -1.666  14.438  23.654  0.00  0.00    +0.000 A 
ATOM      8  C   UNL     1      -1.240  13.606  22.633  0.00  0.00    +0.000 A 
ATOM      9  O   UNL     1      -0.102  12.886  22.994  0.00  0.00    +0.000 OA
ATOM     10  C   UNL     1       0.028  12.059  21.880  0.00  0.00    +0.000 C 
ATOM     11  C   UNL     1      -1.387  11.025  22.169  0.00  0.00    +0.000 C 
ATOM     12  N   UNL     1       1.040  11.078  21.769  0.00  0.00    +0.000 NA
ATOM     13  C   UNL     1       0.642  10.516  20.677  0.00  0.00    +0.000 A 
ATOM     14  S   UNL     1       1.344   9.009  20.333  0.00  0.00    +0.000 S 
ATOM     15  C   UNL     1       0.807   9.085  18.707  0.00  0.00    +0.000 A 
ATOM     16  C   UNL     1       1.396   8.246  17.816  0.00  0.00    +0.000 C 
ATOM     17  C   UNL     1      -0.268  10.252  18.599  0.00  0.00    +0.000 A 
ATOM     18  O   UNL     1      -0.855  10.517  17.553  0.00  0.00    +0.000 OA
ATOM     19  N   UNL     1      -0.354  11.003  19.791  0.00  0.00    +0.000 N 
ENDROOT
BRANCH  16  20
ATOM     20  C   UNL     1       2.594   7.375  18.142  0.00  0.00    +0.000 A 
ATOM     21  C   UNL     1       2.469   6.357  19.110  0.00  0.00    +0.000 A 
ATOM     22  C   UNL     1       3.531   5.477  19.415  0.00  0.00    +0.000 A 
ATOM     23  C   UNL     1       4.744   5.595  18.748  0.00  0.00    +0.000 A 
ATOM     24  C   UNL     1       4.873   6.577  17.773  0.00  0.00    +0.000 A 
ATOM     25  F   UNL     1       6.027   6.671  17.104  0.00  0.00    +0.000 F 
ATOM     26  C   UNL     1       3.815   7.455  17.456  0.00  0.00    +0.000 A 
ENDBRANCH  16  20
BRANCH   1  27
ATOM     27  C   UNL     1       1.162  13.236  19.366  0.00  0.00    +0.000 C 
ATOM     28  O   UNL     1       0.846  13.453  18.210  0.00  0.00    +0.000 OA
BRANCH  27  30
ATOM     29  C   UNL     1       2.838  14.125  20.860  0.00  0.00    +0.000 C 
ATOM     30  O   UNL     1       2.464  13.210  19.831  0.00  0.00    +0.000 OA
ENDBRANCH  27  30
ENDBRANCH   1  27
TORSDOF 3
ENDMDL
MODEL 9
REMARK VINA RESULT:      -6.2      4.921      8.382
REMARK  Name = 
REMARK  5 active torsions:
REMARK  status: ('A' for Active; 'I' for Inactive)
REMARK    1  A    between atoms: C_1  and  O_2
REMARK    2  A    between atoms: O_2  and  C_3
REMARK    3  A    between atoms: C_3  and  C_5
REMARK    4  A    between atoms: C_14  and  C_15
REMARK    5  A    between atoms: C_20  and  C_21
REMARK                            x       y       z     vdW  Elec       q    Type
REMARK                         _______ _______ _______ _____ _____    ______ ____
ROOT
ATOM      1  C   UNL     1       1.466  15.490  21.215  0.00  0.00    +0.000 C 
ATOM      2  C   UNL     1       2.317  14.345  21.583  0.00  0.00    +0.000 C 
ATOM      3  C   UNL     1       3.629  15.493  21.580  0.00  0.00    +0.000 A 
ATOM      4  C   UNL     1       4.342  15.818  22.742  0.00  0.00    +0.000 A 
ATOM      5  C   UNL     1       5.149  16.994  22.804  0.00  0.00    +0.000 A 
ATOM      6  C   UNL     1       5.322  17.876  21.714  0.00  0.00    +0.000 A 
ATOM      7  C   UNL     1       4.582  17.658  20.575  0.00  0.00    +0.000 A 
ATOM      8  C   UNL     1       3.707  16.585  20.569  0.00  0.00    +0.000 A 
ATOM      9  O   UNL     1       2.767  16.690  19.545  0.00  0.00    +0.000 OA
ATOM     10  C   UNL     1       2.122  15.462  19.678  0.00  0.00    +0.000 C 
ATOM     11  C   UNL     1       3.444  14.421  19.104  0.00  0.00    +0.000 C 
ATOM     12  N   UNL     1       1.082  15.046  18.816  0.00  0.00    +0.000 NA
ATOM     13  C   UNL     1       0.946  13.838  19.250  0.00  0.00    +0.000 A 
ATOM     14  S   UNL     1       0.047  12.800  18.251  0.00  0.00    +0.000 S 
ATOM     15  C   UNL     1      -0.133  11.666  19.523  0.00  0.00    +0.000 A 
ATOM     16  C   UNL     1      -1.103  10.724  19.387  0.00  0.00    +0.000 C 
ATOM     17  C   UNL     1       0.889  12.056  20.677  0.00  0.00    +0.000 A 
ATOM     18  O   UNL     1       1.009  11.397  21.707  0.00  0.00    +0.000 OA
ATOM     19  N   UNL     1       1.520  13.294  20.427  0.00  0.00    +0.000 N 
ENDROOT
BRANCH  16  20
ATOM     20  C   UNL     1      -2.123  10.721  18.264  0.00  0.00    +0.000 A 
ATOM     21  C   UNL     1      -3.280  11.520  18.376  0.00  0.00    +0.000 A 
ATOM     22  C   UNL     1      -4.237  11.604  17.341  0.00  0.00    +0.000 A 
ATOM     23  C   UNL     1      -4.050  10.892  16.162  0.00  0.00    +0.000 A 
ATOM     24  C   UNL     1      -2.901  10.122  16.028  0.00  0.00    +0.000 A 
ATOM     25  F   UNL     1      -2.700   9.463  14.881  0.00  0.00    +0.000 F 
ATOM     26  C   UNL     1      -1.936  10.038  17.054  0.00  0.00    +0.000 A 
ENDBRANCH  16  20
BRANCH   1  27
ATOM     27  C   UNL     1       0.146  15.133  21.909  0.00  0.00    +0.000 C 
ATOM     28  O   UNL     1      -0.030  14.454  22.905  0.00  0.00    +0.000 OA
BRANCH  27  30
ATOM     29  C   UNL     1      -0.715  17.283  21.225  0.00  0.00    +0.000 C 
ATOM     30  O   UNL     1      -0.842  15.863  21.273  0.00  0.00    +0.000 OA
ENDBRANCH  27  30
ENDBRANCH   1  27
TORSDOF 3
ENDMDL
