MODEL 1
REMARK VINA RESULT:      -8.3      0.000      0.000
REMARK  Name = 
REMARK  5 active torsions:
REMARK  status: ('A' for Active; 'I' for Inactive)
REMARK    1  A    between atoms: C_1  and  C_2
REMARK    2  A    between atoms: N_8  and  C_9
REMARK    3  A    between atoms: N_14  and  C_15
REMARK    4  A    between atoms: C_15  and  C_16
REMARK    5  A    between atoms: C_22  and  C_23
REMARK                            x       y       z     vdW  Elec       q    Type
REMARK                         _______ _______ _______ _____ _____    ______ ____
ROOT
ATOM      1  C   UNL     1       0.965   6.967  21.093  0.00  0.00    +0.000 C 
ATOM      2  C   UNL     1       1.847   5.913  20.481  0.00  0.00    +0.000 A 
ATOM      3  C   UNL     1       1.797   4.655  21.118  0.00  0.00    +0.000 A 
ATOM      4  C   UNL     1       2.583   3.597  20.696  0.00  0.00    +0.000 A 
ATOM      5  C   UNL     1       3.426   3.764  19.609  0.00  0.00    +0.000 A 
ATOM      6  C   UNL     1       3.501   4.983  18.906  0.00  0.00    +0.000 A 
ATOM      7  C   UNL     1       2.702   6.108  19.359  0.00  0.00    +0.000 A 
ATOM      8  N   UNL     1       2.810   7.352  18.651  0.00  0.00    +0.000 N 
ATOM      9  C   UNL     1       4.035   7.491  17.863  0.00  0.00    +0.000 C 
ATOM     10  C   UNL     1       4.181   6.274  16.957  0.00  0.00    +0.000 C 
ATOM     11  N   UNL     1       4.319   5.069  17.767  0.00  0.00    +0.000 N 
ENDROOT
BRANCH   8  12
ATOM     12  C   UNL     1       1.959   8.532  18.800  0.00  0.00    +0.000 C 
ATOM     13  C   UNL     1       0.908   8.848  17.766  0.00  0.00    +0.000 C 
ATOM     14  C   UNL     1       2.099   9.737  17.896  0.00  0.00    +0.000 C 
ENDBRANCH   8  12
BRANCH  11  15
ATOM     15  C   UNL     1       5.386   4.130  17.458  0.00  0.00    +0.000 C 
BRANCH  15  16
ATOM     16  C   UNL     1       6.009   4.294  16.087  0.00  0.00    +0.000 A 
ATOM     17  C   UNL     1       7.050   5.220  15.982  0.00  0.00    +0.000 A 
ATOM     18  N   UNL     1       7.713   5.564  14.853  0.00  0.00    +0.000 NA
ATOM     19  C   UNL     1       7.279   4.886  13.778  0.00  0.00    +0.000 A 
ATOM     20  N   UNL     1       7.754   5.023  12.510  0.00  0.00    +0.000 N 
ATOM     21  N   UNL     1       7.172   4.208  11.616  0.00  0.00    +0.000 NA
ATOM     22  C   UNL     1       6.288   3.510  12.349  0.00  0.00    +0.000 A 
ATOM     23  C   UNL     1       5.504   2.450  11.669  0.00  0.00    +0.000 C 
ATOM     24  C   UNL     1       6.285   3.917  13.718  0.00  0.00    +0.000 A 
ATOM     25  C   UNL     1       5.614   3.610  14.923  0.00  0.00    +0.000 A 
ATOM     26  H   UNL     1       8.482   5.655  12.209  0.00  0.00    +0.000 HD
ENDBRANCH  15  16
ENDBRANCH  11  15
TORSDOF 3
ENDMDL
MODEL 2
REMARK VINA RESULT:      -7.8      3.912      8.206
REMARK  Name = 
REMARK  5 active torsions:
REMARK  status: ('A' for Active; 'I' for Inactive)
REMARK    1  A    between atoms: C_1  and  C_2
REMARK    2  A    between atoms: N_8  and  C_9
REMARK    3  A    between atoms: N_14  and  C_15
REMARK    4  A    between atoms: C_15  and  C_16
REMARK    5  A    between atoms: C_22  and  C_23
REMARK                            x       y       z     vdW  Elec       q    Type
REMARK                         _______ _______ _______ _____ _____    ______ ____
ROOT
ATOM      1  C   UNL     1       4.085   3.364  17.937  0.00  0.00    +0.000 C 
ATOM      2  C   UNL     1       3.791   4.840  17.914  0.00  0.00    +0.000 A 
ATOM      3  C   UNL     1       4.451   5.559  16.895  0.00  0.00    +0.000 A 
ATOM      4  C   UNL     1       4.314   6.931  16.771  0.00  0.00    +0.000 A 
ATOM      5  C   UNL     1       3.493   7.618  17.652  0.00  0.00    +0.000 A 
ATOM      6  C   UNL     1       2.780   6.958  18.672  0.00  0.00    +0.000 A 
ATOM      7  C   UNL     1       2.939   5.522  18.828  0.00  0.00    +0.000 A 
ATOM      8  N   UNL     1       2.229   4.867  19.890  0.00  0.00    +0.000 N 
ATOM      9  C   UNL     1       1.802   5.759  20.969  0.00  0.00    +0.000 C 
ATOM     10  C   UNL     1       1.032   6.929  20.367  0.00  0.00    +0.000 C 
ATOM     11  N   UNL     1       1.907   7.696  19.487  0.00  0.00    +0.000 N 
ENDROOT
BRANCH   8  12
ATOM     12  C   UNL     1       2.080   3.427  20.099  0.00  0.00    +0.000 C 
ATOM     13  C   UNL     1       1.233   2.906  21.233  0.00  0.00    +0.000 C 
ATOM     14  C   UNL     1       2.712   2.722  21.278  0.00  0.00    +0.000 C 
ENDBRANCH   8  12
BRANCH  11  15
ATOM     15  C   UNL     1       1.949   9.144  19.624  0.00  0.00    +0.000 C 
BRANCH  15  16
ATOM     16  C   UNL     1       0.664   9.861  19.266  0.00  0.00    +0.000 A 
ATOM     17  C   UNL     1       0.206  10.814  20.179  0.00  0.00    +0.000 A 
ATOM     18  N   UNL     1      -0.937  11.533  20.090  0.00  0.00    +0.000 NA
ATOM     19  C   UNL     1      -1.629  11.258  18.972  0.00  0.00    +0.000 A 
ATOM     20  N   UNL     1      -2.815  11.823  18.616  0.00  0.00    +0.000 N 
ATOM     21  N   UNL     1      -3.290  11.398  17.434  0.00  0.00    +0.000 NA
ATOM     22  C   UNL     1      -2.358  10.527  17.010  0.00  0.00    +0.000 A 
ATOM     23  C   UNL     1      -2.541   9.908  15.675  0.00  0.00    +0.000 C 
ATOM     24  C   UNL     1      -1.300  10.370  17.956  0.00  0.00    +0.000 A 
ATOM     25  C   UNL     1      -0.104   9.633  18.109  0.00  0.00    +0.000 A 
ATOM     26  H   UNL     1      -3.334  12.510  19.144  0.00  0.00    +0.000 HD
ENDBRANCH  15  16
ENDBRANCH  11  15
TORSDOF 3
ENDMDL
MODEL 3
REMARK VINA RESULT:      -7.7      1.916      4.455
REMARK  Name = 
REMARK  5 active torsions:
REMARK  status: ('A' for Active; 'I' for Inactive)
REMARK    1  A    between atoms: C_1  and  C_2
REMARK    2  A    between atoms: N_8  and  C_9
REMARK    3  A    between atoms: N_14  and  C_15
REMARK    4  A    between atoms: C_15  and  C_16
REMARK    5  A    between atoms: C_22  and  C_23
REMARK                            x       y       z     vdW  Elec       q    Type
REMARK                         _______ _______ _______ _____ _____    ______ ____
ROOT
ATOM      1  C   UNL     1       0.971  11.546  19.898  0.00  0.00    +0.000 C 
ATOM      2  C   UNL     1       1.491  10.287  19.259  0.00  0.00    +0.000 A 
ATOM      3  C   UNL     1       1.970  10.446  17.942  0.00  0.00    +0.000 A 
ATOM      4  C   UNL     1       2.442   9.372  17.207  0.00  0.00    +0.000 A 
ATOM      5  C   UNL     1       2.467   8.110  17.781  0.00  0.00    +0.000 A 
ATOM      6  C   UNL     1       2.034   7.886  19.103  0.00  0.00    +0.000 A 
ATOM      7  C   UNL     1       1.511   9.002  19.872  0.00  0.00    +0.000 A 
ATOM      8  N   UNL     1       1.047   8.754  21.208  0.00  0.00    +0.000 N 
ATOM      9  C   UNL     1       0.717   7.354  21.480  0.00  0.00    +0.000 C 
ATOM     10  C   UNL     1       1.904   6.481  21.089  0.00  0.00    +0.000 C 
ATOM     11  N   UNL     1       2.153   6.600  19.656  0.00  0.00    +0.000 N 
ENDROOT
BRANCH   8  12
ATOM     12  C   UNL     1       0.682   9.747  22.218  0.00  0.00    +0.000 C 
ATOM     13  C   UNL     1      -0.032   9.325  23.477  0.00  0.00    +0.000 C 
ATOM     14  C   UNL     1      -0.756  10.145  22.463  0.00  0.00    +0.000 C 
ENDBRANCH   8  12
BRANCH  11  15
ATOM     15  C   UNL     1       2.333   5.390  18.869  0.00  0.00    +0.000 C 
BRANCH  15  16
ATOM     16  C   UNL     1       3.758   5.111  18.436  0.00  0.00    +0.000 A 
ATOM     17  C   UNL     1       4.720   5.066  19.450  0.00  0.00    +0.000 A 
ATOM     18  N   UNL     1       6.051   4.885  19.290  0.00  0.00    +0.000 NA
ATOM     19  C   UNL     1       6.395   4.718  18.003  0.00  0.00    +0.000 A 
ATOM     20  N   UNL     1       7.659   4.520  17.539  0.00  0.00    +0.000 N 
ATOM     21  N   UNL     1       7.735   4.353  16.210  0.00  0.00    +0.000 NA
ATOM     22  C   UNL     1       6.456   4.439  15.804  0.00  0.00    +0.000 A 
ATOM     23  C   UNL     1       6.168   4.228  14.364  0.00  0.00    +0.000 C 
ATOM     24  C   UNL     1       5.566   4.704  16.889  0.00  0.00    +0.000 A 
ATOM     25  C   UNL     1       4.187   4.915  17.111  0.00  0.00    +0.000 A 
ATOM     26  H   UNL     1       8.502   4.483  18.096  0.00  0.00    +0.000 HD
ENDBRANCH  15  16
ENDBRANCH  11  15
TORSDOF 3
ENDMDL
MODEL 4
REMARK VINA RESULT:      -7.6      2.977      7.925
REMARK  Name = 
REMARK  5 active torsions:
REMARK  status: ('A' for Active; 'I' for Inactive)
REMARK    1  A    between atoms: C_1  and  C_2
REMARK    2  A    between atoms: N_8  and  C_9
REMARK    3  A    between atoms: N_14  and  C_15
REMARK    4  A    between atoms: C_15  and  C_16
REMARK    5  A    between atoms: C_22  and  C_23
REMARK                            x       y       z     vdW  Elec       q    Type
REMARK                         _______ _______ _______ _____ _____    ______ ____
ROOT
ATOM      1  C   UNL     1       4.620   2.727  19.897  0.00  0.00    +0.000 C 
ATOM      2  C   UNL     1       3.584   3.806  19.735  0.00  0.00    +0.000 A 
ATOM      3  C   UNL     1       2.369   3.567  20.413  0.00  0.00    +0.000 A 
ATOM      4  C   UNL     1       1.305   4.449  20.326  0.00  0.00    +0.000 A 
ATOM      5  C   UNL     1       1.437   5.606  19.575  0.00  0.00    +0.000 A 
ATOM      6  C   UNL     1       2.633   5.923  18.900  0.00  0.00    +0.000 A 
ATOM      7  C   UNL     1       3.745   4.990  18.962  0.00  0.00    +0.000 A 
ATOM      8  N   UNL     1       4.947   5.312  18.246  0.00  0.00    +0.000 N 
ATOM      9  C   UNL     1       4.764   6.289  17.171  0.00  0.00    +0.000 C 
ATOM     10  C   UNL     1       4.058   7.516  17.734  0.00  0.00    +0.000 C 
ATOM     11  N   UNL     1       2.731   7.145  18.216  0.00  0.00    +0.000 N 
ENDROOT
BRANCH   8  12
ATOM     12  C   UNL     1       6.239   4.634  18.335  0.00  0.00    +0.000 C 
ATOM     13  C   UNL     1       7.520   5.428  18.285  0.00  0.00    +0.000 C 
ATOM     14  C   UNL     1       7.170   4.528  17.148  0.00  0.00    +0.000 C 
ENDBRANCH   8  12
BRANCH  11  15
ATOM     15  C   UNL     1       1.587   7.953  17.822  0.00  0.00    +0.000 C 
BRANCH  15  16
ATOM     16  C   UNL     1       1.352   9.188  18.666  0.00  0.00    +0.000 A 
ATOM     17  C   UNL     1       1.822  10.398  18.146  0.00  0.00    +0.000 A 
ATOM     18  N   UNL     1       1.768  11.609  18.747  0.00  0.00    +0.000 NA
ATOM     19  C   UNL     1       1.169  11.559  19.948  0.00  0.00    +0.000 A 
ATOM     20  N   UNL     1       0.975  12.618  20.781  0.00  0.00    +0.000 N 
ATOM     21  N   UNL     1       0.324  12.311  21.914  0.00  0.00    +0.000 NA
ATOM     22  C   UNL     1       0.082  10.994  21.796  0.00  0.00    +0.000 A 
ATOM     23  C   UNL     1      -0.698  10.331  22.869  0.00  0.00    +0.000 C 
ATOM     24  C   UNL     1       0.623  10.455  20.588  0.00  0.00    +0.000 A 
ATOM     25  C   UNL     1       0.722   9.212  19.924  0.00  0.00    +0.000 A 
ATOM     26  H   UNL     1       1.262  13.572  20.614  0.00  0.00    +0.000 HD
ENDBRANCH  15  16
ENDBRANCH  11  15
TORSDOF 3
ENDMDL
MODEL 5
REMARK VINA RESULT:      -7.6      4.414      6.629
REMARK  Name = 
REMARK  5 active torsions:
REMARK  status: ('A' for Active; 'I' for Inactive)
REMARK    1  A    between atoms: C_1  and  C_2
REMARK    2  A    between atoms: N_8  and  C_9
REMARK    3  A    between atoms: N_14  and  C_15
REMARK    4  A    between atoms: C_15  and  C_16
REMARK    5  A    between atoms: C_22  and  C_23
REMARK                            x       y       z     vdW  Elec       q    Type
REMARK                         _______ _______ _______ _____ _____    ______ ____
ROOT
ATOM      1  C   UNL     1      -1.858  12.130  21.807  0.00  0.00    +0.000 C 
ATOM      2  C   UNL     1      -0.879  10.987  21.808  0.00  0.00    +0.000 A 
ATOM      3  C   UNL     1      -0.632  10.420  23.076  0.00  0.00    +0.000 A 
ATOM      4  C   UNL     1       0.275   9.388  23.245  0.00  0.00    +0.000 A 
ATOM      5  C   UNL     1       0.945   8.882  22.143  0.00  0.00    +0.000 A 
ATOM      6  C   UNL     1       0.723   9.379  20.843  0.00  0.00    +0.000 A 
ATOM      7  C   UNL     1      -0.207  10.480  20.660  0.00  0.00    +0.000 A 
ATOM      8  N   UNL     1      -0.402  10.997  19.335  0.00  0.00    +0.000 N 
ATOM      9  C   UNL     1       0.681  10.683  18.401  0.00  0.00    +0.000 C 
ATOM     10  C   UNL     1       0.935   9.181  18.425  0.00  0.00    +0.000 C 
ATOM     11  N   UNL     1       1.376   8.776  19.756  0.00  0.00    +0.000 N 
ENDROOT
BRANCH   8  12
ATOM     12  C   UNL     1      -1.425  11.944  18.895  0.00  0.00    +0.000 C 
ATOM     13  C   UNL     1      -2.829  11.472  18.612  0.00  0.00    +0.000 C 
ATOM     14  C   UNL     1      -1.970  11.935  17.484  0.00  0.00    +0.000 C 
ENDBRANCH   8  12
BRANCH  11  15
ATOM     15  C   UNL     1       2.550   7.926  19.881  0.00  0.00    +0.000 C 
BRANCH  15  16
ATOM     16  C   UNL     1       2.320   6.462  19.570  0.00  0.00    +0.000 A 
ATOM     17  C   UNL     1       2.438   6.083  18.230  0.00  0.00    +0.000 A 
ATOM     18  N   UNL     1       2.226   4.848  17.719  0.00  0.00    +0.000 NA
ATOM     19  C   UNL     1       1.894   3.953  18.664  0.00  0.00    +0.000 A 
ATOM     20  N   UNL     1       1.620   2.638  18.448  0.00  0.00    +0.000 N 
ATOM     21  N   UNL     1       1.343   1.946  19.564  0.00  0.00    +0.000 NA
ATOM     22  C   UNL     1       1.453   2.861  20.542  0.00  0.00    +0.000 A 
ATOM     23  C   UNL     1       1.272   2.407  21.943  0.00  0.00    +0.000 C 
ATOM     24  C   UNL     1       1.767   4.157  20.032  0.00  0.00    +0.000 A 
ATOM     25  C   UNL     1       1.982   5.470  20.509  0.00  0.00    +0.000 A 
ATOM     26  H   UNL     1       1.619   2.165  17.555  0.00  0.00    +0.000 HD
ENDBRANCH  15  16
ENDBRANCH  11  15
TORSDOF 3
ENDMDL
MODEL 6
REMARK VINA RESULT:      -7.4      4.737      8.706
REMARK  Name = 
REMARK  5 active torsions:
REMARK  status: ('A' for Active; 'I' for Inactive)
REMARK    1  A    between atoms: C_1  and  C_2
REMARK    2  A    between atoms: N_8  and  C_9
REMARK    3  A    between atoms: N_14  and  C_15
REMARK    4  A    between atoms: C_15  and  C_16
REMARK    5  A    between atoms: C_22  and  C_23
REMARK                            x       y       z     vdW  Elec       q    Type
REMARK                         _______ _______ _______ _____ _____    ______ ____
ROOT
ATOM      1  C   UNL     1      -5.668  11.266  18.435  0.00  0.00    +0.000 C 
ATOM      2  C   UNL     1      -4.226  11.113  18.036  0.00  0.00    +0.000 A 
ATOM      3  C   UNL     1      -4.008  10.302  16.901  0.00  0.00    +0.000 A 
ATOM      4  C   UNL     1      -2.732  10.034  16.436  0.00  0.00    +0.000 A 
ATOM      5  C   UNL     1      -1.639  10.589  17.083  0.00  0.00    +0.000 A 
ATOM      6  C   UNL     1      -1.786  11.433  18.201  0.00  0.00    +0.000 A 
ATOM      7  C   UNL     1      -3.119  11.698  18.714  0.00  0.00    +0.000 A 
ATOM      8  N   UNL     1      -3.252  12.538  19.871  0.00  0.00    +0.000 N 
ATOM      9  C   UNL     1      -2.035  12.650  20.676  0.00  0.00    +0.000 C 
ATOM     10  C   UNL     1      -0.880  13.060  19.771  0.00  0.00    +0.000 C 
ATOM     11  N   UNL     1      -0.646  12.025  18.769  0.00  0.00    +0.000 N 
ENDROOT
BRANCH   8  12
ATOM     12  C   UNL     1      -4.486  13.097  20.422  0.00  0.00    +0.000 C 
ATOM     13  C   UNL     1      -4.442  13.985  21.640  0.00  0.00    +0.000 C 
ATOM     14  C   UNL     1      -5.055  12.629  21.743  0.00  0.00    +0.000 C 
ENDBRANCH   8  12
BRANCH  11  15
ATOM     15  C   UNL     1       0.713  11.554  18.546  0.00  0.00    +0.000 C 
BRANCH  15  16
ATOM     16  C   UNL     1       1.023  10.191  19.127  0.00  0.00    +0.000 A 
ATOM     17  C   UNL     1       0.570   9.949  20.427  0.00  0.00    +0.000 A 
ATOM     18  N   UNL     1       0.776   8.829  21.157  0.00  0.00    +0.000 NA
ATOM     19  C   UNL     1       1.474   7.900  20.485  0.00  0.00    +0.000 A 
ATOM     20  N   UNL     1       1.835   6.678  20.964  0.00  0.00    +0.000 N 
ATOM     21  N   UNL     1       2.506   5.920  20.083  0.00  0.00    +0.000 NA
ATOM     22  C   UNL     1       2.571   6.691  18.984  0.00  0.00    +0.000 A 
ATOM     23  C   UNL     1       3.204   6.120  17.770  0.00  0.00    +0.000 C 
ATOM     24  C   UNL     1       1.966   7.968  19.188  0.00  0.00    +0.000 A 
ATOM     25  C   UNL     1       1.737   9.167  18.476  0.00  0.00    +0.000 A 
ATOM     26  H   UNL     1       1.636   6.314  21.886  0.00  0.00    +0.000 HD
ENDBRANCH  15  16
ENDBRANCH  11  15
TORSDOF 3
ENDMDL
MODEL 7
REMARK VINA RESULT:      -7.3      4.216      7.845
REMARK  Name = 
REMARK  5 active torsions:
REMARK  status: ('A' for Active; 'I' for Inactive)
REMARK    1  A    between atoms: C_1  and  C_2
REMARK    2  A    between atoms: N_8  and  C_9
REMARK    3  A    between atoms: N_14  and  C_15
REMARK    4  A    between atoms: C_15  and  C_16
REMARK    5  A    between atoms: C_22  and  C_23
REMARK                            x       y       z     vdW  Elec       q    Type
REMARK                         _______ _______ _______ _____ _____    ______ ____
ROOT
ATOM      1  C   UNL     1      -4.273  12.420  20.015  0.00  0.00    +0.000 C 
ATOM      2  C   UNL     1      -3.178  11.828  19.170  0.00  0.00    +0.000 A 
ATOM      3  C   UNL     1      -3.615  11.228  17.970  0.00  0.00    +0.000 A 
ATOM      4  C   UNL     1      -2.730  10.604  17.107  0.00  0.00    +0.000 A 
ATOM      5  C   UNL     1      -1.378  10.583  17.413  0.00  0.00    +0.000 A 
ATOM      6  C   UNL     1      -0.870  11.192  18.578  0.00  0.00    +0.000 A 
ATOM      7  C   UNL     1      -1.794  11.824  19.503  0.00  0.00    +0.000 A 
ATOM      8  N   UNL     1      -1.265  12.415  20.700  0.00  0.00    +0.000 N 
ATOM      9  C   UNL     1       0.056  11.915  21.085  0.00  0.00    +0.000 C 
ATOM     10  C   UNL     1       0.997  12.038  19.893  0.00  0.00    +0.000 C 
ATOM     11  N   UNL     1       0.518  11.203  18.797  0.00  0.00    +0.000 N 
ENDROOT
BRANCH   8  12
ATOM     12  C   UNL     1      -1.972  13.271  21.652  0.00  0.00    +0.000 C 
ATOM     13  C   UNL     1      -1.338  13.626  22.973  0.00  0.00    +0.000 C 
ATOM     14  C   UNL     1      -2.531  12.732  22.950  0.00  0.00    +0.000 C 
ENDBRANCH   8  12
BRANCH  11  15
ATOM     15  C   UNL     1       1.455  10.318  18.122  0.00  0.00    +0.000 C 
BRANCH  15  16
ATOM     16  C   UNL     1       1.675   8.980  18.798  0.00  0.00    +0.000 A 
ATOM     17  C   UNL     1       1.237   8.870  20.121  0.00  0.00    +0.000 A 
ATOM     18  N   UNL     1       1.375   7.794  20.929  0.00  0.00    +0.000 NA
ATOM     19  C   UNL     1       1.985   6.767  20.316  0.00  0.00    +0.000 A 
ATOM     20  N   UNL     1       2.263   5.560  20.878  0.00  0.00    +0.000 N 
ATOM     21  N   UNL     1       2.855   4.690  20.045  0.00  0.00    +0.000 NA
ATOM     22  C   UNL     1       2.951   5.371  18.889  0.00  0.00    +0.000 A 
ATOM     23  C   UNL     1       3.510   4.665  17.711  0.00  0.00    +0.000 C 
ATOM     24  C   UNL     1       2.449   6.702  19.008  0.00  0.00    +0.000 A 
ATOM     25  C   UNL     1       2.294   7.860  18.213  0.00  0.00    +0.000 A 
ATOM     26  H   UNL     1       2.060   5.281  21.828  0.00  0.00    +0.000 HD
ENDBRANCH  15  16
ENDBRANCH  11  15
TORSDOF 3
ENDMDL
MODEL 8
REMARK VINA RESULT:      -7.3      2.918      7.698
REMARK  Name = 
REMARK  5 active torsions:
REMARK  status: ('A' for Active; 'I' for Inactive)
REMARK    1  A    between atoms: C_1  and  C_2
REMARK    2  A    between atoms: N_8  and  C_9
REMARK    3  A    between atoms: N_14  and  C_15
REMARK    4  A    between atoms: C_15  and  C_16
REMARK    5  A    between atoms: C_22  and  C_23
REMARK                            x       y       z     vdW  Elec       q    Type
REMARK                         _______ _______ _______ _____ _____    ______ ____
ROOT
ATOM      1  C   UNL     1       4.596   2.641  19.824  0.00  0.00    +0.000 C 
ATOM      2  C   UNL     1       3.579   3.745  19.725  0.00  0.00    +0.000 A 
ATOM      3  C   UNL     1       2.405   3.538  20.479  0.00  0.00    +0.000 A 
ATOM      4  C   UNL     1       1.359   4.446  20.457  0.00  0.00    +0.000 A 
ATOM      5  C   UNL     1       1.471   5.597  19.694  0.00  0.00    +0.000 A 
ATOM      6  C   UNL     1       2.629   5.883  18.943  0.00  0.00    +0.000 A 
ATOM      7  C   UNL     1       3.719   4.923  18.938  0.00  0.00    +0.000 A 
ATOM      8  N   UNL     1       4.881   5.213  18.145  0.00  0.00    +0.000 N 
ATOM      9  C   UNL     1       4.654   6.192  17.080  0.00  0.00    +0.000 C 
ATOM     10  C   UNL     1       4.015   7.438  17.682  0.00  0.00    +0.000 C 
ATOM     11  N   UNL     1       2.714   7.101  18.249  0.00  0.00    +0.000 N 
ENDROOT
BRANCH   8  12
ATOM     12  C   UNL     1       6.160   4.504  18.155  0.00  0.00    +0.000 C 
ATOM     13  C   UNL     1       7.450   5.263  18.329  0.00  0.00    +0.000 C 
ATOM     14  C   UNL     1       7.149   4.622  17.017  0.00  0.00    +0.000 C 
ENDBRANCH   8  12
BRANCH  11  15
ATOM     15  C   UNL     1       1.567   7.935  17.925  0.00  0.00    +0.000 C 
BRANCH  15  16
ATOM     16  C   UNL     1       1.483   9.237  18.694  0.00  0.00    +0.000 A 
ATOM     17  C   UNL     1       0.963   9.164  19.990  0.00  0.00    +0.000 A 
ATOM     18  N   UNL     1       0.751  10.201  20.833  0.00  0.00    +0.000 NA
ATOM     19  C   UNL     1       1.123  11.377  20.303  0.00  0.00    +0.000 A 
ATOM     20  N   UNL     1       1.025  12.589  20.915  0.00  0.00    +0.000 N 
ATOM     21  N   UNL     1       1.492  13.612  20.183  0.00  0.00    +0.000 NA
ATOM     22  C   UNL     1       1.919  13.025  19.051  0.00  0.00    +0.000 A 
ATOM     23  C   UNL     1       2.570  13.879  18.028  0.00  0.00    +0.000 C 
ATOM     24  C   UNL     1       1.681  11.617  19.054  0.00  0.00    +0.000 A 
ATOM     25  C   UNL     1       1.865  10.501  18.207  0.00  0.00    +0.000 A 
ATOM     26  H   UNL     1       0.652  12.765  21.838  0.00  0.00    +0.000 HD
ENDBRANCH  15  16
ENDBRANCH  11  15
TORSDOF 3
ENDMDL
MODEL 9
REMARK VINA RESULT:      -7.2      3.306      7.912
REMARK  Name = 
REMARK  5 active torsions:
REMARK  status: ('A' for Active; 'I' for Inactive)
REMARK    1  A    between atoms: C_1  and  C_2
REMARK    2  A    between atoms: N_8  and  C_9
REMARK    3  A    between atoms: N_14  and  C_15
REMARK    4  A    between atoms: C_15  and  C_16
REMARK    5  A    between atoms: C_22  and  C_23
REMARK                            x       y       z     vdW  Elec       q    Type
REMARK                         _______ _______ _______ _____ _____    ______ ____
ROOT
ATOM      1  C   UNL     1       3.507   2.460  17.725  0.00  0.00    +0.000 C 
ATOM      2  C   UNL     1       2.800   3.187  18.837  0.00  0.00    +0.000 A 
ATOM      3  C   UNL     1       2.191   2.351  19.797  0.00  0.00    +0.000 A 
ATOM      4  C   UNL     1       1.468   2.872  20.856  0.00  0.00    +0.000 A 
ATOM      5  C   UNL     1       1.353   4.246  20.995  0.00  0.00    +0.000 A 
ATOM      6  C   UNL     1       1.963   5.139  20.091  0.00  0.00    +0.000 A 
ATOM      7  C   UNL     1       2.700   4.602  18.961  0.00  0.00    +0.000 A 
ATOM      8  N   UNL     1       3.293   5.523  18.032  0.00  0.00    +0.000 N 
ATOM      9  C   UNL     1       2.706   6.864  18.057  0.00  0.00    +0.000 C 
ATOM     10  C   UNL     1       2.710   7.378  19.491  0.00  0.00    +0.000 C 
ATOM     11  N   UNL     1       1.874   6.521  20.325  0.00  0.00    +0.000 N 
ENDROOT
BRANCH   8  12
ATOM     12  C   UNL     1       4.237   5.213  16.959  0.00  0.00    +0.000 C 
ATOM     13  C   UNL     1       5.721   5.343  17.190  0.00  0.00    +0.000 C 
ATOM     14  C   UNL     1       5.038   6.292  16.264  0.00  0.00    +0.000 C 
ENDBRANCH   8  12
BRANCH  11  15
ATOM     15  C   UNL     1       0.893   7.135  21.207  0.00  0.00    +0.000 C 
BRANCH  15  16
ATOM     16  C   UNL     1       0.629   8.604  20.950  0.00  0.00    +0.000 A 
ATOM     17  C   UNL     1       1.220   9.509  21.837  0.00  0.00    +0.000 A 
ATOM     18  N   UNL     1       1.079  10.855  21.828  0.00  0.00    +0.000 NA
ATOM     19  C   UNL     1       0.297  11.282  20.824  0.00  0.00    +0.000 A 
ATOM     20  N   UNL     1      -0.025  12.579  20.567  0.00  0.00    +0.000 N 
ATOM     21  N   UNL     1      -0.801  12.747  19.485  0.00  0.00    +0.000 NA
ATOM     22  C   UNL     1      -0.976  11.497  19.021  0.00  0.00    +0.000 A 
ATOM     23  C   UNL     1      -1.747  11.322  17.766  0.00  0.00    +0.000 C 
ATOM     24  C   UNL     1      -0.333  10.524  19.845  0.00  0.00    +0.000 A 
ATOM     25  C   UNL     1      -0.167   9.122  19.912  0.00  0.00    +0.000 A 
ATOM     26  H   UNL     1       0.269  13.386  21.100  0.00  0.00    +0.000 HD
ENDBRANCH  15  16
ENDBRANCH  11  15
TORSDOF 3
ENDMDL
