MODEL 1
REMARK VINA RESULT:      -8.7      0.000      0.000
REMARK  Name = 
REMARK  3 active torsions:
REMARK  status: ('A' for Active; 'I' for Inactive)
REMARK    1  A    between atoms: C_2  and  C_3
REMARK    2  A    between atoms: C_3  and  N_4
REMARK    3  A    between atoms: C_19  and  C_20
REMARK                            x       y       z     vdW  Elec       q    Type
REMARK                         _______ _______ _______ _____ _____    ______ ____
ROOT
ATOM      1  O   UNL     1       5.091   3.546  19.400  0.00  0.00    +0.000 OA
ATOM      2  C   UNL     1       4.683   4.654  19.037  0.00  0.00    +0.000 C 
ATOM      3  N   UNL     1       3.423   5.018  19.418  0.00  0.00    +0.000 N 
ATOM      4  C   UNL     1       2.791   6.239  19.232  0.00  0.00    +0.000 A 
ATOM      5  C   UNL     1       2.644   6.798  17.973  0.00  0.00    +0.000 A 
ATOM      6  C   UNL     1       2.045   8.053  17.867  0.00  0.00    +0.000 A 
ATOM      7  C   UNL     1       1.589   8.723  19.009  0.00  0.00    +0.000 A 
ATOM      8  C   UNL     1       1.730   8.023  20.209  0.00  0.00    +0.000 A 
ATOM      9  N   UNL     1       2.287   6.793  20.343  0.00  0.00    +0.000 NA
ATOM     10  H   UNL     1       3.101   4.498  20.226  0.00  0.00    +0.000 HD
ENDROOT
BRANCH   7  11
ATOM     11  C   UNL     1       0.988  10.069  18.947  0.00  0.00    +0.000 A 
ATOM     12  C   UNL     1       1.752  11.197  18.590  0.00  0.00    +0.000 A 
ATOM     13  C   UNL     1       1.183  12.470  18.513  0.00  0.00    +0.000 A 
ATOM     14  C   UNL     1      -0.169  12.646  18.790  0.00  0.00    +0.000 A 
ATOM     15  C   UNL     1      -0.949  11.552  19.152  0.00  0.00    +0.000 A 
ATOM     16  C   UNL     1      -0.374  10.280  19.236  0.00  0.00    +0.000 A 
ENDBRANCH   7  11
BRANCH   2  17
ATOM     17  C   UNL     1       5.623   5.641  18.341  0.00  0.00    +0.000 C 
BRANCH  17  18
ATOM     18  N   UNL     1       5.948   5.181  17.000  0.00  0.00    +0.000 N 
ATOM     19  C   UNL     1       6.956   5.717  16.228  0.00  0.00    +0.000 C 
ATOM     20  O   UNL     1       7.835   6.487  16.577  0.00  0.00    +0.000 OA
ATOM     21  C   UNL     1       6.631   5.338  14.806  0.00  0.00    +0.000 C 
ATOM     22  C   UNL     1       7.715   5.203  13.758  0.00  0.00    +0.000 C 
ATOM     23  C   UNL     1       7.068   4.728  12.446  0.00  0.00    +0.000 C 
ATOM     24  C   UNL     1       6.225   3.455  12.627  0.00  0.00    +0.000 C 
ATOM     25  C   UNL     1       5.196   3.583  13.760  0.00  0.00    +0.000 C 
ATOM     26  C   UNL     1       5.909   4.020  15.021  0.00  0.00    +0.000 C 
ATOM     27  C   UNL     1       5.118   4.379  16.248  0.00  0.00    +0.000 C 
ATOM     28  O   UNL     1       3.980   4.028  16.503  0.00  0.00    +0.000 OA
ENDBRANCH  17  18
ENDBRANCH   2  17
TORSDOF 3
ENDMDL
MODEL 2
REMARK VINA RESULT:      -8.3      0.239      1.956
REMARK  Name = 
REMARK  3 active torsions:
REMARK  status: ('A' for Active; 'I' for Inactive)
REMARK    1  A    between atoms: C_2  and  C_3
REMARK    2  A    between atoms: C_3  and  N_4
REMARK    3  A    between atoms: C_19  and  C_20
REMARK                            x       y       z     vdW  Elec       q    Type
REMARK                         _______ _______ _______ _____ _____    ______ ____
ROOT
ATOM      1  O   UNL     1       5.123   3.763  19.351  0.00  0.00    +0.000 OA
ATOM      2  C   UNL     1       4.695   4.857  18.968  0.00  0.00    +0.000 C 
ATOM      3  N   UNL     1       3.426   5.202  19.335  0.00  0.00    +0.000 N 
ATOM      4  C   UNL     1       2.771   6.406  19.126  0.00  0.00    +0.000 A 
ATOM      5  C   UNL     1       2.621   6.942  17.857  0.00  0.00    +0.000 A 
ATOM      6  C   UNL     1       1.997   8.183  17.727  0.00  0.00    +0.000 A 
ATOM      7  C   UNL     1       1.520   8.861  18.855  0.00  0.00    +0.000 A 
ATOM      8  C   UNL     1       1.667   8.184  20.068  0.00  0.00    +0.000 A 
ATOM      9  N   UNL     1       2.248   6.968  20.225  0.00  0.00    +0.000 NA
ATOM     10  H   UNL     1       3.109   4.688  20.149  0.00  0.00    +0.000 HD
ENDROOT
BRANCH   7  11
ATOM     11  C   UNL     1       0.893  10.194  18.768  0.00  0.00    +0.000 A 
ATOM     12  C   UNL     1      -0.507  10.346  18.746  0.00  0.00    +0.000 A 
ATOM     13  C   UNL     1      -1.104  11.607  18.680  0.00  0.00    +0.000 A 
ATOM     14  C   UNL     1      -0.312  12.750  18.637  0.00  0.00    +0.000 A 
ATOM     15  C   UNL     1       1.075  12.632  18.651  0.00  0.00    +0.000 A 
ATOM     16  C   UNL     1       1.669  11.368  18.707  0.00  0.00    +0.000 A 
ENDBRANCH   7  11
BRANCH   2  17
ATOM     17  C   UNL     1       5.620   5.852  18.262  0.00  0.00    +0.000 C 
BRANCH  17  18
ATOM     18  N   UNL     1       5.778   5.499  16.861  0.00  0.00    +0.000 N 
ATOM     19  C   UNL     1       5.007   4.556  16.215  0.00  0.00    +0.000 C 
ATOM     20  O   UNL     1       3.985   4.025  16.616  0.00  0.00    +0.000 OA
ATOM     21  C   UNL     1       5.796   4.142  14.999  0.00  0.00    +0.000 C 
ATOM     22  C   UNL     1       5.110   3.611  13.758  0.00  0.00    +0.000 C 
ATOM     23  C   UNL     1       6.180   3.361  12.680  0.00  0.00    +0.000 C 
ATOM     24  C   UNL     1       7.058   4.596  12.419  0.00  0.00    +0.000 C 
ATOM     25  C   UNL     1       7.666   5.174  13.706  0.00  0.00    +0.000 C 
ATOM     26  C   UNL     1       6.554   5.423  14.702  0.00  0.00    +0.000 C 
ATOM     27  C   UNL     1       6.882   5.837  16.110  0.00  0.00    +0.000 C 
ATOM     28  O   UNL     1       7.916   6.358  16.488  0.00  0.00    +0.000 OA
ENDBRANCH  17  18
ENDBRANCH   2  17
TORSDOF 3
ENDMDL
MODEL 3
REMARK VINA RESULT:      -8.2      1.069      1.136
REMARK  Name = 
REMARK  3 active torsions:
REMARK  status: ('A' for Active; 'I' for Inactive)
REMARK    1  A    between atoms: C_2  and  C_3
REMARK    2  A    between atoms: C_3  and  N_4
REMARK    3  A    between atoms: C_19  and  C_20
REMARK                            x       y       z     vdW  Elec       q    Type
REMARK                         _______ _______ _______ _____ _____    ______ ____
ROOT
ATOM      1  O   UNL     1       4.440   2.362  19.415  0.00  0.00    +0.000 OA
ATOM      2  C   UNL     1       4.241   3.570  19.246  0.00  0.00    +0.000 C 
ATOM      3  N   UNL     1       2.986   4.044  19.499  0.00  0.00    +0.000 N 
ATOM      4  C   UNL     1       2.549   5.360  19.490  0.00  0.00    +0.000 A 
ATOM      5  C   UNL     1       2.703   6.170  18.377  0.00  0.00    +0.000 A 
ATOM      6  C   UNL     1       2.288   7.499  18.457  0.00  0.00    +0.000 A 
ATOM      7  C   UNL     1       1.715   7.996  19.634  0.00  0.00    +0.000 A 
ATOM      8  C   UNL     1       1.549   7.063  20.660  0.00  0.00    +0.000 A 
ATOM      9  N   UNL     1       1.920   5.759  20.605  0.00  0.00    +0.000 NA
ATOM     10  H   UNL     1       2.461   3.432  20.114  0.00  0.00    +0.000 HD
ENDROOT
BRANCH   7  11
ATOM     11  C   UNL     1       1.302   9.405  19.777  0.00  0.00    +0.000 A 
ATOM     12  C   UNL     1       1.305  10.285  18.677  0.00  0.00    +0.000 A 
ATOM     13  C   UNL     1       0.898  11.616  18.805  0.00  0.00    +0.000 A 
ATOM     14  C   UNL     1       0.475  12.098  20.039  0.00  0.00    +0.000 A 
ATOM     15  C   UNL     1       0.467  11.255  21.146  0.00  0.00    +0.000 A 
ATOM     16  C   UNL     1       0.883   9.926  21.017  0.00  0.00    +0.000 A 
ENDBRANCH   7  11
BRANCH   2  17
ATOM     17  C   UNL     1       5.404   4.515  18.935  0.00  0.00    +0.000 C 
BRANCH  17  18
ATOM     18  N   UNL     1       5.812   4.386  17.546  0.00  0.00    +0.000 N 
ATOM     19  C   UNL     1       6.920   5.007  17.010  0.00  0.00    +0.000 C 
ATOM     20  O   UNL     1       7.818   5.577  17.608  0.00  0.00    +0.000 OA
ATOM     21  C   UNL     1       6.696   5.037  15.521  0.00  0.00    +0.000 C 
ATOM     22  C   UNL     1       7.857   5.077  14.549  0.00  0.00    +0.000 C 
ATOM     23  C   UNL     1       7.296   5.016  13.118  0.00  0.00    +0.000 C 
ATOM     24  C   UNL     1       6.351   3.823  12.901  0.00  0.00    +0.000 C 
ATOM     25  C   UNL     1       5.237   3.750  13.956  0.00  0.00    +0.000 C 
ATOM     26  C   UNL     1       5.865   3.781  15.333  0.00  0.00    +0.000 C 
ATOM     27  C   UNL     1       4.996   3.885  16.556  0.00  0.00    +0.000 C 
ATOM     28  O   UNL     1       3.818   3.587  16.633  0.00  0.00    +0.000 OA
ENDBRANCH  17  18
ENDBRANCH   2  17
TORSDOF 3
ENDMDL
MODEL 4
REMARK VINA RESULT:      -8.0      0.990      2.083
REMARK  Name = 
REMARK  3 active torsions:
REMARK  status: ('A' for Active; 'I' for Inactive)
REMARK    1  A    between atoms: C_2  and  C_3
REMARK    2  A    between atoms: C_3  and  N_4
REMARK    3  A    between atoms: C_19  and  C_20
REMARK                            x       y       z     vdW  Elec       q    Type
REMARK                         _______ _______ _______ _____ _____    ______ ____
ROOT
ATOM      1  O   UNL     1       4.432   2.638  19.435  0.00  0.00    +0.000 OA
ATOM      2  C   UNL     1       4.209   3.841  19.260  0.00  0.00    +0.000 C 
ATOM      3  N   UNL     1       2.951   4.296  19.533  0.00  0.00    +0.000 N 
ATOM      4  C   UNL     1       2.492   5.604  19.521  0.00  0.00    +0.000 A 
ATOM      5  C   UNL     1       2.610   6.407  18.398  0.00  0.00    +0.000 A 
ATOM      6  C   UNL     1       2.174   7.730  18.475  0.00  0.00    +0.000 A 
ATOM      7  C   UNL     1       1.614   8.227  19.659  0.00  0.00    +0.000 A 
ATOM      8  C   UNL     1       1.485   7.300  20.696  0.00  0.00    +0.000 A 
ATOM      9  N   UNL     1       1.878   6.002  20.645  0.00  0.00    +0.000 NA
ATOM     10  H   UNL     1       2.449   3.681  20.163  0.00  0.00    +0.000 HD
ENDROOT
BRANCH   7  11
ATOM     11  C   UNL     1       1.180   9.630  19.798  0.00  0.00    +0.000 A 
ATOM     12  C   UNL     1       0.717  10.136  21.027  0.00  0.00    +0.000 A 
ATOM     13  C   UNL     1       0.321  11.469  21.166  0.00  0.00    +0.000 A 
ATOM     14  C   UNL     1       0.382  12.330  20.075  0.00  0.00    +0.000 A 
ATOM     15  C   UNL     1       0.829  11.857  18.845  0.00  0.00    +0.000 A 
ATOM     16  C   UNL     1       1.216  10.521  18.707  0.00  0.00    +0.000 A 
ENDBRANCH   7  11
BRANCH   2  17
ATOM     17  C   UNL     1       5.349   4.803  18.918  0.00  0.00    +0.000 C 
BRANCH  17  18
ATOM     18  N   UNL     1       5.613   4.799  17.489  0.00  0.00    +0.000 N 
ATOM     19  C   UNL     1       4.831   4.138  16.566  0.00  0.00    +0.000 C 
ATOM     20  O   UNL     1       3.733   3.637  16.740  0.00  0.00    +0.000 OA
ATOM     21  C   UNL     1       5.696   3.960  15.345  0.00  0.00    +0.000 C 
ATOM     22  C   UNL     1       5.092   3.836  13.962  0.00  0.00    +0.000 C 
ATOM     23  C   UNL     1       6.236   3.752  12.937  0.00  0.00    +0.000 C 
ATOM     24  C   UNL     1       7.239   4.910  13.070  0.00  0.00    +0.000 C 
ATOM     25  C   UNL     1       7.765   5.076  14.504  0.00  0.00    +0.000 C 
ATOM     26  C   UNL     1       6.587   5.185  15.447  0.00  0.00    +0.000 C 
ATOM     27  C   UNL     1       6.810   5.194  16.934  0.00  0.00    +0.000 C 
ATOM     28  O   UNL     1       7.843   5.488  17.508  0.00  0.00    +0.000 OA
ENDBRANCH  17  18
ENDBRANCH   2  17
TORSDOF 3
ENDMDL
MODEL 5
REMARK VINA RESULT:      -7.8      0.939      1.038
REMARK  Name = 
REMARK  3 active torsions:
REMARK  status: ('A' for Active; 'I' for Inactive)
REMARK    1  A    between atoms: C_2  and  C_3
REMARK    2  A    between atoms: C_3  and  N_4
REMARK    3  A    between atoms: C_19  and  C_20
REMARK                            x       y       z     vdW  Elec       q    Type
REMARK                         _______ _______ _______ _____ _____    ______ ____
ROOT
ATOM      1  O   UNL     1       3.818   3.695  20.021  0.00  0.00    +0.000 OA
ATOM      2  C   UNL     1       3.734   4.860  19.616  0.00  0.00    +0.000 C 
ATOM      3  N   UNL     1       2.516   5.470  19.698  0.00  0.00    +0.000 N 
ATOM      4  C   UNL     1       2.198   6.790  19.416  0.00  0.00    +0.000 A 
ATOM      5  C   UNL     1       2.474   7.357  18.182  0.00  0.00    +0.000 A 
ATOM      6  C   UNL     1       2.174   8.705  17.986  0.00  0.00    +0.000 A 
ATOM      7  C   UNL     1       1.593   9.461  19.012  0.00  0.00    +0.000 A 
ATOM      8  C   UNL     1       1.299   8.757  20.181  0.00  0.00    +0.000 A 
ATOM      9  N   UNL     1       1.556   7.442  20.395  0.00  0.00    +0.000 NA
ATOM     10  H   UNL     1       1.912   5.030  20.383  0.00  0.00    +0.000 HD
ENDROOT
BRANCH   7  11
ATOM     11  C   UNL     1       1.300  10.899  18.862  0.00  0.00    +0.000 A 
ATOM     12  C   UNL     1       2.241  11.785  18.302  0.00  0.00    +0.000 A 
ATOM     13  C   UNL     1       1.960  13.145  18.143  0.00  0.00    +0.000 A 
ATOM     14  C   UNL     1       0.726  13.651  18.539  0.00  0.00    +0.000 A 
ATOM     15  C   UNL     1      -0.222  12.802  19.102  0.00  0.00    +0.000 A 
ATOM     16  C   UNL     1       0.066  11.444  19.268  0.00  0.00    +0.000 A 
ENDBRANCH   7  11
BRANCH   2  17
ATOM     17  C   UNL     1       4.990   5.634  19.207  0.00  0.00    +0.000 C 
BRANCH  17  18
ATOM     18  N   UNL     1       5.446   5.214  17.892  0.00  0.00    +0.000 N 
ATOM     19  C   UNL     1       6.622   5.642  17.314  0.00  0.00    +0.000 C 
ATOM     20  O   UNL     1       7.535   6.253  17.844  0.00  0.00    +0.000 OA
ATOM     21  C   UNL     1       6.465   5.402  15.835  0.00  0.00    +0.000 C 
ATOM     22  C   UNL     1       7.665   5.174  14.941  0.00  0.00    +0.000 C 
ATOM     23  C   UNL     1       7.164   4.879  13.517  0.00  0.00    +0.000 C 
ATOM     24  C   UNL     1       6.138   3.735  13.474  0.00  0.00    +0.000 C 
ATOM     25  C   UNL     1       4.977   3.943  14.459  0.00  0.00    +0.000 C 
ATOM     26  C   UNL     1       5.546   4.194  15.839  0.00  0.00    +0.000 C 
ATOM     27  C   UNL     1       4.636   4.590  16.969  0.00  0.00    +0.000 C 
ATOM     28  O   UNL     1       3.436   4.394  17.033  0.00  0.00    +0.000 OA
ENDBRANCH  17  18
ENDBRANCH   2  17
TORSDOF 3
ENDMDL
MODEL 6
REMARK VINA RESULT:      -7.7      4.531      9.068
REMARK  Name = 
REMARK  3 active torsions:
REMARK  status: ('A' for Active; 'I' for Inactive)
REMARK    1  A    between atoms: C_2  and  C_3
REMARK    2  A    between atoms: C_3  and  N_4
REMARK    3  A    between atoms: C_19  and  C_20
REMARK                            x       y       z     vdW  Elec       q    Type
REMARK                         _______ _______ _______ _____ _____    ______ ____
ROOT
ATOM      1  O   UNL     1      -0.703  12.956  19.573  0.00  0.00    +0.000 OA
ATOM      2  C   UNL     1       0.087  12.024  19.759  0.00  0.00    +0.000 C 
ATOM      3  N   UNL     1      -0.080  10.896  19.008  0.00  0.00    +0.000 N 
ATOM      4  C   UNL     1       0.732   9.774  18.954  0.00  0.00    +0.000 A 
ATOM      5  C   UNL     1       1.049   9.050  20.092  0.00  0.00    +0.000 A 
ATOM      6  C   UNL     1       1.915   7.963  19.971  0.00  0.00    +0.000 A 
ATOM      7  C   UNL     1       2.438   7.606  18.722  0.00  0.00    +0.000 A 
ATOM      8  C   UNL     1       1.987   8.369  17.644  0.00  0.00    +0.000 A 
ATOM      9  N   UNL     1       1.128   9.416  17.725  0.00  0.00    +0.000 NA
ATOM     10  H   UNL     1      -0.606  11.075  18.160  0.00  0.00    +0.000 HD
ENDROOT
BRANCH   7  11
ATOM     11  C   UNL     1       3.390   6.491  18.556  0.00  0.00    +0.000 A 
ATOM     12  C   UNL     1       4.161   6.353  17.385  0.00  0.00    +0.000 A 
ATOM     13  C   UNL     1       5.076   5.308  17.231  0.00  0.00    +0.000 A 
ATOM     14  C   UNL     1       5.244   4.376  18.250  0.00  0.00    +0.000 A 
ATOM     15  C   UNL     1       4.492   4.481  19.416  0.00  0.00    +0.000 A 
ATOM     16  C   UNL     1       3.571   5.523  19.563  0.00  0.00    +0.000 A 
ENDBRANCH   7  11
BRANCH   2  17
ATOM     17  C   UNL     1       1.305  12.204  20.668  0.00  0.00    +0.000 C 
BRANCH  17  18
ATOM     18  N   UNL     1       2.127  13.313  20.211  0.00  0.00    +0.000 N 
ATOM     19  C   UNL     1       2.757  13.346  18.984  0.00  0.00    +0.000 C 
ATOM     20  O   UNL     1       2.589  12.595  18.038  0.00  0.00    +0.000 OA
ATOM     21  C   UNL     1       3.861  14.363  19.116  0.00  0.00    +0.000 C 
ATOM     22  C   UNL     1       4.385  15.118  17.913  0.00  0.00    +0.000 C 
ATOM     23  C   UNL     1       5.439  16.130  18.394  0.00  0.00    +0.000 C 
ATOM     24  C   UNL     1       4.916  17.044  19.515  0.00  0.00    +0.000 C 
ATOM     25  C   UNL     1       4.301  16.257  20.683  0.00  0.00    +0.000 C 
ATOM     26  C   UNL     1       3.255  15.310  20.137  0.00  0.00    +0.000 C 
ATOM     27  C   UNL     1       2.606  14.300  21.043  0.00  0.00    +0.000 C 
ATOM     28  O   UNL     1       2.534  14.360  22.257  0.00  0.00    +0.000 OA
ENDBRANCH  17  18
ENDBRANCH   2  17
TORSDOF 3
ENDMDL
MODEL 7
REMARK VINA RESULT:      -7.6      1.958      8.135
REMARK  Name = 
REMARK  3 active torsions:
REMARK  status: ('A' for Active; 'I' for Inactive)
REMARK    1  A    between atoms: C_2  and  C_3
REMARK    2  A    between atoms: C_3  and  N_4
REMARK    3  A    between atoms: C_19  and  C_20
REMARK                            x       y       z     vdW  Elec       q    Type
REMARK                         _______ _______ _______ _____ _____    ______ ____
ROOT
ATOM      1  O   UNL     1       2.507   5.482  21.118  0.00  0.00    +0.000 OA
ATOM      2  C   UNL     1       2.878   5.644  19.951  0.00  0.00    +0.000 C 
ATOM      3  N   UNL     1       4.062   5.074  19.581  0.00  0.00    +0.000 N 
ATOM      4  C   UNL     1       4.630   5.021  18.317  0.00  0.00    +0.000 A 
ATOM      5  C   UNL     1       4.875   6.168  17.580  0.00  0.00    +0.000 A 
ATOM      6  C   UNL     1       5.399   6.036  16.294  0.00  0.00    +0.000 A 
ATOM      7  C   UNL     1       5.684   4.769  15.769  0.00  0.00    +0.000 A 
ATOM      8  C   UNL     1       5.460   3.697  16.636  0.00  0.00    +0.000 A 
ATOM      9  N   UNL     1       4.974   3.794  17.899  0.00  0.00    +0.000 NA
ATOM     10  H   UNL     1       4.329   4.311  20.193  0.00  0.00    +0.000 HD
ENDROOT
BRANCH   7  11
ATOM     11  C   UNL     1       6.198   4.581  14.399  0.00  0.00    +0.000 A 
ATOM     12  C   UNL     1       7.326   5.285  13.936  0.00  0.00    +0.000 A 
ATOM     13  C   UNL     1       7.826   5.096  12.645  0.00  0.00    +0.000 A 
ATOM     14  C   UNL     1       7.209   4.194  11.785  0.00  0.00    +0.000 A 
ATOM     15  C   UNL     1       6.088   3.488  12.211  0.00  0.00    +0.000 A 
ATOM     16  C   UNL     1       5.585   3.686  13.501  0.00  0.00    +0.000 A 
ENDBRANCH   7  11
BRANCH   2  17
ATOM     17  C   UNL     1       1.956   6.306  18.924  0.00  0.00    +0.000 C 
BRANCH  17  18
ATOM     18  N   UNL     1       1.887   7.741  19.148  0.00  0.00    +0.000 N 
ATOM     19  C   UNL     1       1.216   8.322  20.202  0.00  0.00    +0.000 C 
ATOM     20  O   UNL     1       0.757   7.772  21.190  0.00  0.00    +0.000 OA
ATOM     21  C   UNL     1       0.962   9.750  19.793  0.00  0.00    +0.000 C 
ATOM     22  C   UNL     1       0.803  10.849  20.822  0.00  0.00    +0.000 C 
ATOM     23  C   UNL     1       0.641  12.189  20.082  0.00  0.00    +0.000 C 
ATOM     24  C   UNL     1       1.771  12.449  19.072  0.00  0.00    +0.000 C 
ATOM     25  C   UNL     1       1.977  11.278  18.099  0.00  0.00    +0.000 C 
ATOM     26  C   UNL     1       2.161  10.006  18.897  0.00  0.00    +0.000 C 
ATOM     27  C   UNL     1       2.221   8.678  18.194  0.00  0.00    +0.000 C 
ATOM     28  O   UNL     1       2.504   8.491  17.025  0.00  0.00    +0.000 OA
ENDBRANCH  17  18
ENDBRANCH   2  17
TORSDOF 3
ENDMDL
MODEL 8
REMARK VINA RESULT:      -7.6      4.414      9.181
REMARK  Name = 
REMARK  3 active torsions:
REMARK  status: ('A' for Active; 'I' for Inactive)
REMARK    1  A    between atoms: C_2  and  C_3
REMARK    2  A    between atoms: C_3  and  N_4
REMARK    3  A    between atoms: C_19  and  C_20
REMARK                            x       y       z     vdW  Elec       q    Type
REMARK                         _______ _______ _______ _____ _____    ______ ____
ROOT
ATOM      1  O   UNL     1      -1.156  12.326  20.053  0.00  0.00    +0.000 OA
ATOM      2  C   UNL     1      -0.253  11.487  20.141  0.00  0.00    +0.000 C 
ATOM      3  N   UNL     1      -0.306  10.414  19.299  0.00  0.00    +0.000 N 
ATOM      4  C   UNL     1       0.635   9.409  19.132  0.00  0.00    +0.000 A 
ATOM      5  C   UNL     1       1.074   8.638  20.196  0.00  0.00    +0.000 A 
ATOM      6  C   UNL     1       2.061   7.680  19.963  0.00  0.00    +0.000 A 
ATOM      7  C   UNL     1       2.584   7.495  18.677  0.00  0.00    +0.000 A 
ATOM      8  C   UNL     1       2.009   8.284  17.678  0.00  0.00    +0.000 A 
ATOM      9  N   UNL     1       1.032   9.206  17.867  0.00  0.00    +0.000 NA
ATOM     10  H   UNL     1      -0.875  10.595  18.481  0.00  0.00    +0.000 HD
ENDROOT
BRANCH   7  11
ATOM     11  C   UNL     1       3.659   6.525  18.395  0.00  0.00    +0.000 A 
ATOM     12  C   UNL     1       4.419   6.596  17.212  0.00  0.00    +0.000 A 
ATOM     13  C   UNL     1       5.449   5.689  16.949  0.00  0.00    +0.000 A 
ATOM     14  C   UNL     1       5.745   4.688  17.869  0.00  0.00    +0.000 A 
ATOM     15  C   UNL     1       5.007   4.588  19.044  0.00  0.00    +0.000 A 
ATOM     16  C   UNL     1       3.971   5.491  19.299  0.00  0.00    +0.000 A 
ENDBRANCH   7  11
BRANCH   2  17
ATOM     17  C   UNL     1       0.963  11.741  21.036  0.00  0.00    +0.000 C 
BRANCH  17  18
ATOM     18  N   UNL     1       1.686  12.923  20.596  0.00  0.00    +0.000 N 
ATOM     19  C   UNL     1       1.611  14.147  21.226  0.00  0.00    +0.000 C 
ATOM     20  O   UNL     1       1.118  14.399  22.313  0.00  0.00    +0.000 OA
ATOM     21  C   UNL     1       2.063  15.162  20.208  0.00  0.00    +0.000 C 
ATOM     22  C   UNL     1       2.681  16.479  20.628  0.00  0.00    +0.000 C 
ATOM     23  C   UNL     1       3.106  17.243  19.363  0.00  0.00    +0.000 C 
ATOM     24  C   UNL     1       4.007  16.407  18.439  0.00  0.00    +0.000 C 
ATOM     25  C   UNL     1       3.402  15.035  18.104  0.00  0.00    +0.000 C 
ATOM     26  C   UNL     1       3.040  14.332  19.395  0.00  0.00    +0.000 C 
ATOM     27  C   UNL     1       2.280  13.036  19.359  0.00  0.00    +0.000 C 
ATOM     28  O   UNL     1       2.213  12.263  18.420  0.00  0.00    +0.000 OA
ENDBRANCH  17  18
ENDBRANCH   2  17
TORSDOF 3
ENDMDL
MODEL 9
REMARK VINA RESULT:      -7.6      8.933     11.928
REMARK  Name = 
REMARK  3 active torsions:
REMARK  status: ('A' for Active; 'I' for Inactive)
REMARK    1  A    between atoms: C_2  and  C_3
REMARK    2  A    between atoms: C_3  and  N_4
REMARK    3  A    between atoms: C_19  and  C_20
REMARK                            x       y       z     vdW  Elec       q    Type
REMARK                         _______ _______ _______ _____ _____    ______ ____
ROOT
ATOM      1  O   UNL     1      -7.529  11.162  20.817  0.00  0.00    +0.000 OA
ATOM      2  C   UNL     1      -6.886  12.142  21.208  0.00  0.00    +0.000 C 
ATOM      3  N   UNL     1      -6.535  12.180  22.527  0.00  0.00    +0.000 N 
ATOM      4  C   UNL     1      -5.730  13.107  23.173  0.00  0.00    +0.000 A 
ATOM      5  C   UNL     1      -6.011  14.463  23.139  0.00  0.00    +0.000 A 
ATOM      6  C   UNL     1      -5.129  15.343  23.767  0.00  0.00    +0.000 A 
ATOM      7  C   UNL     1      -3.993  14.859  24.428  0.00  0.00    +0.000 A 
ATOM      8  C   UNL     1      -3.860  13.469  24.452  0.00  0.00    +0.000 A 
ATOM      9  N   UNL     1      -4.712  12.587  23.872  0.00  0.00    +0.000 NA
ATOM     10  H   UNL     1      -6.539  11.261  22.952  0.00  0.00    +0.000 HD
ENDROOT
BRANCH   7  11
ATOM     11  C   UNL     1      -3.011  15.756  25.068  0.00  0.00    +0.000 A 
ATOM     12  C   UNL     1      -3.162  17.156  25.029  0.00  0.00    +0.000 A 
ATOM     13  C   UNL     1      -2.244  18.007  25.648  0.00  0.00    +0.000 A 
ATOM     14  C   UNL     1      -1.151  17.477  26.325  0.00  0.00    +0.000 A 
ATOM     15  C   UNL     1      -0.970  16.098  26.375  0.00  0.00    +0.000 A 
ATOM     16  C   UNL     1      -1.886  15.249  25.747  0.00  0.00    +0.000 A 
ENDBRANCH   7  11
BRANCH   2  17
ATOM     17  C   UNL     1      -6.361  13.178  20.211  0.00  0.00    +0.000 C 
BRANCH  17  18
ATOM     18  N   UNL     1      -5.382  12.579  19.318  0.00  0.00    +0.000 N 
ATOM     19  C   UNL     1      -5.700  12.002  18.107  0.00  0.00    +0.000 C 
ATOM     20  O   UNL     1      -6.760  12.061  17.507  0.00  0.00    +0.000 OA
ATOM     21  C   UNL     1      -4.547  11.092  17.770  0.00  0.00    +0.000 C 
ATOM     22  C   UNL     1      -4.210  10.745  16.335  0.00  0.00    +0.000 C 
ATOM     23  C   UNL     1      -2.942   9.874  16.329  0.00  0.00    +0.000 C 
ATOM     24  C   UNL     1      -1.776  10.519  17.097  0.00  0.00    +0.000 C 
ATOM     25  C   UNL     1      -2.169  10.950  18.519  0.00  0.00    +0.000 C 
ATOM     26  C   UNL     1      -3.400  11.827  18.440  0.00  0.00    +0.000 C 
ATOM     27  C   UNL     1      -4.098  12.260  19.700  0.00  0.00    +0.000 C 
ATOM     28  O   UNL     1      -3.613  12.306  20.816  0.00  0.00    +0.000 OA
ENDBRANCH  17  18
ENDBRANCH   2  17
TORSDOF 3
ENDMDL
