MODEL 1
REMARK VINA RESULT:      -8.7      0.000      0.000
REMARK  Name = 
REMARK  2 active torsions:
REMARK  status: ('A' for Active; 'I' for Inactive)
REMARK    1  A    between atoms: C_2  and  C_14
REMARK    2  A    between atoms: C_20  and  C_21
REMARK                            x       y       z     vdW  Elec       q    Type
REMARK                         _______ _______ _______ _____ _____    ______ ____
ROOT
ATOM      1  O   UNL     1       4.481   2.989  18.090  0.00  0.00    +0.000 OA
ATOM      2  C   UNL     1       4.157   4.075  18.552  0.00  0.00    +0.000 C 
ATOM      3  N   UNL     1       4.683   5.298  18.191  0.00  0.00    +0.000 N 
ATOM      4  C   UNL     1       5.687   5.439  17.261  0.00  0.00    +0.000 A 
ATOM      5  N   UNL     1       6.662   6.309  17.537  0.00  0.00    +0.000 NA
ATOM      6  N   UNL     1       7.506   6.180  16.505  0.00  0.00    +0.000 N 
ATOM      7  C   UNL     1       7.030   5.407  15.486  0.00  0.00    +0.000 A 
ATOM      8  C   UNL     1       7.536   5.150  14.208  0.00  0.00    +0.000 A 
ATOM      9  C   UNL     1       6.753   4.360  13.370  0.00  0.00    +0.000 A 
ATOM     10  F   UNL     1       7.174   4.129  12.118  0.00  0.00    +0.000 F 
ATOM     11  C   UNL     1       5.541   3.825  13.787  0.00  0.00    +0.000 A 
ATOM     12  C   UNL     1       5.073   4.058  15.092  0.00  0.00    +0.000 A 
ATOM     13  C   UNL     1       5.826   4.881  15.957  0.00  0.00    +0.000 A 
ATOM     14  H   UNL     1       4.727   6.023  18.897  0.00  0.00    +0.000 HD
ATOM     15  H   UNL     1       8.386   6.685  16.538  0.00  0.00    +0.000 HD
ENDROOT
BRANCH   2  16
ATOM     16  C   UNL     1       3.092   4.215  19.626  0.00  0.00    +0.000 C 
ATOM     17  C   UNL     1       1.880   5.001  19.096  0.00  0.00    +0.000 C 
ATOM     18  C   UNL     1       1.352   4.470  17.766  0.00  0.00    +0.000 C 
ATOM     19  C   UNL     1       0.826   3.091  18.169  0.00  0.00    +0.000 C 
ATOM     20  C   UNL     1       0.981   3.122  19.694  0.00  0.00    +0.000 C 
ATOM     21  O   UNL     1       0.835   4.530  19.981  0.00  0.00    +0.000 OA
ATOM     22  C   UNL     1       2.440   2.886  20.096  0.00  0.00    +0.000 C 
BRANCH  22  23
ATOM     23  C   UNL     1       2.565   2.666  21.594  0.00  0.00    +0.000 C 
ATOM     24  F   UNL     1       3.653   1.952  21.952  0.00  0.00    +0.000 F 
ATOM     25  F   UNL     1       2.597   3.822  22.296  0.00  0.00    +0.000 F 
ATOM     26  F   UNL     1       1.486   1.977  22.045  0.00  0.00    +0.000 F 
ENDBRANCH  22  23
ENDBRANCH   2  16
TORSDOF 2
ENDMDL
MODEL 2
REMARK VINA RESULT:      -8.3      4.262      7.210
REMARK  Name = 
REMARK  2 active torsions:
REMARK  status: ('A' for Active; 'I' for Inactive)
REMARK    1  A    between atoms: C_2  and  C_14
REMARK    2  A    between atoms: C_20  and  C_21
REMARK                            x       y       z     vdW  Elec       q    Type
REMARK                         _______ _______ _______ _____ _____    ______ ____
ROOT
ATOM      1  O   UNL     1       1.533   5.645  20.611  0.00  0.00    +0.000 OA
ATOM      2  C   UNL     1       2.496   5.920  19.906  0.00  0.00    +0.000 C 
ATOM      3  N   UNL     1       2.715   7.122  19.267  0.00  0.00    +0.000 N 
ATOM      4  C   UNL     1       1.832   8.175  19.325  0.00  0.00    +0.000 A 
ATOM      5  N   UNL     1       1.599   8.844  18.193  0.00  0.00    +0.000 NA
ATOM      6  N   UNL     1       0.672   9.746  18.540  0.00  0.00    +0.000 N 
ATOM      7  C   UNL     1       0.432   9.815  19.882  0.00  0.00    +0.000 A 
ATOM      8  C   UNL     1      -0.340  10.702  20.638  0.00  0.00    +0.000 A 
ATOM      9  C   UNL     1      -0.312  10.537  22.021  0.00  0.00    +0.000 A 
ATOM     10  F   UNL     1      -0.997  11.396  22.790  0.00  0.00    +0.000 F 
ATOM     11  C   UNL     1       0.423   9.524  22.625  0.00  0.00    +0.000 A 
ATOM     12  C   UNL     1       1.155   8.615  21.843  0.00  0.00    +0.000 A 
ATOM     13  C   UNL     1       1.176   8.773  20.440  0.00  0.00    +0.000 A 
ATOM     14  H   UNL     1       3.218   7.107  18.388  0.00  0.00    +0.000 HD
ATOM     15  H   UNL     1       0.263  10.321  17.810  0.00  0.00    +0.000 HD
ENDROOT
BRANCH   2  16
ATOM     16  C   UNL     1       3.614   4.927  19.638  0.00  0.00    +0.000 C 
ATOM     17  C   UNL     1       3.060   3.495  19.534  0.00  0.00    +0.000 C 
ATOM     18  C   UNL     1       1.881   3.373  18.573  0.00  0.00    +0.000 C 
ATOM     19  C   UNL     1       2.544   3.676  17.228  0.00  0.00    +0.000 C 
ATOM     20  C   UNL     1       4.027   3.753  17.612  0.00  0.00    +0.000 C 
ATOM     21  O   UNL     1       4.090   2.856  18.742  0.00  0.00    +0.000 OA
ATOM     22  C   UNL     1       4.344   5.095  18.278  0.00  0.00    +0.000 C 
BRANCH  22  23
ATOM     23  C   UNL     1       5.844   5.285  18.435  0.00  0.00    +0.000 C 
ATOM     24  F   UNL     1       6.269   5.234  19.715  0.00  0.00    +0.000 F 
ATOM     25  F   UNL     1       6.566   4.378  17.738  0.00  0.00    +0.000 F 
ATOM     26  F   UNL     1       6.201   6.504  17.957  0.00  0.00    +0.000 F 
ENDBRANCH  22  23
ENDBRANCH   2  16
TORSDOF 2
ENDMDL
MODEL 3
REMARK VINA RESULT:      -8.1      4.405      7.595
REMARK  Name = 
REMARK  2 active torsions:
REMARK  status: ('A' for Active; 'I' for Inactive)
REMARK    1  A    between atoms: C_2  and  C_14
REMARK    2  A    between atoms: C_20  and  C_21
REMARK                            x       y       z     vdW  Elec       q    Type
REMARK                         _______ _______ _______ _____ _____    ______ ____
ROOT
ATOM      1  O   UNL     1       1.719   5.961  20.309  0.00  0.00    +0.000 OA
ATOM      2  C   UNL     1       2.534   6.408  19.512  0.00  0.00    +0.000 C 
ATOM      3  N   UNL     1       2.525   7.677  18.973  0.00  0.00    +0.000 N 
ATOM      4  C   UNL     1       1.551   8.607  19.255  0.00  0.00    +0.000 A 
ATOM      5  N   UNL     1       1.083   9.335  18.237  0.00  0.00    +0.000 NA
ATOM      6  N   UNL     1       0.124  10.085  18.794  0.00  0.00    +0.000 N 
ATOM      7  C   UNL     1       0.078  10.012  20.156  0.00  0.00    +0.000 A 
ATOM      8  C   UNL     1      -0.669  10.731  21.095  0.00  0.00    +0.000 A 
ATOM      9  C   UNL     1      -0.421  10.457  22.438  0.00  0.00    +0.000 A 
ATOM     10  F   UNL     1      -1.076  11.158  23.374  0.00  0.00    +0.000 F 
ATOM     11  C   UNL     1       0.500   9.494  22.833  0.00  0.00    +0.000 A 
ATOM     12  C   UNL     1       1.205   8.749  21.872  0.00  0.00    +0.000 A 
ATOM     13  C   UNL     1       1.003   9.025  20.502  0.00  0.00    +0.000 A 
ATOM     14  H   UNL     1       2.893   7.797  18.037  0.00  0.00    +0.000 HD
ATOM     15  H   UNL     1      -0.447  10.665  18.188  0.00  0.00    +0.000 HD
ENDROOT
BRANCH   2  16
ATOM     16  C   UNL     1       3.701   5.584  18.998  0.00  0.00    +0.000 C 
ATOM     17  C   UNL     1       3.555   4.110  19.410  0.00  0.00    +0.000 C 
ATOM     18  C   UNL     1       2.187   3.522  19.072  0.00  0.00    +0.000 C 
ATOM     19  C   UNL     1       2.211   3.540  17.543  0.00  0.00    +0.000 C 
ATOM     20  C   UNL     1       3.653   3.972  17.250  0.00  0.00    +0.000 C 
ATOM     21  O   UNL     1       4.360   3.457  18.399  0.00  0.00    +0.000 OA
ATOM     22  C   UNL     1       3.817   5.482  17.452  0.00  0.00    +0.000 C 
BRANCH  22  23
ATOM     23  C   UNL     1       5.161   5.960  16.929  0.00  0.00    +0.000 C 
ATOM     24  F   UNL     1       5.993   6.409  17.892  0.00  0.00    +0.000 F 
ATOM     25  F   UNL     1       5.827   5.006  16.238  0.00  0.00    +0.000 F 
ATOM     26  F   UNL     1       4.974   6.992  16.068  0.00  0.00    +0.000 F 
ENDBRANCH  22  23
ENDBRANCH   2  16
TORSDOF 2
ENDMDL
MODEL 4
REMARK VINA RESULT:      -8.0      4.180      7.017
REMARK  Name = 
REMARK  2 active torsions:
REMARK  status: ('A' for Active; 'I' for Inactive)
REMARK    1  A    between atoms: C_2  and  C_14
REMARK    2  A    between atoms: C_20  and  C_21
REMARK                            x       y       z     vdW  Elec       q    Type
REMARK                         _______ _______ _______ _____ _____    ______ ____
ROOT
ATOM      1  O   UNL     1       2.130   5.663  19.904  0.00  0.00    +0.000 OA
ATOM      2  C   UNL     1       3.142   6.025  19.317  0.00  0.00    +0.000 C 
ATOM      3  N   UNL     1       3.321   7.237  18.685  0.00  0.00    +0.000 N 
ATOM      4  C   UNL     1       2.340   8.199  18.614  0.00  0.00    +0.000 A 
ATOM      5  N   UNL     1       2.186   8.833  17.448  0.00  0.00    +0.000 NA
ATOM      6  N   UNL     1       1.140   9.643  17.661  0.00  0.00    +0.000 N 
ATOM      7  C   UNL     1       0.731   9.699  18.962  0.00  0.00    +0.000 A 
ATOM      8  C   UNL     1      -0.211  10.512  19.600  0.00  0.00    +0.000 A 
ATOM      9  C   UNL     1      -0.338  10.362  20.979  0.00  0.00    +0.000 A 
ATOM     10  F   UNL     1      -1.192  11.155  21.640  0.00  0.00    +0.000 F 
ATOM     11  C   UNL     1       0.411   9.431  21.688  0.00  0.00    +0.000 A 
ATOM     12  C   UNL     1       1.319   8.592  21.020  0.00  0.00    +0.000 A 
ATOM     13  C   UNL     1       1.497   8.739  19.627  0.00  0.00    +0.000 A 
ATOM     14  H   UNL     1       3.928   7.265  17.875  0.00  0.00    +0.000 HD
ATOM     15  H   UNL     1       0.771  10.169  16.875  0.00  0.00    +0.000 HD
ENDROOT
BRANCH   2  16
ATOM     16  C   UNL     1       4.374   5.144  19.208  0.00  0.00    +0.000 C 
ATOM     17  C   UNL     1       3.985   3.700  18.846  0.00  0.00    +0.000 C 
ATOM     18  C   UNL     1       3.052   3.611  17.640  0.00  0.00    +0.000 C 
ATOM     19  C   UNL     1       3.956   4.108  16.511  0.00  0.00    +0.000 C 
ATOM     20  C   UNL     1       5.311   4.238  17.219  0.00  0.00    +0.000 C 
ATOM     21  O   UNL     1       5.212   3.224  18.243  0.00  0.00    +0.000 OA
ATOM     22  C   UNL     1       5.360   5.513  18.066  0.00  0.00    +0.000 C 
BRANCH  22  23
ATOM     23  C   UNL     1       6.769   5.782  18.567  0.00  0.00    +0.000 C 
ATOM     24  F   UNL     1       7.240   7.004  18.241  0.00  0.00    +0.000 F 
ATOM     25  F   UNL     1       6.884   5.655  19.909  0.00  0.00    +0.000 F 
ATOM     26  F   UNL     1       7.625   4.880  18.025  0.00  0.00    +0.000 F 
ENDBRANCH  22  23
ENDBRANCH   2  16
TORSDOF 2
ENDMDL
MODEL 5
REMARK VINA RESULT:      -7.9      3.925      6.898
REMARK  Name = 
REMARK  2 active torsions:
REMARK  status: ('A' for Active; 'I' for Inactive)
REMARK    1  A    between atoms: C_2  and  C_14
REMARK    2  A    between atoms: C_20  and  C_21
REMARK                            x       y       z     vdW  Elec       q    Type
REMARK                         _______ _______ _______ _____ _____    ______ ____
ROOT
ATOM      1  O   UNL     1       1.673   5.476  19.698  0.00  0.00    +0.000 OA
ATOM      2  C   UNL     1       2.700   5.740  19.086  0.00  0.00    +0.000 C 
ATOM      3  N   UNL     1       3.027   6.966  18.546  0.00  0.00    +0.000 N 
ATOM      4  C   UNL     1       2.196   8.060  18.608  0.00  0.00    +0.000 A 
ATOM      5  N   UNL     1       2.084   8.810  17.508  0.00  0.00    +0.000 NA
ATOM      6  N   UNL     1       1.179   9.738  17.843  0.00  0.00    +0.000 N 
ATOM      7  C   UNL     1       0.840   9.736  19.166  0.00  0.00    +0.000 A 
ATOM      8  C   UNL     1       0.056  10.615  19.919  0.00  0.00    +0.000 A 
ATOM      9  C   UNL     1      -0.031  10.364  21.286  0.00  0.00    +0.000 A 
ATOM     10  F   UNL     1      -0.731  11.209  22.057  0.00  0.00    +0.000 F 
ATOM     11  C   UNL     1       0.603   9.277  21.875  0.00  0.00    +0.000 A 
ATOM     12  C   UNL     1       1.349   8.380  21.092  0.00  0.00    +0.000 A 
ATOM     13  C   UNL     1       1.485   8.622  19.708  0.00  0.00    +0.000 A 
ATOM     14  H   UNL     1       3.595   6.978  17.708  0.00  0.00    +0.000 HD
ATOM     15  H   UNL     1       0.857  10.378  17.125  0.00  0.00    +0.000 HD
ENDROOT
BRANCH   2  16
ATOM     16  C   UNL     1       3.784   4.706  18.837  0.00  0.00    +0.000 C 
ATOM     17  C   UNL     1       3.522   3.430  19.655  0.00  0.00    +0.000 C 
ATOM     18  C   UNL     1       2.103   2.890  19.491  0.00  0.00    +0.000 C 
ATOM     19  C   UNL     1       2.100   2.467  18.022  0.00  0.00    +0.000 C 
ATOM     20  C   UNL     1       3.567   2.671  17.626  0.00  0.00    +0.000 C 
ATOM     21  O   UNL     1       4.250   2.448  18.879  0.00  0.00    +0.000 OA
ATOM     22  C   UNL     1       3.861   4.156  17.387  0.00  0.00    +0.000 C 
BRANCH  22  23
ATOM     23  C   UNL     1       5.231   4.346  16.757  0.00  0.00    +0.000 C 
ATOM     24  F   UNL     1       6.217   4.568  17.651  0.00  0.00    +0.000 F 
ATOM     25  F   UNL     1       5.612   3.295  15.996  0.00  0.00    +0.000 F 
ATOM     26  F   UNL     1       5.207   5.424  15.932  0.00  0.00    +0.000 F 
ENDBRANCH  22  23
ENDBRANCH   2  16
TORSDOF 2
ENDMDL
MODEL 6
REMARK VINA RESULT:      -7.8      3.987      7.007
REMARK  Name = 
REMARK  2 active torsions:
REMARK  status: ('A' for Active; 'I' for Inactive)
REMARK    1  A    between atoms: C_2  and  C_14
REMARK    2  A    between atoms: C_20  and  C_21
REMARK                            x       y       z     vdW  Elec       q    Type
REMARK                         _______ _______ _______ _____ _____    ______ ____
ROOT
ATOM      1  O   UNL     1       2.816   5.295  19.167  0.00  0.00    +0.000 OA
ATOM      2  C   UNL     1       3.786   5.834  18.652  0.00  0.00    +0.000 C 
ATOM      3  N   UNL     1       3.851   7.141  18.218  0.00  0.00    +0.000 N 
ATOM      4  C   UNL     1       2.787   8.010  18.290  0.00  0.00    +0.000 A 
ATOM      5  N   UNL     1       2.567   8.801  17.237  0.00  0.00    +0.000 NA
ATOM      6  N   UNL     1       1.454   9.469  17.565  0.00  0.00    +0.000 N 
ATOM      7  C   UNL     1       1.050   9.284  18.856  0.00  0.00    +0.000 A 
ATOM      8  C   UNL     1       0.042   9.899  19.605  0.00  0.00    +0.000 A 
ATOM      9  C   UNL     1      -0.062   9.525  20.943  0.00  0.00    +0.000 A 
ATOM     10  F   UNL     1      -0.980  10.124  21.714  0.00  0.00    +0.000 F 
ATOM     11  C   UNL     1       0.773   8.566  21.504  0.00  0.00    +0.000 A 
ATOM     12  C   UNL     1       1.749   7.927  20.721  0.00  0.00    +0.000 A 
ATOM     13  C   UNL     1       1.904   8.306  19.369  0.00  0.00    +0.000 A 
ATOM     14  H   UNL     1       4.448   7.350  17.427  0.00  0.00    +0.000 HD
ATOM     15  H   UNL     1       1.034  10.076  16.868  0.00  0.00    +0.000 HD
ENDROOT
BRANCH   2  16
ATOM     16  C   UNL     1       5.093   5.097  18.416  0.00  0.00    +0.000 C 
ATOM     17  C   UNL     1       4.934   4.040  17.309  0.00  0.00    +0.000 C 
ATOM     18  C   UNL     1       4.296   4.592  16.036  0.00  0.00    +0.000 C 
ATOM     19  C   UNL     1       5.370   5.566  15.548  0.00  0.00    +0.000 C 
ATOM     20  C   UNL     1       6.521   5.289  16.524  0.00  0.00    +0.000 C 
ATOM     21  O   UNL     1       6.302   3.901  16.858  0.00  0.00    +0.000 OA
ATOM     22  C   UNL     1       6.261   5.965  17.874  0.00  0.00    +0.000 C 
BRANCH  22  23
ATOM     23  C   UNL     1       7.496   5.910  18.758  0.00  0.00    +0.000 C 
ATOM     24  F   UNL     1       8.247   7.030  18.716  0.00  0.00    +0.000 F 
ATOM     25  F   UNL     1       7.204   5.673  20.057  0.00  0.00    +0.000 F 
ATOM     26  F   UNL     1       8.298   4.892  18.357  0.00  0.00    +0.000 F 
ENDBRANCH  22  23
ENDBRANCH   2  16
TORSDOF 2
ENDMDL
MODEL 7
REMARK VINA RESULT:      -7.7      4.015      7.453
REMARK  Name = 
REMARK  2 active torsions:
REMARK  status: ('A' for Active; 'I' for Inactive)
REMARK    1  A    between atoms: C_2  and  C_14
REMARK    2  A    between atoms: C_20  and  C_21
REMARK                            x       y       z     vdW  Elec       q    Type
REMARK                         _______ _______ _______ _____ _____    ______ ____
ROOT
ATOM      1  O   UNL     1       2.316   5.964  19.273  0.00  0.00    +0.000 OA
ATOM      2  C   UNL     1       3.157   6.558  18.610  0.00  0.00    +0.000 C 
ATOM      3  N   UNL     1       3.086   7.873  18.203  0.00  0.00    +0.000 N 
ATOM      4  C   UNL     1       2.012   8.688  18.479  0.00  0.00    +0.000 A 
ATOM      5  N   UNL     1       1.577   9.484  17.499  0.00  0.00    +0.000 NA
ATOM      6  N   UNL     1       0.509  10.092  18.031  0.00  0.00    +0.000 N 
ATOM      7  C   UNL     1       0.345   9.867  19.367  0.00  0.00    +0.000 A 
ATOM      8  C   UNL     1      -0.543  10.420  20.295  0.00  0.00    +0.000 A 
ATOM      9  C   UNL     1      -0.395  10.021  21.621  0.00  0.00    +0.000 A 
ATOM     10  F   UNL     1      -1.191  10.563  22.554  0.00  0.00    +0.000 F 
ATOM     11  C   UNL     1       0.567   9.095  22.006  0.00  0.00    +0.000 A 
ATOM     12  C   UNL     1       1.419   8.517  21.050  0.00  0.00    +0.000 A 
ATOM     13  C   UNL     1       1.319   8.923  19.702  0.00  0.00    +0.000 A 
ATOM     14  H   UNL     1       3.525   8.123  17.325  0.00  0.00    +0.000 HD
ATOM     15  H   UNL     1      -0.054  10.688  17.432  0.00  0.00    +0.000 HD
ENDROOT
BRANCH   2  16
ATOM     16  C   UNL     1       4.435   5.889  18.133  0.00  0.00    +0.000 C 
ATOM     17  C   UNL     1       4.804   4.704  19.043  0.00  0.00    +0.000 C 
ATOM     18  C   UNL     1       3.647   3.735  19.271  0.00  0.00    +0.000 C 
ATOM     19  C   UNL     1       3.447   3.155  17.870  0.00  0.00    +0.000 C 
ATOM     20  C   UNL     1       4.631   3.754  17.102  0.00  0.00    +0.000 C 
ATOM     21  O   UNL     1       5.618   3.909  18.147  0.00  0.00    +0.000 OA
ATOM     22  C   UNL     1       4.355   5.216  16.736  0.00  0.00    +0.000 C 
BRANCH  22  23
ATOM     23  C   UNL     1       5.401   5.743  15.768  0.00  0.00    +0.000 C 
ATOM     24  F   UNL     1       5.814   4.831  14.862  0.00  0.00    +0.000 F 
ATOM     25  F   UNL     1       4.983   6.829  15.079  0.00  0.00    +0.000 F 
ATOM     26  F   UNL     1       6.505   6.130  16.456  0.00  0.00    +0.000 F 
ENDBRANCH  22  23
ENDBRANCH   2  16
TORSDOF 2
ENDMDL
MODEL 8
REMARK VINA RESULT:      -7.7      1.822      2.486
REMARK  Name = 
REMARK  2 active torsions:
REMARK  status: ('A' for Active; 'I' for Inactive)
REMARK    1  A    between atoms: C_2  and  C_14
REMARK    2  A    between atoms: C_20  and  C_21
REMARK                            x       y       z     vdW  Elec       q    Type
REMARK                         _______ _______ _______ _____ _____    ______ ____
ROOT
ATOM      1  O   UNL     1       4.112   2.939  16.800  0.00  0.00    +0.000 OA
ATOM      2  C   UNL     1       3.810   4.056  17.200  0.00  0.00    +0.000 C 
ATOM      3  N   UNL     1       4.461   5.231  16.888  0.00  0.00    +0.000 N 
ATOM      4  C   UNL     1       5.580   5.281  16.090  0.00  0.00    +0.000 A 
ATOM      5  N   UNL     1       6.572   6.090  16.472  0.00  0.00    +0.000 NA
ATOM      6  N   UNL     1       7.527   5.879  15.558  0.00  0.00    +0.000 N 
ATOM      7  C   UNL     1       7.129   5.114  14.499  0.00  0.00    +0.000 A 
ATOM      8  C   UNL     1       7.772   4.792  13.300  0.00  0.00    +0.000 A 
ATOM      9  C   UNL     1       7.046   4.035  12.383  0.00  0.00    +0.000 A 
ATOM     10  F   UNL     1       7.602   3.745  11.198  0.00  0.00    +0.000 F 
ATOM     11  C   UNL     1       5.756   3.593  12.653  0.00  0.00    +0.000 A 
ATOM     12  C   UNL     1       5.147   3.890  13.884  0.00  0.00    +0.000 A 
ATOM     13  C   UNL     1       5.841   4.682  14.823  0.00  0.00    +0.000 A 
ATOM     14  H   UNL     1       4.466   5.969  17.582  0.00  0.00    +0.000 HD
ATOM     15  H   UNL     1       8.429   6.324  15.693  0.00  0.00    +0.000 HD
ENDROOT
BRANCH   2  16
ATOM     16  C   UNL     1       2.631   4.294  18.128  0.00  0.00    +0.000 C 
ATOM     17  C   UNL     1       1.992   2.961  18.553  0.00  0.00    +0.000 C 
ATOM     18  C   UNL     1       3.004   1.950  19.086  0.00  0.00    +0.000 C 
ATOM     19  C   UNL     1       3.475   2.630  20.372  0.00  0.00    +0.000 C 
ATOM     20  C   UNL     1       2.534   3.837  20.460  0.00  0.00    +0.000 C 
ATOM     21  O   UNL     1       1.350   3.343  19.794  0.00  0.00    +0.000 OA
ATOM     22  C   UNL     1       2.978   4.942  19.496  0.00  0.00    +0.000 C 
BRANCH  22  23
ATOM     23  C   UNL     1       2.212   6.229  19.750  0.00  0.00    +0.000 C 
ATOM     24  F   UNL     1       1.315   6.140  20.755  0.00  0.00    +0.000 F 
ATOM     25  F   UNL     1       3.020   7.278  20.028  0.00  0.00    +0.000 F 
ATOM     26  F   UNL     1       1.514   6.571  18.638  0.00  0.00    +0.000 F 
ENDBRANCH  22  23
ENDBRANCH   2  16
TORSDOF 2
ENDMDL
MODEL 9
REMARK VINA RESULT:      -7.6      4.650      7.041
REMARK  Name = 
REMARK  2 active torsions:
REMARK  status: ('A' for Active; 'I' for Inactive)
REMARK    1  A    between atoms: C_2  and  C_14
REMARK    2  A    between atoms: C_20  and  C_21
REMARK                            x       y       z     vdW  Elec       q    Type
REMARK                         _______ _______ _______ _____ _____    ______ ____
ROOT
ATOM      1  O   UNL     1       2.791   8.047  17.876  0.00  0.00    +0.000 OA
ATOM      2  C   UNL     1       2.400   7.084  18.523  0.00  0.00    +0.000 C 
ATOM      3  N   UNL     1       1.730   7.137  19.727  0.00  0.00    +0.000 N 
ATOM      4  C   UNL     1       1.442   8.315  20.376  0.00  0.00    +0.000 A 
ATOM      5  N   UNL     1       1.619   8.347  21.700  0.00  0.00    +0.000 NA
ATOM      6  N   UNL     1       1.329   9.612  22.031  0.00  0.00    +0.000 N 
ATOM      7  C   UNL     1       0.793  10.348  21.013  0.00  0.00    +0.000 A 
ATOM      8  C   UNL     1       0.242  11.633  20.994  0.00  0.00    +0.000 A 
ATOM      9  C   UNL     1      -0.294  12.068  19.784  0.00  0.00    +0.000 A 
ATOM     10  F   UNL     1      -0.878  13.273  19.731  0.00  0.00    +0.000 F 
ATOM     11  C   UNL     1      -0.258  11.280  18.640  0.00  0.00    +0.000 A 
ATOM     12  C   UNL     1       0.342  10.010  18.670  0.00  0.00    +0.000 A 
ATOM     13  C   UNL     1       0.866   9.524  19.888  0.00  0.00    +0.000 A 
ATOM     14  H   UNL     1       1.871   6.377  20.382  0.00  0.00    +0.000 HD
ATOM     15  H   UNL     1       1.482   9.905  22.990  0.00  0.00    +0.000 HD
ENDROOT
BRANCH   2  16
ATOM     16  C   UNL     1       2.614   5.654  18.059  0.00  0.00    +0.000 C 
ATOM     17  C   UNL     1       3.974   5.505  17.356  0.00  0.00    +0.000 C 
ATOM     18  C   UNL     1       5.137   6.073  18.166  0.00  0.00    +0.000 C 
ATOM     19  C   UNL     1       5.169   5.128  19.368  0.00  0.00    +0.000 C 
ATOM     20  C   UNL     1       4.134   4.068  18.971  0.00  0.00    +0.000 C 
ATOM     21  O   UNL     1       4.223   4.089  17.529  0.00  0.00    +0.000 OA
ATOM     22  C   UNL     1       2.711   4.593  19.189  0.00  0.00    +0.000 C 
BRANCH  22  23
ATOM     23  C   UNL     1       1.690   3.478  19.039  0.00  0.00    +0.000 C 
ATOM     24  F   UNL     1       2.223   2.239  19.094  0.00  0.00    +0.000 F 
ATOM     25  F   UNL     1       0.709   3.532  19.970  0.00  0.00    +0.000 F 
ATOM     26  F   UNL     1       1.076   3.581  17.833  0.00  0.00    +0.000 F 
ENDBRANCH  22  23
ENDBRANCH   2  16
TORSDOF 2
ENDMDL
