MODEL 1
REMARK VINA RESULT:      -8.5      0.000      0.000
REMARK  Name = 
REMARK  6 active torsions:
REMARK  status: ('A' for Active; 'I' for Inactive)
REMARK    1  A    between atoms: C_1  and  C_2
REMARK    2  A    between atoms: C_9  and  C_10
REMARK    3  A    between atoms: C_10  and  N_11
REMARK    4  A    between atoms: C_15  and  C_16
REMARK    5  A    between atoms: C_15  and  C_17
REMARK    6  A    between atoms: C_29  and  C_30
REMARK                            x       y       z     vdW  Elec       q    Type
REMARK                         _______ _______ _______ _____ _____    ______ ____
ROOT
ATOM      1  N   UNL     1       1.211   8.484  19.896  0.00  0.00    +0.000 N 
ATOM      2  C   UNL     1       0.329   8.883  20.854  0.00  0.00    +0.000 C 
ATOM      3  O   UNL     1       0.272   8.512  22.015  0.00  0.00    +0.000 OA
ATOM      4  N   UNL     1      -0.465   9.885  20.343  0.00  0.00    +0.000 N 
ATOM      5  C   UNL     1       0.125  10.446  19.143  0.00  0.00    +0.000 C 
ATOM      6  C   UNL     1      -0.938  10.713  18.087  0.00  0.00    +0.000 C 
ATOM      7  C   UNL     1       1.074   9.273  18.784  0.00  0.00    +0.000 C 
ATOM      8  O   UNL     1       1.706   9.175  17.739  0.00  0.00    +0.000 OA
ATOM      9  H   UNL     1      -1.067  10.398  20.968  0.00  0.00    +0.000 HD
ENDROOT
BRANCH   5  10
ATOM     10  C   UNL     1       1.008  11.676  19.441  0.00  0.00    +0.000 A 
ATOM     11  C   UNL     1       0.831  12.393  20.644  0.00  0.00    +0.000 A 
ATOM     12  C   UNL     1       1.539  13.572  20.899  0.00  0.00    +0.000 A 
ATOM     13  C   UNL     1       2.433  14.054  19.952  0.00  0.00    +0.000 A 
ATOM     14  F   UNL     1       3.097  15.193  20.190  0.00  0.00    +0.000 F 
ATOM     15  C   UNL     1       2.623  13.368  18.762  0.00  0.00    +0.000 A 
ATOM     16  F   UNL     1       3.468  13.842  17.837  0.00  0.00    +0.000 F 
ATOM     17  C   UNL     1       1.925  12.190  18.502  0.00  0.00    +0.000 A 
ENDBRANCH   5  10
BRANCH   1  18
ATOM     18  C   UNL     1       2.406   7.713  20.180  0.00  0.00    +0.000 C 
BRANCH  18  27
ATOM     19  C   UNL     1       5.432   3.833  15.529  0.00  0.00    +0.000 C 
ATOM     20  C   UNL     1       4.601   4.510  16.583  0.00  0.00    +0.000 A 
ATOM     21  C   UNL     1       3.745   3.746  17.383  0.00  0.00    +0.000 A 
ATOM     22  C   UNL     1       2.999   4.355  18.394  0.00  0.00    +0.000 A 
ATOM     23  O   UNL     1       2.206   3.493  19.176  0.00  0.00    +0.000 OA
ATOM     24  C   UNL     1       1.515   3.966  20.274  0.00  0.00    +0.000 A 
ATOM     25  O   UNL     1       0.891   3.226  21.025  0.00  0.00    +0.000 OA
ATOM     26  C   UNL     1       1.577   5.413  20.523  0.00  0.00    +0.000 A 
ATOM     27  C   UNL     1       2.283   6.274  19.768  0.00  0.00    +0.000 A 
ATOM     28  C   UNL     1       3.059   5.725  18.644  0.00  0.00    +0.000 A 
ATOM     29  C   UNL     1       3.903   6.486  17.825  0.00  0.00    +0.000 A 
ATOM     30  C   UNL     1       4.680   5.898  16.807  0.00  0.00    +0.000 A 
ATOM     31  C   UNL     1       5.605   6.769  15.998  0.00  0.00    +0.000 C 
ENDBRANCH  18  27
ENDBRANCH   1  18
TORSDOF 3
ENDMDL
MODEL 2
REMARK VINA RESULT:      -8.5      0.480      1.193
REMARK  Name = 
REMARK  6 active torsions:
REMARK  status: ('A' for Active; 'I' for Inactive)
REMARK    1  A    between atoms: C_1  and  C_2
REMARK    2  A    between atoms: C_9  and  C_10
REMARK    3  A    between atoms: C_10  and  N_11
REMARK    4  A    between atoms: C_15  and  C_16
REMARK    5  A    between atoms: C_15  and  C_17
REMARK    6  A    between atoms: C_29  and  C_30
REMARK                            x       y       z     vdW  Elec       q    Type
REMARK                         _______ _______ _______ _____ _____    ______ ____
ROOT
ATOM      1  N   UNL     1       1.215   8.487  19.922  0.00  0.00    +0.000 N 
ATOM      2  C   UNL     1       0.399   8.955  20.906  0.00  0.00    +0.000 C 
ATOM      3  O   UNL     1       0.419   8.667  22.091  0.00  0.00    +0.000 OA
ATOM      4  N   UNL     1      -0.428   9.923  20.379  0.00  0.00    +0.000 N 
ATOM      5  C   UNL     1       0.081  10.396  19.107  0.00  0.00    +0.000 C 
ATOM      6  C   UNL     1      -1.050  10.593  18.107  0.00  0.00    +0.000 C 
ATOM      7  C   UNL     1       1.004   9.197  18.768  0.00  0.00    +0.000 C 
ATOM      8  O   UNL     1       1.566   9.024  17.694  0.00  0.00    +0.000 OA
ATOM      9  H   UNL     1      -0.988  10.481  21.006  0.00  0.00    +0.000 HD
ENDROOT
BRANCH   5  10
ATOM     10  C   UNL     1       0.980  11.640  19.259  0.00  0.00    +0.000 A 
ATOM     11  C   UNL     1       1.877  11.989  18.226  0.00  0.00    +0.000 A 
ATOM     12  C   UNL     1       2.780  13.047  18.373  0.00  0.00    +0.000 A 
ATOM     13  C   UNL     1       2.803  13.769  19.559  0.00  0.00    +0.000 A 
ATOM     14  F   UNL     1       3.681  14.771  19.704  0.00  0.00    +0.000 F 
ATOM     15  C   UNL     1       1.933  13.445  20.588  0.00  0.00    +0.000 A 
ATOM     16  F   UNL     1       1.968  14.126  21.742  0.00  0.00    +0.000 F 
ATOM     17  C   UNL     1       1.027  12.396  20.448  0.00  0.00    +0.000 A 
ENDBRANCH   5  10
BRANCH   1  18
ATOM     18  C   UNL     1       2.428   7.733  20.180  0.00  0.00    +0.000 C 
BRANCH  18  27
ATOM     19  C   UNL     1       5.435   3.802  15.560  0.00  0.00    +0.000 C 
ATOM     20  C   UNL     1       4.610   4.491  16.611  0.00  0.00    +0.000 A 
ATOM     21  C   UNL     1       3.765   3.733  17.428  0.00  0.00    +0.000 A 
ATOM     22  C   UNL     1       3.024   4.353  18.437  0.00  0.00    +0.000 A 
ATOM     23  O   UNL     1       2.242   3.498  19.238  0.00  0.00    +0.000 OA
ATOM     24  C   UNL     1       1.557   3.984  20.335  0.00  0.00    +0.000 A 
ATOM     25  O   UNL     1       0.943   3.251  21.102  0.00  0.00    +0.000 OA
ATOM     26  C   UNL     1       1.614   5.434  20.562  0.00  0.00    +0.000 A 
ATOM     27  C   UNL     1       2.308   6.288  19.789  0.00  0.00    +0.000 A 
ATOM     28  C   UNL     1       3.078   5.727  18.667  0.00  0.00    +0.000 A 
ATOM     29  C   UNL     1       3.911   6.481  17.830  0.00  0.00    +0.000 A 
ATOM     30  C   UNL     1       4.683   5.882  16.813  0.00  0.00    +0.000 A 
ATOM     31  C   UNL     1       5.597   6.746  15.985  0.00  0.00    +0.000 C 
ENDBRANCH  18  27
ENDBRANCH   1  18
TORSDOF 3
ENDMDL
MODEL 3
REMARK VINA RESULT:      -8.1      1.035      1.276
REMARK  Name = 
REMARK  6 active torsions:
REMARK  status: ('A' for Active; 'I' for Inactive)
REMARK    1  A    between atoms: C_1  and  C_2
REMARK    2  A    between atoms: C_9  and  C_10
REMARK    3  A    between atoms: C_10  and  N_11
REMARK    4  A    between atoms: C_15  and  C_16
REMARK    5  A    between atoms: C_15  and  C_17
REMARK    6  A    between atoms: C_29  and  C_30
REMARK                            x       y       z     vdW  Elec       q    Type
REMARK                         _______ _______ _______ _____ _____    ______ ____
ROOT
ATOM      1  N   UNL     1       1.510   8.301  19.492  0.00  0.00    +0.000 N 
ATOM      2  C   UNL     1       0.705   8.618  20.543  0.00  0.00    +0.000 C 
ATOM      3  O   UNL     1       0.733   8.153  21.670  0.00  0.00    +0.000 OA
ATOM      4  N   UNL     1      -0.120   9.659  20.177  0.00  0.00    +0.000 N 
ATOM      5  C   UNL     1       0.381  10.318  18.987  0.00  0.00    +0.000 C 
ATOM      6  C   UNL     1      -0.757  10.670  18.039  0.00  0.00    +0.000 C 
ATOM      7  C   UNL     1       1.294   9.179  18.461  0.00  0.00    +0.000 C 
ATOM      8  O   UNL     1       1.846   9.169  17.368  0.00  0.00    +0.000 OA
ATOM      9  H   UNL     1      -0.672  10.118  20.886  0.00  0.00    +0.000 HD
ENDROOT
BRANCH   5  10
ATOM     10  C   UNL     1       1.290  11.519  19.318  0.00  0.00    +0.000 A 
ATOM     11  C   UNL     1       1.289  12.063  20.621  0.00  0.00    +0.000 A 
ATOM     12  C   UNL     1       2.019  13.216  20.929  0.00  0.00    +0.000 A 
ATOM     13  C   UNL     1       2.759  13.845  19.936  0.00  0.00    +0.000 A 
ATOM     14  F   UNL     1       3.443  14.959  20.229  0.00  0.00    +0.000 F 
ATOM     15  C   UNL     1       2.774  13.331  18.649  0.00  0.00    +0.000 A 
ATOM     16  F   UNL     1       3.468  13.948  17.683  0.00  0.00    +0.000 F 
ATOM     17  C   UNL     1       2.053  12.181  18.334  0.00  0.00    +0.000 A 
ENDBRANCH   5  10
BRANCH   1  18
ATOM     18  C   UNL     1       2.719   7.511  19.621  0.00  0.00    +0.000 C 
BRANCH  18  27
ATOM     19  C   UNL     1       7.327   4.745  15.502  0.00  0.00    +0.000 C 
ATOM     20  C   UNL     1       6.145   5.211  16.306  0.00  0.00    +0.000 A 
ATOM     21  C   UNL     1       4.997   4.413  16.369  0.00  0.00    +0.000 A 
ATOM     22  C   UNL     1       3.908   4.812  17.145  0.00  0.00    +0.000 A 
ATOM     23  O   UNL     1       2.821   3.918  17.184  0.00  0.00    +0.000 OA
ATOM     24  C   UNL     1       1.737   4.153  18.008  0.00  0.00    +0.000 A 
ATOM     25  O   UNL     1       0.820   3.350  18.131  0.00  0.00    +0.000 OA
ATOM     26  C   UNL     1       1.739   5.415  18.759  0.00  0.00    +0.000 A 
ATOM     27  C   UNL     1       2.735   6.317  18.709  0.00  0.00    +0.000 A 
ATOM     28  C   UNL     1       3.903   6.003  17.870  0.00  0.00    +0.000 A 
ATOM     29  C   UNL     1       5.048   6.806  17.784  0.00  0.00    +0.000 A 
ATOM     30  C   UNL     1       6.170   6.422  17.021  0.00  0.00    +0.000 A 
ATOM     31  C   UNL     1       7.387   7.310  17.016  0.00  0.00    +0.000 C 
ENDBRANCH  18  27
ENDBRANCH   1  18
TORSDOF 3
ENDMDL
MODEL 4
REMARK VINA RESULT:      -8.1      3.074      4.651
REMARK  Name = 
REMARK  6 active torsions:
REMARK  status: ('A' for Active; 'I' for Inactive)
REMARK    1  A    between atoms: C_1  and  C_2
REMARK    2  A    between atoms: C_9  and  C_10
REMARK    3  A    between atoms: C_10  and  N_11
REMARK    4  A    between atoms: C_15  and  C_16
REMARK    5  A    between atoms: C_15  and  C_17
REMARK    6  A    between atoms: C_29  and  C_30
REMARK                            x       y       z     vdW  Elec       q    Type
REMARK                         _______ _______ _______ _____ _____    ______ ____
ROOT
ATOM      1  N   UNL     1       1.744   9.237  18.644  0.00  0.00    +0.000 N 
ATOM      2  C   UNL     1       2.098  10.474  18.198  0.00  0.00    +0.000 C 
ATOM      3  O   UNL     1       2.693  10.753  17.171  0.00  0.00    +0.000 OA
ATOM      4  N   UNL     1       1.582  11.422  19.053  0.00  0.00    +0.000 N 
ATOM      5  C   UNL     1       0.542  10.851  19.886  0.00  0.00    +0.000 C 
ATOM      6  C   UNL     1       0.648  11.362  21.316  0.00  0.00    +0.000 C 
ATOM      7  C   UNL     1       0.921   9.355  19.734  0.00  0.00    +0.000 C 
ATOM      8  O   UNL     1       0.432   8.437  20.381  0.00  0.00    +0.000 OA
ATOM      9  H   UNL     1       1.621  12.394  18.785  0.00  0.00    +0.000 HD
ENDROOT
BRANCH   5  10
ATOM     10  C   UNL     1      -0.864  11.033  19.279  0.00  0.00    +0.000 A 
ATOM     11  C   UNL     1      -1.743  11.999  19.818  0.00  0.00    +0.000 A 
ATOM     12  C   UNL     1      -3.060  12.118  19.362  0.00  0.00    +0.000 A 
ATOM     13  C   UNL     1      -3.519  11.272  18.362  0.00  0.00    +0.000 A 
ATOM     14  F   UNL     1      -4.787  11.376  17.940  0.00  0.00    +0.000 F 
ATOM     15  C   UNL     1      -2.677  10.315  17.818  0.00  0.00    +0.000 A 
ATOM     16  F   UNL     1      -3.124   9.481  16.870  0.00  0.00    +0.000 F 
ATOM     17  C   UNL     1      -1.362  10.191  18.264  0.00  0.00    +0.000 A 
ENDBRANCH   5  10
BRANCH   1  18
ATOM     18  C   UNL     1       1.808   8.042  17.823  0.00  0.00    +0.000 C 
BRANCH  18  27
ATOM     19  C   UNL     1       3.630   2.179  20.678  0.00  0.00    +0.000 C 
ATOM     20  C   UNL     1       3.465   3.526  20.031  0.00  0.00    +0.000 A 
ATOM     21  C   UNL     1       4.546   4.104  19.357  0.00  0.00    +0.000 A 
ATOM     22  C   UNL     1       4.395   5.335  18.715  0.00  0.00    +0.000 A 
ATOM     23  O   UNL     1       5.526   5.808  18.022  0.00  0.00    +0.000 OA
ATOM     24  C   UNL     1       5.460   6.956  17.257  0.00  0.00    +0.000 A 
ATOM     25  O   UNL     1       6.400   7.343  16.572  0.00  0.00    +0.000 OA
ATOM     26  C   UNL     1       4.191   7.697  17.282  0.00  0.00    +0.000 A 
ATOM     27  C   UNL     1       3.107   7.302  17.971  0.00  0.00    +0.000 A 
ATOM     28  C   UNL     1       3.193   6.040  18.724  0.00  0.00    +0.000 A 
ATOM     29  C   UNL     1       2.121   5.464  19.419  0.00  0.00    +0.000 A 
ATOM     30  C   UNL     1       2.238   4.215  20.063  0.00  0.00    +0.000 A 
ATOM     31  C   UNL     1       1.030   3.632  20.748  0.00  0.00    +0.000 C 
ENDBRANCH  18  27
ENDBRANCH   1  18
TORSDOF 3
ENDMDL
MODEL 5
REMARK VINA RESULT:      -7.9      2.880      4.673
REMARK  Name = 
REMARK  6 active torsions:
REMARK  status: ('A' for Active; 'I' for Inactive)
REMARK    1  A    between atoms: C_1  and  C_2
REMARK    2  A    between atoms: C_9  and  C_10
REMARK    3  A    between atoms: C_10  and  N_11
REMARK    4  A    between atoms: C_15  and  C_16
REMARK    5  A    between atoms: C_15  and  C_17
REMARK    6  A    between atoms: C_29  and  C_30
REMARK                            x       y       z     vdW  Elec       q    Type
REMARK                         _______ _______ _______ _____ _____    ______ ____
ROOT
ATOM      1  N   UNL     1       1.760   9.206  18.660  0.00  0.00    +0.000 N 
ATOM      2  C   UNL     1       2.069  10.452  18.205  0.00  0.00    +0.000 C 
ATOM      3  O   UNL     1       2.618  10.747  17.156  0.00  0.00    +0.000 OA
ATOM      4  N   UNL     1       1.564  11.387  19.081  0.00  0.00    +0.000 N 
ATOM      5  C   UNL     1       0.569  10.791  19.951  0.00  0.00    +0.000 C 
ATOM      6  C   UNL     1       0.718  11.301  21.378  0.00  0.00    +0.000 C 
ATOM      7  C   UNL     1       0.976   9.304  19.780  0.00  0.00    +0.000 C 
ATOM      8  O   UNL     1       0.532   8.373  20.442  0.00  0.00    +0.000 OA
ATOM      9  H   UNL     1       1.571  12.360  18.815  0.00  0.00    +0.000 HD
ENDROOT
BRANCH   5  10
ATOM     10  C   UNL     1      -0.863  10.943  19.398  0.00  0.00    +0.000 A 
ATOM     11  C   UNL     1      -1.255  10.214  18.254  0.00  0.00    +0.000 A 
ATOM     12  C   UNL     1      -2.509  10.406  17.665  0.00  0.00    +0.000 A 
ATOM     13  C   UNL     1      -3.388  11.333  18.208  0.00  0.00    +0.000 A 
ATOM     14  F   UNL     1      -4.581  11.528  17.631  0.00  0.00    +0.000 F 
ATOM     15  C   UNL     1      -3.025  12.062  19.330  0.00  0.00    +0.000 A 
ATOM     16  F   UNL     1      -3.862  12.973  19.843  0.00  0.00    +0.000 F 
ATOM     17  C   UNL     1      -1.780  11.874  19.927  0.00  0.00    +0.000 A 
ENDBRANCH   5  10
BRANCH   1  18
ATOM     18  C   UNL     1       1.819   8.015  17.833  0.00  0.00    +0.000 C 
BRANCH  18  27
ATOM     19  C   UNL     1       3.666   2.154  20.674  0.00  0.00    +0.000 C 
ATOM     20  C   UNL     1       3.495   3.501  20.028  0.00  0.00    +0.000 A 
ATOM     21  C   UNL     1       4.570   4.078  19.344  0.00  0.00    +0.000 A 
ATOM     22  C   UNL     1       4.414   5.308  18.703  0.00  0.00    +0.000 A 
ATOM     23  O   UNL     1       5.538   5.781  18.000  0.00  0.00    +0.000 OA
ATOM     24  C   UNL     1       5.466   6.929  17.235  0.00  0.00    +0.000 A 
ATOM     25  O   UNL     1       6.399   7.315  16.542  0.00  0.00    +0.000 OA
ATOM     26  C   UNL     1       4.197   7.669  17.271  0.00  0.00    +0.000 A 
ATOM     27  C   UNL     1       3.119   7.276  17.970  0.00  0.00    +0.000 A 
ATOM     28  C   UNL     1       3.211   6.013  18.723  0.00  0.00    +0.000 A 
ATOM     29  C   UNL     1       2.146   5.438  19.427  0.00  0.00    +0.000 A 
ATOM     30  C   UNL     1       2.268   4.189  20.071  0.00  0.00    +0.000 A 
ATOM     31  C   UNL     1       1.067   3.606  20.767  0.00  0.00    +0.000 C 
ENDBRANCH  18  27
ENDBRANCH   1  18
TORSDOF 3
ENDMDL
MODEL 6
REMARK VINA RESULT:      -7.9      0.963      1.020
REMARK  Name = 
REMARK  6 active torsions:
REMARK  status: ('A' for Active; 'I' for Inactive)
REMARK    1  A    between atoms: C_1  and  C_2
REMARK    2  A    between atoms: C_9  and  C_10
REMARK    3  A    between atoms: C_10  and  N_11
REMARK    4  A    between atoms: C_15  and  C_16
REMARK    5  A    between atoms: C_15  and  C_17
REMARK    6  A    between atoms: C_29  and  C_30
REMARK                            x       y       z     vdW  Elec       q    Type
REMARK                         _______ _______ _______ _____ _____    ______ ____
ROOT
ATOM      1  N   UNL     1       0.994   8.683  19.684  0.00  0.00    +0.000 N 
ATOM      2  C   UNL     1       0.069   9.010  20.628  0.00  0.00    +0.000 C 
ATOM      3  O   UNL     1       0.055   8.682  21.803  0.00  0.00    +0.000 OA
ATOM      4  N   UNL     1      -0.839   9.889  20.080  0.00  0.00    +0.000 N 
ATOM      5  C   UNL     1      -0.318  10.468  18.857  0.00  0.00    +0.000 C 
ATOM      6  C   UNL     1      -1.404  10.563  17.794  0.00  0.00    +0.000 C 
ATOM      7  C   UNL     1       0.766   9.404  18.542  0.00  0.00    +0.000 C 
ATOM      8  O   UNL     1       1.407   9.342  17.500  0.00  0.00    +0.000 OA
ATOM      9  H   UNL     1      -1.500  10.350  20.686  0.00  0.00    +0.000 HD
ENDROOT
BRANCH   5  10
ATOM     10  C   UNL     1       0.409  11.806  19.103  0.00  0.00    +0.000 A 
ATOM     11  C   UNL     1       1.505  11.857  19.993  0.00  0.00    +0.000 A 
ATOM     12  C   UNL     1       2.120  13.071  20.320  0.00  0.00    +0.000 A 
ATOM     13  C   UNL     1       1.646  14.251  19.765  0.00  0.00    +0.000 A 
ATOM     14  F   UNL     1       2.225  15.414  20.094  0.00  0.00    +0.000 F 
ATOM     15  C   UNL     1       0.571  14.228  18.890  0.00  0.00    +0.000 A 
ATOM     16  F   UNL     1       0.097  15.368  18.370  0.00  0.00    +0.000 F 
ATOM     17  C   UNL     1      -0.045  13.023  18.555  0.00  0.00    +0.000 A 
ENDBRANCH   5  10
BRANCH   1  18
ATOM     18  C   UNL     1       2.274   8.074  19.996  0.00  0.00    +0.000 C 
BRANCH  18  27
ATOM     19  C   UNL     1       5.491   3.954  15.692  0.00  0.00    +0.000 C 
ATOM     20  C   UNL     1       4.638   4.674  16.700  0.00  0.00    +0.000 A 
ATOM     21  C   UNL     1       3.899   3.936  17.630  0.00  0.00    +0.000 A 
ATOM     22  C   UNL     1       3.136   4.592  18.598  0.00  0.00    +0.000 A 
ATOM     23  O   UNL     1       2.469   3.762  19.519  0.00  0.00    +0.000 OA
ATOM     24  C   UNL     1       1.778   4.299  20.588  0.00  0.00    +0.000 A 
ATOM     25  O   UNL     1       1.264   3.602  21.455  0.00  0.00    +0.000 OA
ATOM     26  C   UNL     1       1.701   5.765  20.656  0.00  0.00    +0.000 A 
ATOM     27  C   UNL     1       2.282   6.589  19.767  0.00  0.00    +0.000 A 
ATOM     28  C   UNL     1       3.065   5.982  18.678  0.00  0.00    +0.000 A 
ATOM     29  C   UNL     1       3.791   6.713  17.729  0.00  0.00    +0.000 A 
ATOM     30  C   UNL     1       4.583   6.080  16.749  0.00  0.00    +0.000 A 
ATOM     31  C   UNL     1       5.379   6.929  15.794  0.00  0.00    +0.000 C 
ENDBRANCH  18  27
ENDBRANCH   1  18
TORSDOF 3
ENDMDL
MODEL 7
REMARK VINA RESULT:      -7.8      3.861      5.956
REMARK  Name = 
REMARK  6 active torsions:
REMARK  status: ('A' for Active; 'I' for Inactive)
REMARK    1  A    between atoms: C_1  and  C_2
REMARK    2  A    between atoms: C_9  and  C_10
REMARK    3  A    between atoms: C_10  and  N_11
REMARK    4  A    between atoms: C_15  and  C_16
REMARK    5  A    between atoms: C_15  and  C_17
REMARK    6  A    between atoms: C_29  and  C_30
REMARK                            x       y       z     vdW  Elec       q    Type
REMARK                         _______ _______ _______ _____ _____    ______ ____
ROOT
ATOM      1  N   UNL     1       3.470   2.698  18.407  0.00  0.00    +0.000 N 
ATOM      2  C   UNL     1       4.008   2.802  19.654  0.00  0.00    +0.000 C 
ATOM      3  O   UNL     1       5.166   2.608  19.984  0.00  0.00    +0.000 OA
ATOM      4  N   UNL     1       3.046   3.278  20.518  0.00  0.00    +0.000 N 
ATOM      5  C   UNL     1       1.943   3.867  19.785  0.00  0.00    +0.000 C 
ATOM      6  C   UNL     1       0.609   3.495  20.417  0.00  0.00    +0.000 C 
ATOM      7  C   UNL     1       2.189   3.186  18.413  0.00  0.00    +0.000 C 
ATOM      8  O   UNL     1       1.422   3.229  17.459  0.00  0.00    +0.000 OA
ATOM      9  H   UNL     1       3.321   3.559  21.447  0.00  0.00    +0.000 HD
ENDROOT
BRANCH   5  10
ATOM     10  C   UNL     1       2.117   5.386  19.581  0.00  0.00    +0.000 A 
ATOM     11  C   UNL     1       1.670   6.284  20.575  0.00  0.00    +0.000 A 
ATOM     12  C   UNL     1       1.715   7.668  20.378  0.00  0.00    +0.000 A 
ATOM     13  C   UNL     1       2.204   8.175  19.183  0.00  0.00    +0.000 A 
ATOM     14  F   UNL     1       2.229   9.501  18.989  0.00  0.00    +0.000 F 
ATOM     15  C   UNL     1       2.647   7.315  18.191  0.00  0.00    +0.000 A 
ATOM     16  F   UNL     1       3.098   7.800  17.026  0.00  0.00    +0.000 F 
ATOM     17  C   UNL     1       2.610   5.934  18.380  0.00  0.00    +0.000 A 
ENDBRANCH   5  10
BRANCH   1  18
ATOM     18  C   UNL     1       4.266   2.572  17.201  0.00  0.00    +0.000 C 
BRANCH  18  27
ATOM     19  C   UNL     1       7.738   5.407  12.126  0.00  0.00    +0.000 C 
ATOM     20  C   UNL     1       7.136   4.877  13.398  0.00  0.00    +0.000 A 
ATOM     21  C   UNL     1       7.477   5.468  14.619  0.00  0.00    +0.000 A 
ATOM     22  C   UNL     1       6.893   5.014  15.804  0.00  0.00    +0.000 A 
ATOM     23  O   UNL     1       7.263   5.706  16.974  0.00  0.00    +0.000 OA
ATOM     24  C   UNL     1       6.665   5.420  18.186  0.00  0.00    +0.000 A 
ATOM     25  O   UNL     1       6.900   6.065  19.201  0.00  0.00    +0.000 OA
ATOM     26  C   UNL     1       5.704   4.309  18.205  0.00  0.00    +0.000 A 
ATOM     27  C   UNL     1       5.364   3.594  17.118  0.00  0.00    +0.000 A 
ATOM     28  C   UNL     1       5.973   3.968  15.831  0.00  0.00    +0.000 A 
ATOM     29  C   UNL     1       5.653   3.369  14.606  0.00  0.00    +0.000 A 
ATOM     30  C   UNL     1       6.213   3.814  13.391  0.00  0.00    +0.000 A 
ATOM     31  C   UNL     1       5.785   3.158  12.106  0.00  0.00    +0.000 C 
ENDBRANCH  18  27
ENDBRANCH   1  18
TORSDOF 3
ENDMDL
MODEL 8
REMARK VINA RESULT:      -7.8      4.323      7.960
REMARK  Name = 
REMARK  6 active torsions:
REMARK  status: ('A' for Active; 'I' for Inactive)
REMARK    1  A    between atoms: C_1  and  C_2
REMARK    2  A    between atoms: C_9  and  C_10
REMARK    3  A    between atoms: C_10  and  N_11
REMARK    4  A    between atoms: C_15  and  C_16
REMARK    5  A    between atoms: C_15  and  C_17
REMARK    6  A    between atoms: C_29  and  C_30
REMARK                            x       y       z     vdW  Elec       q    Type
REMARK                         _______ _______ _______ _____ _____    ______ ____
ROOT
ATOM      1  N   UNL     1       4.861   5.253  17.590  0.00  0.00    +0.000 N 
ATOM      2  C   UNL     1       5.883   4.477  18.044  0.00  0.00    +0.000 C 
ATOM      3  O   UNL     1       5.805   3.436  18.674  0.00  0.00    +0.000 OA
ATOM      4  N   UNL     1       7.075   4.996  17.589  0.00  0.00    +0.000 N 
ATOM      5  C   UNL     1       6.849   5.920  16.495  0.00  0.00    +0.000 C 
ATOM      6  C   UNL     1       7.751   7.140  16.618  0.00  0.00    +0.000 C 
ATOM      7  C   UNL     1       5.352   6.228  16.761  0.00  0.00    +0.000 C 
ATOM      8  O   UNL     1       4.702   7.098  16.194  0.00  0.00    +0.000 OA
ATOM      9  H   UNL     1       7.919   4.456  17.705  0.00  0.00    +0.000 HD
ENDROOT
BRANCH   5  10
ATOM     10  C   UNL     1       6.939   5.235  15.116  0.00  0.00    +0.000 A 
ATOM     11  C   UNL     1       7.955   5.609  14.210  0.00  0.00    +0.000 A 
ATOM     12  C   UNL     1       8.003   5.085  12.914  0.00  0.00    +0.000 A 
ATOM     13  C   UNL     1       7.033   4.181  12.503  0.00  0.00    +0.000 A 
ATOM     14  F   UNL     1       7.071   3.694  11.256  0.00  0.00    +0.000 F 
ATOM     15  C   UNL     1       6.024   3.799  13.374  0.00  0.00    +0.000 A 
ATOM     16  F   UNL     1       5.073   2.944  12.973  0.00  0.00    +0.000 F 
ATOM     17  C   UNL     1       5.971   4.312  14.668  0.00  0.00    +0.000 A 
ENDBRANCH   5  10
BRANCH   1  18
ATOM     18  C   UNL     1       3.475   4.822  17.575  0.00  0.00    +0.000 C 
BRANCH  18  27
ATOM     19  C   UNL     1       0.445  10.085  20.569  0.00  0.00    +0.000 C 
ATOM     20  C   UNL     1       1.105   8.810  20.124  0.00  0.00    +0.000 A 
ATOM     21  C   UNL     1       0.954   7.651  20.892  0.00  0.00    +0.000 A 
ATOM     22  C   UNL     1       1.526   6.449  20.468  0.00  0.00    +0.000 A 
ATOM     23  O   UNL     1       1.275   5.329  21.284  0.00  0.00    +0.000 OA
ATOM     24  C   UNL     1       1.694   4.068  20.906  0.00  0.00    +0.000 A 
ATOM     25  O   UNL     1       1.412   3.063  21.548  0.00  0.00    +0.000 OA
ATOM     26  C   UNL     1       2.485   3.976  19.671  0.00  0.00    +0.000 A 
ATOM     27  C   UNL     1       2.787   5.030  18.893  0.00  0.00    +0.000 A 
ATOM     28  C   UNL     1       2.270   6.349  19.293  0.00  0.00    +0.000 A 
ATOM     29  C   UNL     1       2.434   7.519  18.541  0.00  0.00    +0.000 A 
ATOM     30  C   UNL     1       1.855   8.743  18.934  0.00  0.00    +0.000 A 
ATOM     31  C   UNL     1       2.029   9.950  18.050  0.00  0.00    +0.000 C 
ENDBRANCH  18  27
ENDBRANCH   1  18
TORSDOF 3
ENDMDL
MODEL 9
REMARK VINA RESULT:      -7.6      3.623      7.821
REMARK  Name = 
REMARK  6 active torsions:
REMARK  status: ('A' for Active; 'I' for Inactive)
REMARK    1  A    between atoms: C_1  and  C_2
REMARK    2  A    between atoms: C_9  and  C_10
REMARK    3  A    between atoms: C_10  and  N_11
REMARK    4  A    between atoms: C_15  and  C_16
REMARK    5  A    between atoms: C_15  and  C_17
REMARK    6  A    between atoms: C_29  and  C_30
REMARK                            x       y       z     vdW  Elec       q    Type
REMARK                         _______ _______ _______ _____ _____    ______ ____
ROOT
ATOM      1  N   UNL     1       2.217   3.867  19.575  0.00  0.00    +0.000 N 
ATOM      2  C   UNL     1       1.607   3.501  18.414  0.00  0.00    +0.000 C 
ATOM      3  O   UNL     1       0.597   3.974  17.921  0.00  0.00    +0.000 OA
ATOM      4  N   UNL     1       2.377   2.546  17.786  0.00  0.00    +0.000 N 
ATOM      5  C   UNL     1       3.720   2.529  18.332  0.00  0.00    +0.000 C 
ATOM      6  C   UNL     1       4.225   1.101  18.490  0.00  0.00    +0.000 C 
ATOM      7  C   UNL     1       3.428   3.235  19.682  0.00  0.00    +0.000 C 
ATOM      8  O   UNL     1       4.223   3.336  20.609  0.00  0.00    +0.000 OA
ATOM      9  H   UNL     1       2.149   2.278  16.841  0.00  0.00    +0.000 HD
ENDROOT
BRANCH   5  10
ATOM     10  C   UNL     1       4.688   3.432  17.541  0.00  0.00    +0.000 A 
ATOM     11  C   UNL     1       4.492   3.630  16.157  0.00  0.00    +0.000 A 
ATOM     12  C   UNL     1       5.409   4.355  15.389  0.00  0.00    +0.000 A 
ATOM     13  C   UNL     1       6.538   4.890  15.993  0.00  0.00    +0.000 A 
ATOM     14  F   UNL     1       7.424   5.569  15.252  0.00  0.00    +0.000 F 
ATOM     15  C   UNL     1       6.754   4.709  17.350  0.00  0.00    +0.000 A 
ATOM     16  F   UNL     1       7.855   5.204  17.932  0.00  0.00    +0.000 F 
ATOM     17  C   UNL     1       5.844   3.991  18.124  0.00  0.00    +0.000 A 
ENDBRANCH   5  10
BRANCH   1  18
ATOM     18  C   UNL     1       1.885   5.076  20.305  0.00  0.00    +0.000 C 
BRANCH  18  27
ATOM     19  C   UNL     1       0.283  11.604  21.121  0.00  0.00    +0.000 C 
ATOM     20  C   UNL     1       0.694  10.217  20.711  0.00  0.00    +0.000 A 
ATOM     21  C   UNL     1       1.490  10.043  19.574  0.00  0.00    +0.000 A 
ATOM     22  C   UNL     1       1.914   8.765  19.204  0.00  0.00    +0.000 A 
ATOM     23  O   UNL     1       2.752   8.699  18.074  0.00  0.00    +0.000 OA
ATOM     24  C   UNL     1       3.325   7.505  17.684  0.00  0.00    +0.000 A 
ATOM     25  O   UNL     1       4.128   7.432  16.762  0.00  0.00    +0.000 OA
ATOM     26  C   UNL     1       2.942   6.307  18.445  0.00  0.00    +0.000 A 
ATOM     27  C   UNL     1       2.106   6.323  19.498  0.00  0.00    +0.000 A 
ATOM     28  C   UNL     1       1.565   7.624  19.925  0.00  0.00    +0.000 A 
ATOM     29  C   UNL     1       0.751   7.806  21.051  0.00  0.00    +0.000 A 
ATOM     30  C   UNL     1       0.319   9.085  21.458  0.00  0.00    +0.000 A 
ATOM     31  C   UNL     1      -0.512   9.211  22.708  0.00  0.00    +0.000 C 
ENDBRANCH  18  27
ENDBRANCH   1  18
TORSDOF 3
ENDMDL
