MODEL 1
REMARK VINA RESULT:      -8.9      0.000      0.000
REMARK  Name = 
REMARK  3 active torsions:
REMARK  status: ('A' for Active; 'I' for Inactive)
REMARK    1  A    between atoms: C_2  and  C_21
REMARK    2  A    between atoms: N_3  and  C_4
REMARK    3  A    between atoms: C_9  and  C_10
REMARK                            x       y       z     vdW  Elec       q    Type
REMARK                         _______ _______ _______ _____ _____    ______ ____
ROOT
ATOM      1  C   UNL     1       0.954  10.523  20.080  0.00  0.00    +0.000 C 
ATOM      2  C   UNL     1       1.505  10.780  18.669  0.00  0.00    +0.000 C 
ATOM      3  C   UNL     1       2.105   9.631  17.868  0.00  0.00    +0.000 C 
ATOM      4  C   UNL     1       2.138   8.317  18.540  0.00  0.00    +0.000 A 
ATOM      5  N   UNL     1       2.634   7.205  18.041  0.00  0.00    +0.000 NA
ATOM      6  C   UNL     1       2.400   6.230  18.986  0.00  0.00    +0.000 A 
ATOM      7  C   UNL     1       1.792   6.783  20.090  0.00  0.00    +0.000 A 
ATOM      8  N   UNL     1       1.628   8.104  19.787  0.00  0.00    +0.000 N 
ATOM      9  C   UNL     1       1.027   9.093  20.642  0.00  0.00    +0.000 C 
ENDROOT
BRANCH   6  10
ATOM     10  C   UNL     1       2.793   4.845  18.822  0.00  0.00    +0.000 A 
ATOM     11  C   UNL     1       3.930   4.362  19.490  0.00  0.00    +0.000 A 
ATOM     12  C   UNL     1       4.304   3.018  19.379  0.00  0.00    +0.000 A 
ATOM     13  C   UNL     1       3.548   2.160  18.589  0.00  0.00    +0.000 A 
ATOM     14  F   UNL     1       3.900   0.870  18.492  0.00  0.00    +0.000 F 
ATOM     15  C   UNL     1       2.436   2.616  17.899  0.00  0.00    +0.000 A 
ATOM     16  C   UNL     1       2.067   3.954  18.018  0.00  0.00    +0.000 A 
ATOM     17  F   UNL     1       0.993   4.365  17.325  0.00  0.00    +0.000 F 
ENDBRANCH   6  10
BRANCH   1  20
ATOM     18  O   UNL     1       0.027  12.455  21.962  0.00  0.00    +0.000 OA
ATOM     19  C   UNL     1      -0.775  11.997  21.148  0.00  0.00    +0.000 C 
ATOM     20  N   UNL     1      -0.401  11.074  20.191  0.00  0.00    +0.000 N 
ATOM     21  H   UNL     1      -1.162  10.731  19.608  0.00  0.00    +0.000 HD
BRANCH  19  22
ATOM     22  C   UNL     1      -2.185  12.353  21.083  0.00  0.00    +0.000 A 
ATOM     23  N   UNL     1      -2.795  12.669  19.948  0.00  0.00    +0.000 NA
ATOM     24  C   UNL     1      -4.092  12.947  20.290  0.00  0.00    +0.000 A 
ATOM     25  C   UNL     1      -4.285  12.820  21.647  0.00  0.00    +0.000 A 
ATOM     26  N   UNL     1      -3.071  12.429  22.135  0.00  0.00    +0.000 N 
ATOM     27  C   UNL     1      -2.774  12.174  23.520  0.00  0.00    +0.000 C 
ATOM     28  C   UNL     1      -3.914  12.404  24.509  0.00  0.00    +0.000 C 
ATOM     29  C   UNL     1      -5.284  12.836  23.983  0.00  0.00    +0.000 C 
ATOM     30  C   UNL     1      -5.481  13.042  22.485  0.00  0.00    +0.000 C 
ENDBRANCH  19  22
ENDBRANCH   1  20
TORSDOF 3
ENDMDL
MODEL 2
REMARK VINA RESULT:      -8.7      0.907      1.256
REMARK  Name = 
REMARK  3 active torsions:
REMARK  status: ('A' for Active; 'I' for Inactive)
REMARK    1  A    between atoms: C_2  and  C_21
REMARK    2  A    between atoms: N_3  and  C_4
REMARK    3  A    between atoms: C_9  and  C_10
REMARK                            x       y       z     vdW  Elec       q    Type
REMARK                         _______ _______ _______ _____ _____    ______ ____
ROOT
ATOM      1  C   UNL     1       0.811  10.546  20.094  0.00  0.00    +0.000 C 
ATOM      2  C   UNL     1       1.355  10.792  18.678  0.00  0.00    +0.000 C 
ATOM      3  C   UNL     1       1.980   9.642  17.896  0.00  0.00    +0.000 C 
ATOM      4  C   UNL     1       2.040   8.341  18.590  0.00  0.00    +0.000 A 
ATOM      5  N   UNL     1       2.560   7.231  18.109  0.00  0.00    +0.000 NA
ATOM      6  C   UNL     1       2.347   6.267  19.070  0.00  0.00    +0.000 A 
ATOM      7  C   UNL     1       1.729   6.826  20.165  0.00  0.00    +0.000 A 
ATOM      8  N   UNL     1       1.536   8.138  19.840  0.00  0.00    +0.000 N 
ATOM      9  C   UNL     1       0.915   9.128  20.680  0.00  0.00    +0.000 C 
ENDROOT
BRANCH   6  10
ATOM     10  C   UNL     1       2.770   4.889  18.929  0.00  0.00    +0.000 A 
ATOM     11  C   UNL     1       1.856   3.924  18.476  0.00  0.00    +0.000 A 
ATOM     12  C   UNL     1       2.254   2.595  18.293  0.00  0.00    +0.000 A 
ATOM     13  C   UNL     1       3.565   2.229  18.575  0.00  0.00    +0.000 A 
ATOM     14  F   UNL     1       3.950   0.959  18.388  0.00  0.00    +0.000 F 
ATOM     15  C   UNL     1       4.482   3.156  19.046  0.00  0.00    +0.000 A 
ATOM     16  C   UNL     1       4.079   4.477  19.222  0.00  0.00    +0.000 A 
ATOM     17  F   UNL     1       4.988   5.345  19.693  0.00  0.00    +0.000 F 
ENDBRANCH   6  10
BRANCH   1  20
ATOM     18  O   UNL     1      -0.098  12.674  21.761  0.00  0.00    +0.000 OA
ATOM     19  C   UNL     1      -0.918  12.096  21.048  0.00  0.00    +0.000 C 
ATOM     20  N   UNL     1      -0.555  11.071  20.198  0.00  0.00    +0.000 N 
ATOM     21  H   UNL     1      -1.328  10.636  19.697  0.00  0.00    +0.000 HD
BRANCH  19  22
ATOM     22  C   UNL     1      -2.341  12.403  21.004  0.00  0.00    +0.000 A 
ATOM     23  N   UNL     1      -2.985  12.664  19.873  0.00  0.00    +0.000 NA
ATOM     24  C   UNL     1      -4.284  12.908  20.236  0.00  0.00    +0.000 A 
ATOM     25  C   UNL     1      -4.443  12.817  21.600  0.00  0.00    +0.000 A 
ATOM     26  N   UNL     1      -3.207  12.481  22.073  0.00  0.00    +0.000 N 
ATOM     27  C   UNL     1      -2.872  12.279  23.458  0.00  0.00    +0.000 C 
ATOM     28  C   UNL     1      -3.998  12.501  24.464  0.00  0.00    +0.000 C 
ATOM     29  C   UNL     1      -5.392  12.871  23.956  0.00  0.00    +0.000 C 
ATOM     30  C   UNL     1      -5.628  13.024  22.458  0.00  0.00    +0.000 C 
ENDBRANCH  19  22
ENDBRANCH   1  20
TORSDOF 3
ENDMDL
MODEL 3
REMARK VINA RESULT:      -8.7      1.163      1.177
REMARK  Name = 
REMARK  3 active torsions:
REMARK  status: ('A' for Active; 'I' for Inactive)
REMARK    1  A    between atoms: C_2  and  C_21
REMARK    2  A    between atoms: N_3  and  C_4
REMARK    3  A    between atoms: C_9  and  C_10
REMARK                            x       y       z     vdW  Elec       q    Type
REMARK                         _______ _______ _______ _____ _____    ______ ____
ROOT
ATOM      1  C   UNL     1       0.370  10.846  20.281  0.00  0.00    +0.000 C 
ATOM      2  C   UNL     1       0.789  10.943  18.805  0.00  0.00    +0.000 C 
ATOM      3  C   UNL     1       1.488   9.766  18.136  0.00  0.00    +0.000 C 
ATOM      4  C   UNL     1       1.744   8.590  18.992  0.00  0.00    +0.000 A 
ATOM      5  N   UNL     1       2.355   7.484  18.623  0.00  0.00    +0.000 NA
ATOM      6  C   UNL     1       2.319   6.650  19.719  0.00  0.00    +0.000 A 
ATOM      7  C   UNL     1       1.714   7.290  20.776  0.00  0.00    +0.000 A 
ATOM      8  N   UNL     1       1.350   8.516  20.295  0.00  0.00    +0.000 N 
ATOM      9  C   UNL     1       0.676   9.544  21.042  0.00  0.00    +0.000 C 
ENDROOT
BRANCH   6  10
ATOM     10  C   UNL     1       2.888   5.317  19.730  0.00  0.00    +0.000 A 
ATOM     11  C   UNL     1       4.213   5.123  19.306  0.00  0.00    +0.000 A 
ATOM     12  C   UNL     1       4.795   3.852  19.348  0.00  0.00    +0.000 A 
ATOM     13  C   UNL     1       4.048   2.772  19.802  0.00  0.00    +0.000 A 
ATOM     14  F   UNL     1       4.610   1.556  19.854  0.00  0.00    +0.000 F 
ATOM     15  C   UNL     1       2.731   2.930  20.203  0.00  0.00    +0.000 A 
ATOM     16  C   UNL     1       2.159   4.199  20.163  0.00  0.00    +0.000 A 
ATOM     17  F   UNL     1       0.877   4.314  20.545  0.00  0.00    +0.000 F 
ENDBRANCH   6  10
BRANCH   1  20
ATOM     18  O   UNL     1      -0.646  13.360  21.163  0.00  0.00    +0.000 OA
ATOM     19  C   UNL     1      -1.447  12.470  20.879  0.00  0.00    +0.000 C 
ATOM     20  N   UNL     1      -1.037  11.233  20.424  0.00  0.00    +0.000 N 
ATOM     21  H   UNL     1      -1.789  10.563  20.270  0.00  0.00    +0.000 HD
BRANCH  19  22
ATOM     22  C   UNL     1      -2.895  12.595  20.979  0.00  0.00    +0.000 A 
ATOM     23  N   UNL     1      -3.677  12.762  19.920  0.00  0.00    +0.000 NA
ATOM     24  C   UNL     1      -4.953  12.845  20.412  0.00  0.00    +0.000 A 
ATOM     25  C   UNL     1      -4.961  12.747  21.785  0.00  0.00    +0.000 A 
ATOM     26  N   UNL     1      -3.652  12.574  22.130  0.00  0.00    +0.000 N 
ATOM     27  C   UNL     1      -3.157  12.429  23.474  0.00  0.00    +0.000 C 
ATOM     28  C   UNL     1      -4.195  12.518  24.589  0.00  0.00    +0.000 C 
ATOM     29  C   UNL     1      -5.669  12.704  24.225  0.00  0.00    +0.000 C 
ATOM     30  C   UNL     1      -6.071  12.812  22.759  0.00  0.00    +0.000 C 
ENDBRANCH  19  22
ENDBRANCH   1  20
TORSDOF 3
ENDMDL
MODEL 4
REMARK VINA RESULT:      -8.6      0.767      1.729
REMARK  Name = 
REMARK  3 active torsions:
REMARK  status: ('A' for Active; 'I' for Inactive)
REMARK    1  A    between atoms: C_2  and  C_21
REMARK    2  A    between atoms: N_3  and  C_4
REMARK    3  A    between atoms: C_9  and  C_10
REMARK                            x       y       z     vdW  Elec       q    Type
REMARK                         _______ _______ _______ _____ _____    ______ ____
ROOT
ATOM      1  C   UNL     1       0.959  10.514  20.696  0.00  0.00    +0.000 C 
ATOM      2  C   UNL     1       1.135  10.856  19.207  0.00  0.00    +0.000 C 
ATOM      3  C   UNL     1       1.583   9.777  18.229  0.00  0.00    +0.000 C 
ATOM      4  C   UNL     1       1.849   8.445  18.808  0.00  0.00    +0.000 A 
ATOM      5  N   UNL     1       2.268   7.385  18.149  0.00  0.00    +0.000 NA
ATOM      6  C   UNL     1       2.324   6.364  19.072  0.00  0.00    +0.000 A 
ATOM      7  C   UNL     1       1.975   6.838  20.316  0.00  0.00    +0.000 A 
ATOM      8  N   UNL     1       1.671   8.156  20.128  0.00  0.00    +0.000 N 
ATOM      9  C   UNL     1       1.245   9.073  21.152  0.00  0.00    +0.000 C 
ENDROOT
BRANCH   6  10
ATOM     10  C   UNL     1       2.740   5.014  18.749  0.00  0.00    +0.000 A 
ATOM     11  C   UNL     1       3.896   4.482  19.344  0.00  0.00    +0.000 A 
ATOM     12  C   UNL     1       4.292   3.167  19.078  0.00  0.00    +0.000 A 
ATOM     13  C   UNL     1       3.539   2.388  18.207  0.00  0.00    +0.000 A 
ATOM     14  F   UNL     1       3.913   1.124  17.963  0.00  0.00    +0.000 F 
ATOM     15  C   UNL     1       2.408   2.896  17.588  0.00  0.00    +0.000 A 
ATOM     16  C   UNL     1       2.017   4.204  17.860  0.00  0.00    +0.000 A 
ATOM     17  F   UNL     1       0.926   4.669  17.232  0.00  0.00    +0.000 F 
ENDBRANCH   6  10
BRANCH   1  20
ATOM     18  O   UNL     1       0.332  13.024  21.894  0.00  0.00    +0.000 OA
ATOM     19  C   UNL     1      -0.572  12.202  21.748  0.00  0.00    +0.000 C 
ATOM     20  N   UNL     1      -0.355  10.973  21.158  0.00  0.00    +0.000 N 
ATOM     21  H   UNL     1      -1.167  10.358  21.139  0.00  0.00    +0.000 HD
BRANCH  19  22
ATOM     22  C   UNL     1      -1.952  12.404  22.166  0.00  0.00    +0.000 A 
ATOM     23  N   UNL     1      -2.307  12.528  23.439  0.00  0.00    +0.000 NA
ATOM     24  C   UNL     1      -3.668  12.693  23.429  0.00  0.00    +0.000 A 
ATOM     25  C   UNL     1      -4.162  12.651  22.145  0.00  0.00    +0.000 A 
ATOM     26  N   UNL     1      -3.062  12.483  21.354  0.00  0.00    +0.000 N 
ATOM     27  C   UNL     1      -3.078  12.375  19.918  0.00  0.00    +0.000 C 
ATOM     28  C   UNL     1      -4.451  12.416  19.253  0.00  0.00    +0.000 C 
ATOM     29  C   UNL     1      -5.695  12.611  20.120  0.00  0.00    +0.000 C 
ATOM     30  C   UNL     1      -5.544  12.746  21.630  0.00  0.00    +0.000 C 
ENDBRANCH  19  22
ENDBRANCH   1  20
TORSDOF 3
ENDMDL
MODEL 5
REMARK VINA RESULT:      -8.5      1.069      2.189
REMARK  Name = 
REMARK  3 active torsions:
REMARK  status: ('A' for Active; 'I' for Inactive)
REMARK    1  A    between atoms: C_2  and  C_21
REMARK    2  A    between atoms: N_3  and  C_4
REMARK    3  A    between atoms: C_9  and  C_10
REMARK                            x       y       z     vdW  Elec       q    Type
REMARK                         _______ _______ _______ _____ _____    ______ ____
ROOT
ATOM      1  C   UNL     1       0.976  10.298  20.039  0.00  0.00    +0.000 C 
ATOM      2  C   UNL     1       1.471  10.533  18.603  0.00  0.00    +0.000 C 
ATOM      3  C   UNL     1       2.061   9.376  17.805  0.00  0.00    +0.000 C 
ATOM      4  C   UNL     1       2.140   8.079  18.505  0.00  0.00    +0.000 A 
ATOM      5  N   UNL     1       2.636   6.963  18.012  0.00  0.00    +0.000 NA
ATOM      6  C   UNL     1       2.453   6.006  18.985  0.00  0.00    +0.000 A 
ATOM      7  C   UNL     1       1.877   6.574  20.098  0.00  0.00    +0.000 A 
ATOM      8  N   UNL     1       1.680   7.885  19.773  0.00  0.00    +0.000 N 
ATOM      9  C   UNL     1       1.095   8.883  20.629  0.00  0.00    +0.000 C 
ENDROOT
BRANCH   6  10
ATOM     10  C   UNL     1       2.864   4.624  18.837  0.00  0.00    +0.000 A 
ATOM     11  C   UNL     1       3.961   4.142  19.570  0.00  0.00    +0.000 A 
ATOM     12  C   UNL     1       4.348   2.802  19.473  0.00  0.00    +0.000 A 
ATOM     13  C   UNL     1       3.646   1.945  18.633  0.00  0.00    +0.000 A 
ATOM     14  F   UNL     1       4.011   0.658  18.550  0.00  0.00    +0.000 F 
ATOM     15  C   UNL     1       2.576   2.400  17.879  0.00  0.00    +0.000 A 
ATOM     16  C   UNL     1       2.193   3.735  17.984  0.00  0.00    +0.000 A 
ATOM     17  F   UNL     1       1.161   4.145  17.230  0.00  0.00    +0.000 F 
ENDBRANCH   6  10
BRANCH   1  20
ATOM     18  O   UNL     1       0.228  13.010  20.506  0.00  0.00    +0.000 OA
ATOM     19  C   UNL     1      -0.660  12.161  20.433  0.00  0.00    +0.000 C 
ATOM     20  N   UNL     1      -0.382  10.831  20.188  0.00  0.00    +0.000 N 
ATOM     21  H   UNL     1      -1.194  10.215  20.201  0.00  0.00    +0.000 HD
BRANCH  19  22
ATOM     22  C   UNL     1      -2.082  12.432  20.591  0.00  0.00    +0.000 A 
ATOM     23  N   UNL     1      -2.602  12.912  21.714  0.00  0.00    +0.000 NA
ATOM     24  C   UNL     1      -3.947  13.023  21.481  0.00  0.00    +0.000 A 
ATOM     25  C   UNL     1      -4.267  12.591  20.214  0.00  0.00    +0.000 A 
ATOM     26  N   UNL     1      -3.074  12.234  19.656  0.00  0.00    +0.000 N 
ATOM     27  C   UNL     1      -2.900  11.709  18.327  0.00  0.00    +0.000 C 
ATOM     28  C   UNL     1      -4.172  11.510  17.507  0.00  0.00    +0.000 C 
ATOM     29  C   UNL     1      -5.519  11.910  18.110  0.00  0.00    +0.000 C 
ATOM     30  C   UNL     1      -5.568  12.487  19.520  0.00  0.00    +0.000 C 
ENDBRANCH  19  22
ENDBRANCH   1  20
TORSDOF 3
ENDMDL
MODEL 6
REMARK VINA RESULT:      -8.4      1.641      2.599
REMARK  Name = 
REMARK  3 active torsions:
REMARK  status: ('A' for Active; 'I' for Inactive)
REMARK    1  A    between atoms: C_2  and  C_21
REMARK    2  A    between atoms: N_3  and  C_4
REMARK    3  A    between atoms: C_9  and  C_10
REMARK                            x       y       z     vdW  Elec       q    Type
REMARK                         _______ _______ _______ _____ _____    ______ ____
ROOT
ATOM      1  C   UNL     1       0.393  10.749  20.031  0.00  0.00    +0.000 C 
ATOM      2  C   UNL     1       0.832  10.804  18.559  0.00  0.00    +0.000 C 
ATOM      3  C   UNL     1       1.566   9.618  17.942  0.00  0.00    +0.000 C 
ATOM      4  C   UNL     1       1.833   8.479  18.842  0.00  0.00    +0.000 A 
ATOM      5  N   UNL     1       2.472   7.373  18.522  0.00  0.00    +0.000 NA
ATOM      6  C   UNL     1       2.435   6.578  19.646  0.00  0.00    +0.000 A 
ATOM      7  C   UNL     1       1.801   7.242  20.671  0.00  0.00    +0.000 A 
ATOM      8  N   UNL     1       1.420   8.442  20.141  0.00  0.00    +0.000 N 
ATOM      9  C   UNL     1       0.714   9.482  20.841  0.00  0.00    +0.000 C 
ENDROOT
BRANCH   6  10
ATOM     10  C   UNL     1       3.031   5.259  19.713  0.00  0.00    +0.000 A 
ATOM     11  C   UNL     1       4.340   5.062  19.243  0.00  0.00    +0.000 A 
ATOM     12  C   UNL     1       4.949   3.806  19.336  0.00  0.00    +0.000 A 
ATOM     13  C   UNL     1       4.244   2.743  19.888  0.00  0.00    +0.000 A 
ATOM     14  F   UNL     1       4.832   1.543  19.988  0.00  0.00    +0.000 F 
ATOM     15  C   UNL     1       2.942   2.903  20.337  0.00  0.00    +0.000 A 
ATOM     16  C   UNL     1       2.344   4.157  20.245  0.00  0.00    +0.000 A 
ATOM     17  F   UNL     1       1.078   4.273  20.677  0.00  0.00    +0.000 F 
ENDBRANCH   6  10
BRANCH   1  20
ATOM     18  O   UNL     1      -0.714  13.376  20.101  0.00  0.00    +0.000 OA
ATOM     19  C   UNL     1      -1.478  12.415  20.186  0.00  0.00    +0.000 C 
ATOM     20  N   UNL     1      -1.024  11.112  20.139  0.00  0.00    +0.000 N 
ATOM     21  H   UNL     1      -1.743  10.403  20.271  0.00  0.00    +0.000 HD
BRANCH  19  22
ATOM     22  C   UNL     1      -2.922  12.515  20.345  0.00  0.00    +0.000 A 
ATOM     23  N   UNL     1      -3.495  12.933  21.467  0.00  0.00    +0.000 NA
ATOM     24  C   UNL     1      -4.844  12.882  21.235  0.00  0.00    +0.000 A 
ATOM     25  C   UNL     1      -5.111  12.412  19.969  0.00  0.00    +0.000 A 
ATOM     26  N   UNL     1      -3.884  12.197  19.411  0.00  0.00    +0.000 N 
ATOM     27  C   UNL     1      -3.649  11.694  18.083  0.00  0.00    +0.000 C 
ATOM     28  C   UNL     1      -4.889  11.342  17.265  0.00  0.00    +0.000 C 
ATOM     29  C   UNL     1      -6.274  11.581  17.868  0.00  0.00    +0.000 C 
ATOM     30  C   UNL     1      -6.391  12.151  19.277  0.00  0.00    +0.000 C 
ENDBRANCH  19  22
ENDBRANCH   1  20
TORSDOF 3
ENDMDL
MODEL 7
REMARK VINA RESULT:      -8.3      1.512      2.606
REMARK  Name = 
REMARK  3 active torsions:
REMARK  status: ('A' for Active; 'I' for Inactive)
REMARK    1  A    between atoms: C_2  and  C_21
REMARK    2  A    between atoms: N_3  and  C_4
REMARK    3  A    between atoms: C_9  and  C_10
REMARK                            x       y       z     vdW  Elec       q    Type
REMARK                         _______ _______ _______ _____ _____    ______ ____
ROOT
ATOM      1  C   UNL     1       0.782  10.483  20.039  0.00  0.00    +0.000 C 
ATOM      2  C   UNL     1       1.291  10.676  18.601  0.00  0.00    +0.000 C 
ATOM      3  C   UNL     1       1.929   9.508  17.859  0.00  0.00    +0.000 C 
ATOM      4  C   UNL     1       2.040   8.243  18.612  0.00  0.00    +0.000 A 
ATOM      5  N   UNL     1       2.579   7.125  18.171  0.00  0.00    +0.000 NA
ATOM      6  C   UNL     1       2.412   6.203  19.180  0.00  0.00    +0.000 A 
ATOM      7  C   UNL     1       1.802   6.796  20.262  0.00  0.00    +0.000 A 
ATOM      8  N   UNL     1       1.567   8.086  19.881  0.00  0.00    +0.000 N 
ATOM      9  C   UNL     1       0.937   9.097  20.687  0.00  0.00    +0.000 C 
ENDROOT
BRANCH   6  10
ATOM     10  C   UNL     1       2.869   4.830  19.094  0.00  0.00    +0.000 A 
ATOM     11  C   UNL     1       1.956   3.812  18.778  0.00  0.00    +0.000 A 
ATOM     12  C   UNL     1       2.384   2.486  18.649  0.00  0.00    +0.000 A 
ATOM     13  C   UNL     1       3.724   2.177  18.848  0.00  0.00    +0.000 A 
ATOM     14  F   UNL     1       4.136   0.909  18.712  0.00  0.00    +0.000 F 
ATOM     15  C   UNL     1       4.643   3.159  19.185  0.00  0.00    +0.000 A 
ATOM     16  C   UNL     1       4.211   4.477  19.308  0.00  0.00    +0.000 A 
ATOM     17  F   UNL     1       5.124   5.400  19.648  0.00  0.00    +0.000 F 
ENDBRANCH   6  10
BRANCH   1  20
ATOM     18  O   UNL     1      -0.081  13.201  20.049  0.00  0.00    +0.000 OA
ATOM     19  C   UNL     1      -0.928  12.316  20.165  0.00  0.00    +0.000 C 
ATOM     20  N   UNL     1      -0.595  10.977  20.148  0.00  0.00    +0.000 N 
ATOM     21  H   UNL     1      -1.374  10.339  20.304  0.00  0.00    +0.000 HD
BRANCH  19  22
ATOM     22  C   UNL     1      -2.356  12.551  20.331  0.00  0.00    +0.000 A 
ATOM     23  N   UNL     1      -2.874  13.077  21.435  0.00  0.00    +0.000 NA
ATOM     24  C   UNL     1      -4.225  13.132  21.219  0.00  0.00    +0.000 A 
ATOM     25  C   UNL     1      -4.550  12.622  19.982  0.00  0.00    +0.000 A 
ATOM     26  N   UNL     1      -3.354  12.271  19.425  0.00  0.00    +0.000 N 
ATOM     27  C   UNL     1      -3.184  11.680  18.124  0.00  0.00    +0.000 C 
ATOM     28  C   UNL     1      -4.462  11.397  17.338  0.00  0.00    +0.000 C 
ATOM     29  C   UNL     1      -5.811  11.788  17.941  0.00  0.00    +0.000 C 
ATOM     30  C   UNL     1      -5.857  12.439  19.318  0.00  0.00    +0.000 C 
ENDBRANCH  19  22
ENDBRANCH   1  20
TORSDOF 3
ENDMDL
MODEL 8
REMARK VINA RESULT:      -8.2      3.195      4.291
REMARK  Name = 
REMARK  3 active torsions:
REMARK  status: ('A' for Active; 'I' for Inactive)
REMARK    1  A    between atoms: C_2  and  C_21
REMARK    2  A    between atoms: N_3  and  C_4
REMARK    3  A    between atoms: C_9  and  C_10
REMARK                            x       y       z     vdW  Elec       q    Type
REMARK                         _______ _______ _______ _____ _____    ______ ____
ROOT
ATOM      1  C   UNL     1       0.313  10.404  20.260  0.00  0.00    +0.000 C 
ATOM      2  C   UNL     1       0.461   9.476  21.477  0.00  0.00    +0.000 C 
ATOM      3  C   UNL     1       1.251   8.178  21.349  0.00  0.00    +0.000 C 
ATOM      4  C   UNL     1       1.811   7.887  20.014  0.00  0.00    +0.000 A 
ATOM      5  N   UNL     1       2.500   6.816  19.681  0.00  0.00    +0.000 NA
ATOM      6  C   UNL     1       2.863   6.995  18.365  0.00  0.00    +0.000 A 
ATOM      7  C   UNL     1       2.341   8.176  17.891  0.00  0.00    +0.000 A 
ATOM      8  N   UNL     1       1.684   8.732  18.951  0.00  0.00    +0.000 N 
ATOM      9  C   UNL     1       0.978   9.985  18.938  0.00  0.00    +0.000 C 
ENDROOT
BRANCH   6  10
ATOM     10  C   UNL     1       3.642   6.033  17.611  0.00  0.00    +0.000 A 
ATOM     11  C   UNL     1       4.728   6.471  16.837  0.00  0.00    +0.000 A 
ATOM     12  C   UNL     1       5.518   5.555  16.135  0.00  0.00    +0.000 A 
ATOM     13  C   UNL     1       5.214   4.200  16.198  0.00  0.00    +0.000 A 
ATOM     14  F   UNL     1       5.979   3.321  15.535  0.00  0.00    +0.000 F 
ATOM     15  C   UNL     1       4.134   3.742  16.935  0.00  0.00    +0.000 A 
ATOM     16  C   UNL     1       3.354   4.659  17.634  0.00  0.00    +0.000 A 
ATOM     17  F   UNL     1       2.307   4.183  18.327  0.00  0.00    +0.000 F 
ENDBRANCH   6  10
BRANCH   1  20
ATOM     18  O   UNL     1      -1.360  12.712  20.203  0.00  0.00    +0.000 OA
ATOM     19  C   UNL     1      -0.190  12.845  20.560  0.00  0.00    +0.000 C 
ATOM     20  N   UNL     1       0.678  11.774  20.635  0.00  0.00    +0.000 N 
ATOM     21  H   UNL     1       1.634  12.015  20.893  0.00  0.00    +0.000 HD
BRANCH  19  22
ATOM     22  C   UNL     1       0.424  14.110  20.939  0.00  0.00    +0.000 A 
ATOM     23  N   UNL     1       1.067  14.281  22.087  0.00  0.00    +0.000 NA
ATOM     24  C   UNL     1       1.488  15.584  22.085  0.00  0.00    +0.000 A 
ATOM     25  C   UNL     1       1.088  16.232  20.938  0.00  0.00    +0.000 A 
ATOM     26  N   UNL     1       0.427  15.281  20.214  0.00  0.00    +0.000 N 
ATOM     27  C   UNL     1      -0.184  15.490  18.928  0.00  0.00    +0.000 C 
ATOM     28  C   UNL     1      -0.109  16.907  18.367  0.00  0.00    +0.000 C 
ATOM     29  C   UNL     1       0.632  17.986  19.158  0.00  0.00    +0.000 C 
ATOM     30  C   UNL     1       1.269  17.630  20.496  0.00  0.00    +0.000 C 
ENDBRANCH  19  22
ENDBRANCH   1  20
TORSDOF 3
ENDMDL
MODEL 9
REMARK VINA RESULT:      -8.1      3.307      4.412
REMARK  Name = 
REMARK  3 active torsions:
REMARK  status: ('A' for Active; 'I' for Inactive)
REMARK    1  A    between atoms: C_2  and  C_21
REMARK    2  A    between atoms: N_3  and  C_4
REMARK    3  A    between atoms: C_9  and  C_10
REMARK                            x       y       z     vdW  Elec       q    Type
REMARK                         _______ _______ _______ _____ _____    ______ ____
ROOT
ATOM      1  C   UNL     1       0.386  10.404  20.084  0.00  0.00    +0.000 C 
ATOM      2  C   UNL     1       0.459   9.484  21.313  0.00  0.00    +0.000 C 
ATOM      3  C   UNL     1       1.239   8.176  21.236  0.00  0.00    +0.000 C 
ATOM      4  C   UNL     1       1.863   7.868  19.934  0.00  0.00    +0.000 A 
ATOM      5  N   UNL     1       2.555   6.786  19.645  0.00  0.00    +0.000 NA
ATOM      6  C   UNL     1       2.988   6.950  18.348  0.00  0.00    +0.000 A 
ATOM      7  C   UNL     1       2.506   8.134  17.839  0.00  0.00    +0.000 A 
ATOM      8  N   UNL     1       1.802   8.705  18.860  0.00  0.00    +0.000 N 
ATOM      9  C   UNL     1       1.113   9.967  18.801  0.00  0.00    +0.000 C 
ENDROOT
BRANCH   6  10
ATOM     10  C   UNL     1       3.792   5.972  17.642  0.00  0.00    +0.000 A 
ATOM     11  C   UNL     1       3.319   4.658  17.495  0.00  0.00    +0.000 A 
ATOM     12  C   UNL     1       4.061   3.710  16.782  0.00  0.00    +0.000 A 
ATOM     13  C   UNL     1       5.283   4.073  16.227  0.00  0.00    +0.000 A 
ATOM     14  F   UNL     1       5.987   3.168  15.534  0.00  0.00    +0.000 F 
ATOM     15  C   UNL     1       5.785   5.356  16.378  0.00  0.00    +0.000 A 
ATOM     16  C   UNL     1       5.039   6.296  17.085  0.00  0.00    +0.000 A 
ATOM     17  F   UNL     1       5.561   7.525  17.224  0.00  0.00    +0.000 F 
ENDBRANCH   6  10
BRANCH   1  20
ATOM     18  O   UNL     1      -1.382  12.598  20.524  0.00  0.00    +0.000 OA
ATOM     19  C   UNL     1      -0.172  12.787  20.642  0.00  0.00    +0.000 C 
ATOM     20  N   UNL     1       0.748  11.772  20.467  0.00  0.00    +0.000 N 
ATOM     21  H   UNL     1       1.723  12.061  20.541  0.00  0.00    +0.000 HD
BRANCH  19  22
ATOM     22  C   UNL     1       0.440  14.067  20.972  0.00  0.00    +0.000 A 
ATOM     23  N   UNL     1       1.114  14.272  22.097  0.00  0.00    +0.000 NA
ATOM     24  C   UNL     1       1.521  15.579  22.051  0.00  0.00    +0.000 A 
ATOM     25  C   UNL     1       1.083  16.194  20.900  0.00  0.00    +0.000 A 
ATOM     26  N   UNL     1       0.411  15.219  20.219  0.00  0.00    +0.000 N 
ATOM     27  C   UNL     1      -0.238  15.390  18.946  0.00  0.00    +0.000 C 
ATOM     28  C   UNL     1      -0.193  16.794  18.347  0.00  0.00    +0.000 C 
ATOM     29  C   UNL     1       0.560  17.898  19.090  0.00  0.00    +0.000 C 
ATOM     30  C   UNL     1       1.237  17.582  20.418  0.00  0.00    +0.000 C 
ENDBRANCH  19  22
ENDBRANCH   1  20
TORSDOF 3
ENDMDL
