MODEL 1
REMARK VINA RESULT:      -8.9      0.000      0.000
REMARK  Name = 
REMARK  7 active torsions:
REMARK  status: ('A' for Active; 'I' for Inactive)
REMARK    1  A    between atoms: C_1  and  C_2
REMARK    2  A    between atoms: C_5  and  N_6
REMARK    3  A    between atoms: C_7  and  C_9
REMARK    4  A    between atoms: C_13  and  C_14
REMARK    5  A    between atoms: C_19  and  S_20
REMARK    6  A    between atoms: S_20  and  N_23
REMARK    7  A    between atoms: N_23  and  C_24
REMARK                            x       y       z     vdW  Elec       q    Type
REMARK                         _______ _______ _______ _____ _____    ______ ____
ROOT
ATOM      1  C   UNL     1      -1.141  11.258  22.951  0.00  0.00    +0.000 C 
ATOM      2  C   UNL     1      -0.265  10.434  22.049  0.00  0.00    +0.000 A 
ATOM      3  C   UNL     1       0.462   9.387  22.644  0.00  0.00    +0.000 A 
ATOM      4  C   UNL     1       1.254   8.523  21.884  0.00  0.00    +0.000 A 
ATOM      5  C   UNL     1       1.338   8.666  20.502  0.00  0.00    +0.000 A 
ATOM      6  C   UNL     1       0.641   9.718  19.896  0.00  0.00    +0.000 A 
ATOM      7  C   UNL     1      -0.131  10.619  20.659  0.00  0.00    +0.000 A 
ENDROOT
BRANCH   5   8
ATOM      8  N   UNL     1       2.073   7.788  19.669  0.00  0.00    +0.000 N 
ATOM      9  C   UNL     1       2.105   6.407  19.771  0.00  0.00    +0.000 C 
ATOM     10  O   UNL     1       1.567   5.730  20.640  0.00  0.00    +0.000 OA
ATOM     11  H   UNL     1       2.710   8.224  19.014  0.00  0.00    +0.000 HD
BRANCH   9  12
ATOM     12  C   UNL     1       2.931   5.695  18.757  0.00  0.00    +0.000 A 
ATOM     13  C   UNL     1       2.721   4.316  18.603  0.00  0.00    +0.000 A 
ATOM     14  C   UNL     1       3.458   3.587  17.671  0.00  0.00    +0.000 A 
ATOM     15  C   UNL     1       4.394   4.238  16.871  0.00  0.00    +0.000 A 
ATOM     16  C   UNL     1       4.583   5.621  16.987  0.00  0.00    +0.000 A 
ATOM     17  C   UNL     1       3.858   6.356  17.938  0.00  0.00    +0.000 A 
BRANCH  16  18
ATOM     18  C   UNL     1       5.574   6.258  16.082  0.00  0.00    +0.000 C 
ATOM     19  N   UNL     1       6.889   6.203  16.449  0.00  0.00    +0.000 N 
ATOM     20  O   UNL     1       5.228   6.843  15.063  0.00  0.00    +0.000 OA
ATOM     21  H   UNL     1       7.176   5.996  17.396  0.00  0.00    +0.000 HD
ATOM     22  H   UNL     1       7.520   6.763  15.890  0.00  0.00    +0.000 HD
ENDBRANCH  16  18
ENDBRANCH   9  12
ENDBRANCH   5   8
BRANCH   7  23
ATOM     23  S   UNL     1      -0.994  11.900  19.747  0.00  0.00    +0.000 S 
ATOM     24  O   UNL     1      -1.271  12.981  20.668  0.00  0.00    +0.000 OA
ATOM     25  O   UNL     1      -0.266  12.160  18.517  0.00  0.00    +0.000 OA
BRANCH  23  26
ATOM     26  N   UNL     1      -2.457  11.224  19.288  0.00  0.00    +0.000 N 
ATOM     27  H   UNL     1      -3.225  11.456  19.913  0.00  0.00    +0.000 HD
BRANCH  26  28
ATOM     28  C   UNL     1      -2.780  10.993  17.921  0.00  0.00    +0.000 A 
ATOM     29  C   UNL     1      -2.011  10.120  17.150  0.00  0.00    +0.000 A 
ATOM     30  C   UNL     1      -2.426   9.785  15.854  0.00  0.00    +0.000 A 
ATOM     31  C   UNL     1      -3.592  10.341  15.322  0.00  0.00    +0.000 A 
ATOM     32  C   UNL     1      -4.340  11.243  16.077  0.00  0.00    +0.000 A 
ATOM     33  C   UNL     1      -3.930  11.561  17.369  0.00  0.00    +0.000 A 
ATOM     34  F   UNL     1      -4.685  12.388  18.108  0.00  0.00    +0.000 F 
ENDBRANCH  26  28
ENDBRANCH  23  26
ENDBRANCH   7  23
TORSDOF 6
ENDMDL
MODEL 2
REMARK VINA RESULT:      -8.7      2.121      2.767
REMARK  Name = 
REMARK  7 active torsions:
REMARK  status: ('A' for Active; 'I' for Inactive)
REMARK    1  A    between atoms: C_1  and  C_2
REMARK    2  A    between atoms: C_5  and  N_6
REMARK    3  A    between atoms: C_7  and  C_9
REMARK    4  A    between atoms: C_13  and  C_14
REMARK    5  A    between atoms: C_19  and  S_20
REMARK    6  A    between atoms: S_20  and  N_23
REMARK    7  A    between atoms: N_23  and  C_24
REMARK                            x       y       z     vdW  Elec       q    Type
REMARK                         _______ _______ _______ _____ _____    ______ ____
ROOT
ATOM      1  C   UNL     1      -1.333  11.753  21.803  0.00  0.00    +0.000 C 
ATOM      2  C   UNL     1      -0.357  10.765  21.227  0.00  0.00    +0.000 A 
ATOM      3  C   UNL     1      -0.271   9.510  21.854  0.00  0.00    +0.000 A 
ATOM      4  C   UNL     1       0.557   8.500  21.357  0.00  0.00    +0.000 A 
ATOM      5  C   UNL     1       1.318   8.705  20.210  0.00  0.00    +0.000 A 
ATOM      6  C   UNL     1       1.263   9.957  19.587  0.00  0.00    +0.000 A 
ATOM      7  C   UNL     1       0.459  10.996  20.103  0.00  0.00    +0.000 A 
ENDROOT
BRANCH   5   8
ATOM      8  N   UNL     1       2.128   7.705  19.622  0.00  0.00    +0.000 N 
ATOM      9  C   UNL     1       2.552   7.672  18.303  0.00  0.00    +0.000 C 
ATOM     10  O   UNL     1       2.233   8.457  17.418  0.00  0.00    +0.000 OA
ATOM     11  H   UNL     1       2.321   6.892  20.195  0.00  0.00    +0.000 HD
BRANCH   9  12
ATOM     12  C   UNL     1       3.427   6.527  17.925  0.00  0.00    +0.000 A 
ATOM     13  C   UNL     1       4.406   6.756  16.946  0.00  0.00    +0.000 A 
ATOM     14  C   UNL     1       5.260   5.731  16.545  0.00  0.00    +0.000 A 
ATOM     15  C   UNL     1       5.155   4.475  17.138  0.00  0.00    +0.000 A 
ATOM     16  C   UNL     1       4.209   4.246  18.146  0.00  0.00    +0.000 A 
ATOM     17  C   UNL     1       3.333   5.270  18.538  0.00  0.00    +0.000 A 
BRANCH  16  18
ATOM     18  C   UNL     1       4.172   2.893  18.759  0.00  0.00    +0.000 C 
ATOM     19  N   UNL     1       3.899   1.837  17.936  0.00  0.00    +0.000 N 
ATOM     20  O   UNL     1       4.342   2.729  19.961  0.00  0.00    +0.000 OA
ATOM     21  H   UNL     1       3.475   1.957  17.027  0.00  0.00    +0.000 HD
ATOM     22  H   UNL     1       3.742   0.952  18.403  0.00  0.00    +0.000 HD
ENDBRANCH  16  18
ENDBRANCH   9  12
ENDBRANCH   5   8
BRANCH   7  23
ATOM     23  S   UNL     1       0.463  12.537  19.184  0.00  0.00    +0.000 S 
ATOM     24  O   UNL     1      -0.132  13.550  20.030  0.00  0.00    +0.000 OA
ATOM     25  O   UNL     1       1.789  12.739  18.628  0.00  0.00    +0.000 OA
BRANCH  23  26
ATOM     26  N   UNL     1      -0.558  12.290  17.878  0.00  0.00    +0.000 N 
ATOM     27  H   UNL     1      -0.067  12.191  16.993  0.00  0.00    +0.000 HD
BRANCH  26  28
ATOM     28  C   UNL     1      -1.796  11.601  18.014  0.00  0.00    +0.000 A 
ATOM     29  C   UNL     1      -2.929  12.267  18.484  0.00  0.00    +0.000 A 
ATOM     30  C   UNL     1      -4.172  11.622  18.471  0.00  0.00    +0.000 A 
ATOM     31  C   UNL     1      -4.279  10.306  18.012  0.00  0.00    +0.000 A 
ATOM     32  C   UNL     1      -3.141   9.627  17.579  0.00  0.00    +0.000 A 
ATOM     33  C   UNL     1      -1.911  10.278  17.582  0.00  0.00    +0.000 A 
ATOM     34  F   UNL     1      -0.831   9.635  17.113  0.00  0.00    +0.000 F 
ENDBRANCH  26  28
ENDBRANCH  23  26
ENDBRANCH   7  23
TORSDOF 6
ENDMDL
MODEL 3
REMARK VINA RESULT:      -8.7      6.169      9.245
REMARK  Name = 
REMARK  7 active torsions:
REMARK  status: ('A' for Active; 'I' for Inactive)
REMARK    1  A    between atoms: C_1  and  C_2
REMARK    2  A    between atoms: C_5  and  N_6
REMARK    3  A    between atoms: C_7  and  C_9
REMARK    4  A    between atoms: C_13  and  C_14
REMARK    5  A    between atoms: C_19  and  S_20
REMARK    6  A    between atoms: S_20  and  N_23
REMARK    7  A    between atoms: N_23  and  C_24
REMARK                            x       y       z     vdW  Elec       q    Type
REMARK                         _______ _______ _______ _____ _____    ______ ____
ROOT
ATOM      1  C   UNL     1       6.415   4.132  18.549  0.00  0.00    +0.000 C 
ATOM      2  C   UNL     1       6.861   5.556  18.367  0.00  0.00    +0.000 A 
ATOM      3  C   UNL     1       7.964   5.983  19.128  0.00  0.00    +0.000 A 
ATOM      4  C   UNL     1       8.497   7.267  18.985  0.00  0.00    +0.000 A 
ATOM      5  C   UNL     1       7.956   8.163  18.068  0.00  0.00    +0.000 A 
ATOM      6  C   UNL     1       6.844   7.763  17.320  0.00  0.00    +0.000 A 
ATOM      7  C   UNL     1       6.274   6.482  17.484  0.00  0.00    +0.000 A 
ENDROOT
BRANCH   5   8
ATOM      8  N   UNL     1       8.487   9.454  17.832  0.00  0.00    +0.000 N 
ATOM      9  C   UNL     1       9.068  10.280  18.780  0.00  0.00    +0.000 C 
ATOM     10  O   UNL     1       9.146  10.062  19.984  0.00  0.00    +0.000 OA
ATOM     11  H   UNL     1       8.327   9.840  16.910  0.00  0.00    +0.000 HD
BRANCH   9  12
ATOM     12  C   UNL     1       9.583  11.586  18.283  0.00  0.00    +0.000 A 
ATOM     13  C   UNL     1      10.861  11.601  17.704  0.00  0.00    +0.000 A 
ATOM     14  C   UNL     1      11.404  12.789  17.217  0.00  0.00    +0.000 A 
ATOM     15  C   UNL     1      10.662  13.965  17.284  0.00  0.00    +0.000 A 
ATOM     16  C   UNL     1       9.367  13.954  17.821  0.00  0.00    +0.000 A 
ATOM     17  C   UNL     1       8.825  12.765  18.332  0.00  0.00    +0.000 A 
BRANCH  16  18
ATOM     18  C   UNL     1       8.618  15.237  17.833  0.00  0.00    +0.000 C 
ATOM     19  N   UNL     1       7.255  15.169  17.915  0.00  0.00    +0.000 N 
ATOM     20  O   UNL     1       9.190  16.315  17.735  0.00  0.00    +0.000 OA
ATOM     21  H   UNL     1       6.744  14.322  17.705  0.00  0.00    +0.000 HD
ATOM     22  H   UNL     1       6.767  16.045  17.779  0.00  0.00    +0.000 HD
ENDBRANCH  16  18
ENDBRANCH   9  12
ENDBRANCH   5   8
BRANCH   7  23
ATOM     23  S   UNL     1       4.870   6.095  16.437  0.00  0.00    +0.000 S 
ATOM     24  O   UNL     1       4.911   6.992  15.303  0.00  0.00    +0.000 OA
ATOM     25  O   UNL     1       4.834   4.658  16.227  0.00  0.00    +0.000 OA
BRANCH  23  26
ATOM     26  N   UNL     1       3.510   6.468  17.343  0.00  0.00    +0.000 N 
ATOM     27  H   UNL     1       2.948   7.215  16.943  0.00  0.00    +0.000 HD
BRANCH  26  28
ATOM     28  C   UNL     1       2.828   5.482  18.110  0.00  0.00    +0.000 A 
ATOM     29  C   UNL     1       1.869   4.661  17.515  0.00  0.00    +0.000 A 
ATOM     30  C   UNL     1       1.315   3.598  18.240  0.00  0.00    +0.000 A 
ATOM     31  C   UNL     1       1.700   3.372  19.564  0.00  0.00    +0.000 A 
ATOM     32  C   UNL     1       2.630   4.215  20.172  0.00  0.00    +0.000 A 
ATOM     33  C   UNL     1       3.187   5.261  19.442  0.00  0.00    +0.000 A 
ATOM     34  F   UNL     1       4.120   6.034  20.016  0.00  0.00    +0.000 F 
ENDBRANCH  26  28
ENDBRANCH  23  26
ENDBRANCH   7  23
TORSDOF 6
ENDMDL
MODEL 4
REMARK VINA RESULT:      -8.6      1.149      1.156
REMARK  Name = 
REMARK  7 active torsions:
REMARK  status: ('A' for Active; 'I' for Inactive)
REMARK    1  A    between atoms: C_1  and  C_2
REMARK    2  A    between atoms: C_5  and  N_6
REMARK    3  A    between atoms: C_7  and  C_9
REMARK    4  A    between atoms: C_13  and  C_14
REMARK    5  A    between atoms: C_19  and  S_20
REMARK    6  A    between atoms: S_20  and  N_23
REMARK    7  A    between atoms: N_23  and  C_24
REMARK                            x       y       z     vdW  Elec       q    Type
REMARK                         _______ _______ _______ _____ _____    ______ ____
ROOT
ATOM      1  C   UNL     1      -1.027  11.414  22.811  0.00  0.00    +0.000 C 
ATOM      2  C   UNL     1      -0.157  10.457  22.045  0.00  0.00    +0.000 A 
ATOM      3  C   UNL     1       0.350   9.350  22.748  0.00  0.00    +0.000 A 
ATOM      4  C   UNL     1       1.115   8.368  22.111  0.00  0.00    +0.000 A 
ATOM      5  C   UNL     1       1.390   8.452  20.749  0.00  0.00    +0.000 A 
ATOM      6  C   UNL     1       0.913   9.560  20.040  0.00  0.00    +0.000 A 
ATOM      7  C   UNL     1       0.172  10.576  20.680  0.00  0.00    +0.000 A 
ENDROOT
BRANCH   5   8
ATOM      8  N   UNL     1       2.105   7.462  20.035  0.00  0.00    +0.000 N 
ATOM      9  C   UNL     1       2.450   7.516  18.695  0.00  0.00    +0.000 C 
ATOM     10  O   UNL     1       2.128   8.389  17.896  0.00  0.00    +0.000 OA
ATOM     11  H   UNL     1       2.281   6.596  20.529  0.00  0.00    +0.000 HD
BRANCH   9  12
ATOM     12  C   UNL     1       3.233   6.361  18.173  0.00  0.00    +0.000 A 
ATOM     13  C   UNL     1       2.533   5.179  17.887  0.00  0.00    +0.000 A 
ATOM     14  C   UNL     1       3.202   4.060  17.395  0.00  0.00    +0.000 A 
ATOM     15  C   UNL     1       4.574   4.125  17.162  0.00  0.00    +0.000 A 
ATOM     16  C   UNL     1       5.276   5.314  17.403  0.00  0.00    +0.000 A 
ATOM     17  C   UNL     1       4.610   6.436  17.919  0.00  0.00    +0.000 A 
BRANCH  16  18
ATOM     18  C   UNL     1       6.731   5.325  17.103  0.00  0.00    +0.000 C 
ATOM     19  N   UNL     1       7.500   4.353  17.679  0.00  0.00    +0.000 N 
ATOM     20  O   UNL     1       7.234   6.190  16.397  0.00  0.00    +0.000 OA
ATOM     21  H   UNL     1       7.185   3.817  18.475  0.00  0.00    +0.000 HD
ATOM     22  H   UNL     1       8.500   4.469  17.571  0.00  0.00    +0.000 HD
ENDBRANCH  16  18
ENDBRANCH   9  12
ENDBRANCH   5   8
BRANCH   7  23
ATOM     23  S   UNL     1      -0.400  11.921  19.641  0.00  0.00    +0.000 S 
ATOM     24  O   UNL     1      -0.297  13.142  20.411  0.00  0.00    +0.000 OA
ATOM     25  O   UNL     1       0.257  11.818  18.350  0.00  0.00    +0.000 OA
BRANCH  23  26
ATOM     26  N   UNL     1      -2.025  11.621  19.363  0.00  0.00    +0.000 N 
ATOM     27  H   UNL     1      -2.646  12.205  19.917  0.00  0.00    +0.000 HD
BRANCH  26  28
ATOM     28  C   UNL     1      -2.501  11.192  18.092  0.00  0.00    +0.000 A 
ATOM     29  C   UNL     1      -1.756  10.297  17.323  0.00  0.00    +0.000 A 
ATOM     30  C   UNL     1      -2.301   9.766  16.147  0.00  0.00    +0.000 A 
ATOM     31  C   UNL     1      -3.579  10.148  15.728  0.00  0.00    +0.000 A 
ATOM     32  C   UNL     1      -4.308  11.072  16.475  0.00  0.00    +0.000 A 
ATOM     33  C   UNL     1      -3.766  11.585  17.649  0.00  0.00    +0.000 A 
ATOM     34  F   UNL     1      -4.496  12.432  18.390  0.00  0.00    +0.000 F 
ENDBRANCH  26  28
ENDBRANCH  23  26
ENDBRANCH   7  23
TORSDOF 6
ENDMDL
MODEL 5
REMARK VINA RESULT:      -8.6      1.809      2.094
REMARK  Name = 
REMARK  7 active torsions:
REMARK  status: ('A' for Active; 'I' for Inactive)
REMARK    1  A    between atoms: C_1  and  C_2
REMARK    2  A    between atoms: C_5  and  N_6
REMARK    3  A    between atoms: C_7  and  C_9
REMARK    4  A    between atoms: C_13  and  C_14
REMARK    5  A    between atoms: C_19  and  S_20
REMARK    6  A    between atoms: S_20  and  N_23
REMARK    7  A    between atoms: N_23  and  C_24
REMARK                            x       y       z     vdW  Elec       q    Type
REMARK                         _______ _______ _______ _____ _____    ______ ____
ROOT
ATOM      1  C   UNL     1      -1.411  12.590  22.637  0.00  0.00    +0.000 C 
ATOM      2  C   UNL     1      -0.611  11.368  22.281  0.00  0.00    +0.000 A 
ATOM      3  C   UNL     1      -0.816  10.218  23.064  0.00  0.00    +0.000 A 
ATOM      4  C   UNL     1      -0.170   9.013  22.775  0.00  0.00    +0.000 A 
ATOM      5  C   UNL     1       0.692   8.911  21.687  0.00  0.00    +0.000 A 
ATOM      6  C   UNL     1       0.927  10.052  20.912  0.00  0.00    +0.000 A 
ATOM      7  C   UNL     1       0.309  11.285  21.218  0.00  0.00    +0.000 A 
ENDROOT
BRANCH   5   8
ATOM      8  N   UNL     1       1.328   7.706  21.306  0.00  0.00    +0.000 N 
ATOM      9  C   UNL     1       1.892   7.440  20.069  0.00  0.00    +0.000 C 
ATOM     10  O   UNL     1       1.864   8.171  19.085  0.00  0.00    +0.000 OA
ATOM     11  H   UNL     1       1.266   6.940  21.965  0.00  0.00    +0.000 HD
BRANCH   9  12
ATOM     12  C   UNL     1       2.533   6.104  19.914  0.00  0.00    +0.000 A 
ATOM     13  C   UNL     1       2.037   5.052  20.701  0.00  0.00    +0.000 A 
ATOM     14  C   UNL     1       2.589   3.776  20.606  0.00  0.00    +0.000 A 
ATOM     15  C   UNL     1       3.625   3.539  19.706  0.00  0.00    +0.000 A 
ATOM     16  C   UNL     1       4.100   4.571  18.886  0.00  0.00    +0.000 A 
ATOM     17  C   UNL     1       3.561   5.862  18.993  0.00  0.00    +0.000 A 
BRANCH  16  18
ATOM     18  C   UNL     1       5.185   4.242  17.926  0.00  0.00    +0.000 C 
ATOM     19  N   UNL     1       6.467   4.240  18.400  0.00  0.00    +0.000 N 
ATOM     20  O   UNL     1       4.950   4.016  16.745  0.00  0.00    +0.000 OA
ATOM     21  H   UNL     1       6.721   4.695  19.266  0.00  0.00    +0.000 HD
ATOM     22  H   UNL     1       7.190   4.152  17.698  0.00  0.00    +0.000 HD
ENDBRANCH  16  18
ENDBRANCH   9  12
ENDBRANCH   5   8
BRANCH   7  23
ATOM     23  S   UNL     1       0.678  12.654  20.121  0.00  0.00    +0.000 S 
ATOM     24  O   UNL     1       1.027  13.792  20.945  0.00  0.00    +0.000 OA
ATOM     25  O   UNL     1       1.595  12.190  19.095  0.00  0.00    +0.000 OA
BRANCH  23  26
ATOM     26  N   UNL     1      -0.760  13.007  19.335  0.00  0.00    +0.000 N 
ATOM     27  H   UNL     1      -0.783  13.941  18.931  0.00  0.00    +0.000 HD
BRANCH  26  28
ATOM     28  C   UNL     1      -1.524  11.999  18.683  0.00  0.00    +0.000 A 
ATOM     29  C   UNL     1      -0.896  11.031  17.899  0.00  0.00    +0.000 A 
ATOM     30  C   UNL     1      -1.638   9.958  17.387  0.00  0.00    +0.000 A 
ATOM     31  C   UNL     1      -3.010   9.868  17.639  0.00  0.00    +0.000 A 
ATOM     32  C   UNL     1      -3.646  10.855  18.390  0.00  0.00    +0.000 A 
ATOM     33  C   UNL     1      -2.900  11.911  18.907  0.00  0.00    +0.000 A 
ATOM     34  F   UNL     1      -3.509  12.827  19.673  0.00  0.00    +0.000 F 
ENDBRANCH  26  28
ENDBRANCH  23  26
ENDBRANCH   7  23
TORSDOF 6
ENDMDL
MODEL 6
REMARK VINA RESULT:      -8.6      2.720      3.509
REMARK  Name = 
REMARK  7 active torsions:
REMARK  status: ('A' for Active; 'I' for Inactive)
REMARK    1  A    between atoms: C_1  and  C_2
REMARK    2  A    between atoms: C_5  and  N_6
REMARK    3  A    between atoms: C_7  and  C_9
REMARK    4  A    between atoms: C_13  and  C_14
REMARK    5  A    between atoms: C_19  and  S_20
REMARK    6  A    between atoms: S_20  and  N_23
REMARK    7  A    between atoms: N_23  and  C_24
REMARK                            x       y       z     vdW  Elec       q    Type
REMARK                         _______ _______ _______ _____ _____    ______ ____
ROOT
ATOM      1  C   UNL     1      -1.215  11.043  22.704  0.00  0.00    +0.000 C 
ATOM      2  C   UNL     1      -0.289  10.275  21.804  0.00  0.00    +0.000 A 
ATOM      3  C   UNL     1       0.548   9.321  22.409  0.00  0.00    +0.000 A 
ATOM      4  C   UNL     1       1.398   8.509  21.653  0.00  0.00    +0.000 A 
ATOM      5  C   UNL     1       1.433   8.614  20.265  0.00  0.00    +0.000 A 
ATOM      6  C   UNL     1       0.625   9.575  19.648  0.00  0.00    +0.000 A 
ATOM      7  C   UNL     1      -0.209  10.426  20.406  0.00  0.00    +0.000 A 
ENDROOT
BRANCH   5   8
ATOM      8  N   UNL     1       2.225   7.782  19.440  0.00  0.00    +0.000 N 
ATOM      9  C   UNL     1       2.307   6.401  19.516  0.00  0.00    +0.000 C 
ATOM     10  O   UNL     1       1.769   5.686  20.354  0.00  0.00    +0.000 OA
ATOM     11  H   UNL     1       2.866   8.254  18.813  0.00  0.00    +0.000 HD
BRANCH   9  12
ATOM     12  C   UNL     1       3.190   5.741  18.514  0.00  0.00    +0.000 A 
ATOM     13  C   UNL     1       2.776   4.502  18.001  0.00  0.00    +0.000 A 
ATOM     14  C   UNL     1       3.553   3.829  17.060  0.00  0.00    +0.000 A 
ATOM     15  C   UNL     1       4.738   4.404  16.608  0.00  0.00    +0.000 A 
ATOM     16  C   UNL     1       5.141   5.659  17.082  0.00  0.00    +0.000 A 
ATOM     17  C   UNL     1       4.372   6.330  18.045  0.00  0.00    +0.000 A 
BRANCH  16  18
ATOM     18  C   UNL     1       6.400   6.229  16.534  0.00  0.00    +0.000 C 
ATOM     19  N   UNL     1       7.122   5.449  15.675  0.00  0.00    +0.000 N 
ATOM     20  O   UNL     1       6.799   7.338  16.865  0.00  0.00    +0.000 OA
ATOM     21  H   UNL     1       6.985   4.450  15.609  0.00  0.00    +0.000 HD
ATOM     22  H   UNL     1       8.038   5.805  15.431  0.00  0.00    +0.000 HD
ENDBRANCH  16  18
ENDBRANCH   9  12
ENDBRANCH   5   8
BRANCH   7  23
ATOM     23  S   UNL     1      -1.212  11.589  19.479  0.00  0.00    +0.000 S 
ATOM     24  O   UNL     1      -2.297  10.846  18.876  0.00  0.00    +0.000 OA
ATOM     25  O   UNL     1      -1.497  12.731  20.329  0.00  0.00    +0.000 OA
BRANCH  23  26
ATOM     26  N   UNL     1      -0.228  12.158  18.248  0.00  0.00    +0.000 N 
ATOM     27  H   UNL     1      -0.664  12.120  17.330  0.00  0.00    +0.000 HD
BRANCH  26  28
ATOM     28  C   UNL     1       0.730  13.187  18.470  0.00  0.00    +0.000 A 
ATOM     29  C   UNL     1       0.316  14.480  18.795  0.00  0.00    +0.000 A 
ATOM     30  C   UNL     1       1.266  15.445  19.158  0.00  0.00    +0.000 A 
ATOM     31  C   UNL     1       2.626  15.124  19.172  0.00  0.00    +0.000 A 
ATOM     32  C   UNL     1       3.043  13.844  18.810  0.00  0.00    +0.000 A 
ATOM     33  C   UNL     1       2.094  12.886  18.464  0.00  0.00    +0.000 A 
ATOM     34  F   UNL     1       2.499  11.642  18.169  0.00  0.00    +0.000 F 
ENDBRANCH  26  28
ENDBRANCH  23  26
ENDBRANCH   7  23
TORSDOF 6
ENDMDL
MODEL 7
REMARK VINA RESULT:      -8.6      4.218      9.002
REMARK  Name = 
REMARK  7 active torsions:
REMARK  status: ('A' for Active; 'I' for Inactive)
REMARK    1  A    between atoms: C_1  and  C_2
REMARK    2  A    between atoms: C_5  and  N_6
REMARK    3  A    between atoms: C_7  and  C_9
REMARK    4  A    between atoms: C_13  and  C_14
REMARK    5  A    between atoms: C_19  and  S_20
REMARK    6  A    between atoms: S_20  and  N_23
REMARK    7  A    between atoms: N_23  and  C_24
REMARK                            x       y       z     vdW  Elec       q    Type
REMARK                         _______ _______ _______ _____ _____    ______ ____
ROOT
ATOM      1  C   UNL     1       6.704   4.660  15.474  0.00  0.00    +0.000 C 
ATOM      2  C   UNL     1       5.800   5.615  16.201  0.00  0.00    +0.000 A 
ATOM      3  C   UNL     1       5.069   6.527  15.419  0.00  0.00    +0.000 A 
ATOM      4  C   UNL     1       4.153   7.413  15.992  0.00  0.00    +0.000 A 
ATOM      5  C   UNL     1       3.926   7.410  17.366  0.00  0.00    +0.000 A 
ATOM      6  C   UNL     1       4.662   6.526  18.162  0.00  0.00    +0.000 A 
ATOM      7  C   UNL     1       5.617   5.654  17.597  0.00  0.00    +0.000 A 
ENDROOT
BRANCH   5   8
ATOM      8  N   UNL     1       2.969   8.238  18.000  0.00  0.00    +0.000 N 
ATOM      9  C   UNL     1       2.117   7.859  19.024  0.00  0.00    +0.000 C 
ATOM     10  O   UNL     1       2.001   6.732  19.493  0.00  0.00    +0.000 OA
ATOM     11  H   UNL     1       2.829   9.153  17.590  0.00  0.00    +0.000 HD
BRANCH   9  12
ATOM     12  C   UNL     1       1.215   8.920  19.553  0.00  0.00    +0.000 A 
ATOM     13  C   UNL     1       0.600   9.771  18.621  0.00  0.00    +0.000 A 
ATOM     14  C   UNL     1      -0.257  10.785  19.046  0.00  0.00    +0.000 A 
ATOM     15  C   UNL     1      -0.523  10.938  20.404  0.00  0.00    +0.000 A 
ATOM     16  C   UNL     1       0.052  10.068  21.340  0.00  0.00    +0.000 A 
ATOM     17  C   UNL     1       0.932   9.059  20.918  0.00  0.00    +0.000 A 
BRANCH  16  18
ATOM     18  C   UNL     1      -0.300  10.267  22.770  0.00  0.00    +0.000 C 
ATOM     19  N   UNL     1      -1.341  11.107  23.051  0.00  0.00    +0.000 N 
ATOM     20  O   UNL     1       0.338   9.731  23.667  0.00  0.00    +0.000 OA
ATOM     21  H   UNL     1      -1.691  11.775  22.379  0.00  0.00    +0.000 HD
ATOM     22  H   UNL     1      -1.465  11.331  24.030  0.00  0.00    +0.000 HD
ENDBRANCH  16  18
ENDBRANCH   9  12
ENDBRANCH   5   8
BRANCH   7  23
ATOM     23  S   UNL     1       6.464   4.556  18.734  0.00  0.00    +0.000 S 
ATOM     24  O   UNL     1       7.775   4.283  18.183  0.00  0.00    +0.000 OA
ATOM     25  O   UNL     1       6.338   5.095  20.076  0.00  0.00    +0.000 OA
BRANCH  23  26
ATOM     26  N   UNL     1       5.591   3.126  18.722  0.00  0.00    +0.000 N 
ATOM     27  H   UNL     1       6.081   2.346  19.153  0.00  0.00    +0.000 HD
BRANCH  26  28
ATOM     28  C   UNL     1       4.169   3.116  18.791  0.00  0.00    +0.000 A 
ATOM     29  C   UNL     1       3.403   3.414  17.662  0.00  0.00    +0.000 A 
ATOM     30  C   UNL     1       2.012   3.254  17.702  0.00  0.00    +0.000 A 
ATOM     31  C   UNL     1       1.385   2.822  18.874  0.00  0.00    +0.000 A 
ATOM     32  C   UNL     1       2.145   2.563  20.014  0.00  0.00    +0.000 A 
ATOM     33  C   UNL     1       3.529   2.710  19.964  0.00  0.00    +0.000 A 
ATOM     34  F   UNL     1       4.257   2.406  21.048  0.00  0.00    +0.000 F 
ENDBRANCH  26  28
ENDBRANCH  23  26
ENDBRANCH   7  23
TORSDOF 6
ENDMDL
MODEL 8
REMARK VINA RESULT:      -8.5      1.494      1.559
REMARK  Name = 
REMARK  7 active torsions:
REMARK  status: ('A' for Active; 'I' for Inactive)
REMARK    1  A    between atoms: C_1  and  C_2
REMARK    2  A    between atoms: C_5  and  N_6
REMARK    3  A    between atoms: C_7  and  C_9
REMARK    4  A    between atoms: C_13  and  C_14
REMARK    5  A    between atoms: C_19  and  S_20
REMARK    6  A    between atoms: S_20  and  N_23
REMARK    7  A    between atoms: N_23  and  C_24
REMARK                            x       y       z     vdW  Elec       q    Type
REMARK                         _______ _______ _______ _____ _____    ______ ____
ROOT
ATOM      1  C   UNL     1      -1.425  11.564  22.847  0.00  0.00    +0.000 C 
ATOM      2  C   UNL     1      -0.502  10.648  22.092  0.00  0.00    +0.000 A 
ATOM      3  C   UNL     1      -0.406   9.320  22.544  0.00  0.00    +0.000 A 
ATOM      4  C   UNL     1       0.373   8.374  21.874  0.00  0.00    +0.000 A 
ATOM      5  C   UNL     1       1.075   8.718  20.722  0.00  0.00    +0.000 A 
ATOM      6  C   UNL     1       1.011  10.042  20.272  0.00  0.00    +0.000 A 
ATOM      7  C   UNL     1       0.257  11.014  20.963  0.00  0.00    +0.000 A 
ENDROOT
BRANCH   5   8
ATOM      8  N   UNL     1       1.832   7.794  19.964  0.00  0.00    +0.000 N 
ATOM      9  C   UNL     1       2.140   7.904  18.618  0.00  0.00    +0.000 C 
ATOM     10  O   UNL     1       1.744   8.776  17.851  0.00  0.00    +0.000 OA
ATOM     11  H   UNL     1       2.074   6.928  20.429  0.00  0.00    +0.000 HD
BRANCH   9  12
ATOM     12  C   UNL     1       2.979   6.815  18.046  0.00  0.00    +0.000 A 
ATOM     13  C   UNL     1       2.455   5.514  18.066  0.00  0.00    +0.000 A 
ATOM     14  C   UNL     1       3.185   4.447  17.546  0.00  0.00    +0.000 A 
ATOM     15  C   UNL     1       4.437   4.680  16.980  0.00  0.00    +0.000 A 
ATOM     16  C   UNL     1       4.953   5.981  16.917  0.00  0.00    +0.000 A 
ATOM     17  C   UNL     1       4.229   7.055  17.458  0.00  0.00    +0.000 A 
BRANCH  16  18
ATOM     18  C   UNL     1       6.279   6.164  16.272  0.00  0.00    +0.000 C 
ATOM     19  N   UNL     1       6.562   5.387  15.183  0.00  0.00    +0.000 N 
ATOM     20  O   UNL     1       7.105   6.951  16.716  0.00  0.00    +0.000 OA
ATOM     21  H   UNL     1       6.043   4.546  14.972  0.00  0.00    +0.000 HD
ATOM     22  H   UNL     1       7.518   5.432  14.854  0.00  0.00    +0.000 HD
ENDBRANCH  16  18
ENDBRANCH   9  12
ENDBRANCH   5   8
BRANCH   7  23
ATOM     23  S   UNL     1       0.241  12.662  20.255  0.00  0.00    +0.000 S 
ATOM     24  O   UNL     1       0.420  13.604  21.339  0.00  0.00    +0.000 OA
ATOM     25  O   UNL     1       1.143  12.684  19.117  0.00  0.00    +0.000 OA
BRANCH  23  26
ATOM     26  N   UNL     1      -1.300  12.875  19.633  0.00  0.00    +0.000 N 
ATOM     27  H   UNL     1      -1.542  13.850  19.474  0.00  0.00    +0.000 HD
BRANCH  26  28
ATOM     28  C   UNL     1      -1.904  11.909  18.780  0.00  0.00    +0.000 A 
ATOM     29  C   UNL     1      -1.116  11.084  17.976  0.00  0.00    +0.000 A 
ATOM     30  C   UNL     1      -1.710  10.038  17.257  0.00  0.00    +0.000 A 
ATOM     31  C   UNL     1      -3.091   9.833  17.323  0.00  0.00    +0.000 A 
ATOM     32  C   UNL     1      -3.884  10.681  18.095  0.00  0.00    +0.000 A 
ATOM     33  C   UNL     1      -3.286  11.709  18.818  0.00  0.00    +0.000 A 
ATOM     34  F   UNL     1      -4.049  12.486  19.601  0.00  0.00    +0.000 F 
ENDBRANCH  26  28
ENDBRANCH  23  26
ENDBRANCH   7  23
TORSDOF 6
ENDMDL
MODEL 9
REMARK VINA RESULT:      -8.5      0.943      1.287
REMARK  Name = 
REMARK  7 active torsions:
REMARK  status: ('A' for Active; 'I' for Inactive)
REMARK    1  A    between atoms: C_1  and  C_2
REMARK    2  A    between atoms: C_5  and  N_6
REMARK    3  A    between atoms: C_7  and  C_9
REMARK    4  A    between atoms: C_13  and  C_14
REMARK    5  A    between atoms: C_19  and  S_20
REMARK    6  A    between atoms: S_20  and  N_23
REMARK    7  A    between atoms: N_23  and  C_24
REMARK                            x       y       z     vdW  Elec       q    Type
REMARK                         _______ _______ _______ _____ _____    ______ ____
ROOT
ATOM      1  C   UNL     1      -0.939  11.153  22.803  0.00  0.00    +0.000 C 
ATOM      2  C   UNL     1      -0.088  10.319  21.886  0.00  0.00    +0.000 A 
ATOM      3  C   UNL     1       0.732   9.346  22.483  0.00  0.00    +0.000 A 
ATOM      4  C   UNL     1       1.511   8.476  21.715  0.00  0.00    +0.000 A 
ATOM      5  C   UNL     1       1.489   8.540  20.325  0.00  0.00    +0.000 A 
ATOM      6  C   UNL     1       0.697   9.519  19.715  0.00  0.00    +0.000 A 
ATOM      7  C   UNL     1      -0.065  10.427  20.482  0.00  0.00    +0.000 A 
ENDROOT
BRANCH   5   8
ATOM      8  N   UNL     1       2.206   7.650  19.491  0.00  0.00    +0.000 N 
ATOM      9  C   UNL     1       2.257   6.272  19.624  0.00  0.00    +0.000 C 
ATOM     10  O   UNL     1       1.754   5.611  20.526  0.00  0.00    +0.000 OA
ATOM     11  H   UNL     1       2.818   8.076  18.806  0.00  0.00    +0.000 HD
BRANCH   9  12
ATOM     12  C   UNL     1       3.058   5.544  18.602  0.00  0.00    +0.000 A 
ATOM     13  C   UNL     1       2.712   4.210  18.336  0.00  0.00    +0.000 A 
ATOM     14  C   UNL     1       3.418   3.470  17.390  0.00  0.00    +0.000 A 
ATOM     15  C   UNL     1       4.461   4.067  16.687  0.00  0.00    +0.000 A 
ATOM     16  C   UNL     1       4.789   5.410  16.913  0.00  0.00    +0.000 A 
ATOM     17  C   UNL     1       4.094   6.153  17.880  0.00  0.00    +0.000 A 
BRANCH  16  18
ATOM     18  C   UNL     1       5.891   5.994  16.106  0.00  0.00    +0.000 C 
ATOM     19  N   UNL     1       6.988   6.455  16.778  0.00  0.00    +0.000 N 
ATOM     20  O   UNL     1       5.810   6.095  14.888  0.00  0.00    +0.000 OA
ATOM     21  H   UNL     1       6.969   6.654  17.769  0.00  0.00    +0.000 HD
ATOM     22  H   UNL     1       7.655   6.972  16.219  0.00  0.00    +0.000 HD
ENDBRANCH  16  18
ENDBRANCH   9  12
ENDBRANCH   5   8
BRANCH   7  23
ATOM     23  S   UNL     1      -1.056  11.608  19.566  0.00  0.00    +0.000 S 
ATOM     24  O   UNL     1      -1.392  12.688  20.469  0.00  0.00    +0.000 OA
ATOM     25  O   UNL     1      -0.389  11.893  18.308  0.00  0.00    +0.000 OA
BRANCH  23  26
ATOM     26  N   UNL     1      -2.472  10.804  19.171  0.00  0.00    +0.000 N 
ATOM     27  H   UNL     1      -3.169  10.823  19.911  0.00  0.00    +0.000 HD
BRANCH  26  28
ATOM     28  C   UNL     1      -2.948  10.741  17.832  0.00  0.00    +0.000 A 
ATOM     29  C   UNL     1      -4.011  11.546  17.419  0.00  0.00    +0.000 A 
ATOM     30  C   UNL     1      -4.371  11.586  16.066  0.00  0.00    +0.000 A 
ATOM     31  C   UNL     1      -3.688  10.803  15.131  0.00  0.00    +0.000 A 
ATOM     32  C   UNL     1      -2.652   9.969  15.548  0.00  0.00    +0.000 A 
ATOM     33  C   UNL     1      -2.289   9.945  16.892  0.00  0.00    +0.000 A 
ATOM     34  F   UNL     1      -1.256   9.180  17.276  0.00  0.00    +0.000 F 
ENDBRANCH  26  28
ENDBRANCH  23  26
ENDBRANCH   7  23
TORSDOF 6
ENDMDL
