MODEL 1
REMARK VINA RESULT:      -8.0      0.000      0.000
REMARK  Name = 
REMARK  7 active torsions:
REMARK  status: ('A' for Active; 'I' for Inactive)
REMARK    1  A    between atoms: C_1  and  C_2
REMARK    2  A    between atoms: C_4  and  C_5
REMARK    3  A    between atoms: N_6  and  C_7
REMARK    4  A    between atoms: C_10  and  N_11
REMARK    5  A    between atoms: C_12  and  C_14
REMARK    6  A    between atoms: C_16  and  C_17
REMARK    7  A    between atoms: N_20  and  C_21
REMARK                            x       y       z     vdW  Elec       q    Type
REMARK                         _______ _______ _______ _____ _____    ______ ____
ROOT
ATOM      1  N   UNL     1       0.273  10.104  20.801  0.00  0.00    +0.000 N 
ATOM      2  C   UNL     1       0.654  11.383  21.181  0.00  0.00    +0.000 C 
ATOM      3  O   UNL     1       1.735  11.918  20.964  0.00  0.00    +0.000 OA
ATOM      4  H   UNL     1      -0.661   9.842  21.112  0.00  0.00    +0.000 HD
ENDROOT
BRANCH   1   8
ATOM      5  C   UNL     1       2.566   7.306  18.602  0.00  0.00    +0.000 A 
ATOM      6  C   UNL     1       2.061   8.446  17.984  0.00  0.00    +0.000 A 
ATOM      7  C   UNL     1       1.310   9.376  18.701  0.00  0.00    +0.000 A 
ATOM      8  C   UNL     1       1.028   9.185  20.051  0.00  0.00    +0.000 A 
ATOM      9  C   UNL     1       1.493   8.019  20.671  0.00  0.00    +0.000 A 
ATOM     10  C   UNL     1       2.250   7.076  19.949  0.00  0.00    +0.000 A 
BRANCH   5  16
ATOM     11  C   UNL     1       6.470   5.683  16.272  0.00  0.00    +0.000 C 
ATOM     12  C   UNL     1       5.114   5.658  16.869  0.00  0.00    +0.000 A 
ATOM     13  C   UNL     1       4.272   4.544  17.019  0.00  0.00    +0.000 A 
ATOM     14  C   UNL     1       3.127   5.026  17.616  0.00  0.00    +0.000 A 
ATOM     15  C   UNL     1       1.853   4.301  17.858  0.00  0.00    +0.000 C 
ATOM     16  N   UNL     1       3.362   6.376  17.870  0.00  0.00    +0.000 N 
ATOM     17  N   UNL     1       4.539   6.778  17.315  0.00  0.00    +0.000 NA
ENDBRANCH   5  16
ENDBRANCH   1   8
BRANCH   2  18
ATOM     18  C   UNL     1      -0.394  12.108  21.913  0.00  0.00    +0.000 A 
ATOM     19  C   UNL     1      -1.758  11.720  22.005  0.00  0.00    +0.000 A 
ATOM     20  C   UNL     1      -2.352  12.665  22.802  0.00  0.00    +0.000 A 
ATOM     21  N   UNL     1      -1.362  13.544  23.134  0.00  0.00    +0.000 N 
ATOM     22  N   UNL     1      -0.157  13.242  22.606  0.00  0.00    +0.000 NA
ATOM     23  H   UNL     1      -1.440  14.363  23.725  0.00  0.00    +0.000 HD
BRANCH  20  24
ATOM     24  C   UNL     1      -3.760  12.733  23.242  0.00  0.00    +0.000 A 
ATOM     25  C   UNL     1      -4.267  12.476  24.539  0.00  0.00    +0.000 A 
ATOM     26  C   UNL     1      -5.636  12.645  24.484  0.00  0.00    +0.000 A 
ATOM     27  N   UNL     1      -5.965  12.987  23.200  0.00  0.00    +0.000 N 
ATOM     28  C   UNL     1      -7.305  13.217  22.709  0.00  0.00    +0.000 C 
ATOM     29  C   UNL     1      -4.830  13.057  22.435  0.00  0.00    +0.000 A 
ENDBRANCH  20  24
ENDBRANCH   2  18
TORSDOF 4
ENDMDL
MODEL 2
REMARK VINA RESULT:      -7.9      2.286     10.887
REMARK  Name = 
REMARK  7 active torsions:
REMARK  status: ('A' for Active; 'I' for Inactive)
REMARK    1  A    between atoms: C_1  and  C_2
REMARK    2  A    between atoms: C_4  and  C_5
REMARK    3  A    between atoms: N_6  and  C_7
REMARK    4  A    between atoms: C_10  and  N_11
REMARK    5  A    between atoms: C_12  and  C_14
REMARK    6  A    between atoms: C_16  and  C_17
REMARK    7  A    between atoms: N_20  and  C_21
REMARK                            x       y       z     vdW  Elec       q    Type
REMARK                         _______ _______ _______ _____ _____    ______ ____
ROOT
ATOM      1  N   UNL     1       2.248   7.536  20.055  0.00  0.00    +0.000 N 
ATOM      2  C   UNL     1       2.084   6.166  20.208  0.00  0.00    +0.000 C 
ATOM      3  O   UNL     1       1.241   5.604  20.898  0.00  0.00    +0.000 OA
ATOM      4  H   UNL     1       3.033   7.794  19.460  0.00  0.00    +0.000 HD
ENDROOT
BRANCH   1   8
ATOM      5  C   UNL     1      -0.138  10.625  21.695  0.00  0.00    +0.000 A 
ATOM      6  C   UNL     1       0.473   9.689  22.525  0.00  0.00    +0.000 A 
ATOM      7  C   UNL     1       1.265   8.672  21.994  0.00  0.00    +0.000 A 
ATOM      8  C   UNL     1       1.455   8.550  20.620  0.00  0.00    +0.000 A 
ATOM      9  C   UNL     1       0.808   9.460  19.775  0.00  0.00    +0.000 A 
ATOM     10  C   UNL     1       0.004  10.487  20.307  0.00  0.00    +0.000 A 
BRANCH   5  16
ATOM     11  C   UNL     1      -3.763  12.629  24.175  0.00  0.00    +0.000 C 
ATOM     12  C   UNL     1      -2.514  12.555  23.380  0.00  0.00    +0.000 A 
ATOM     13  C   UNL     1      -1.622  13.603  23.099  0.00  0.00    +0.000 A 
ATOM     14  C   UNL     1      -0.628  13.043  22.326  0.00  0.00    +0.000 A 
ATOM     15  C   UNL     1       0.481  13.740  21.626  0.00  0.00    +0.000 C 
ATOM     16  N   UNL     1      -0.919  11.682  22.247  0.00  0.00    +0.000 N 
ATOM     17  N   UNL     1      -2.131  11.411  22.807  0.00  0.00    +0.000 NA
ENDBRANCH   5  16
ENDBRANCH   1   8
BRANCH   2  18
ATOM     18  C   UNL     1       3.052   5.376  19.434  0.00  0.00    +0.000 A 
ATOM     19  C   UNL     1       3.678   5.786  18.226  0.00  0.00    +0.000 A 
ATOM     20  C   UNL     1       4.515   4.756  17.883  0.00  0.00    +0.000 A 
ATOM     21  N   UNL     1       4.357   3.811  18.855  0.00  0.00    +0.000 N 
ATOM     22  N   UNL     1       3.469   4.149  19.813  0.00  0.00    +0.000 NA
ATOM     23  H   UNL     1       4.833   2.919  18.928  0.00  0.00    +0.000 HD
BRANCH  20  24
ATOM     24  C   UNL     1       5.424   4.666  16.722  0.00  0.00    +0.000 A 
ATOM     25  C   UNL     1       6.751   5.151  16.631  0.00  0.00    +0.000 A 
ATOM     26  C   UNL     1       7.207   4.862  15.361  0.00  0.00    +0.000 A 
ATOM     27  N   UNL     1       6.198   4.228  14.688  0.00  0.00    +0.000 N 
ATOM     28  C   UNL     1       6.252   3.787  13.313  0.00  0.00    +0.000 C 
ATOM     29  C   UNL     1       5.109   4.090  15.510  0.00  0.00    +0.000 A 
ENDBRANCH  20  24
ENDBRANCH   2  18
TORSDOF 4
ENDMDL
MODEL 3
REMARK VINA RESULT:      -7.8      1.227      1.574
REMARK  Name = 
REMARK  7 active torsions:
REMARK  status: ('A' for Active; 'I' for Inactive)
REMARK    1  A    between atoms: C_1  and  C_2
REMARK    2  A    between atoms: C_4  and  C_5
REMARK    3  A    between atoms: N_6  and  C_7
REMARK    4  A    between atoms: C_10  and  N_11
REMARK    5  A    between atoms: C_12  and  C_14
REMARK    6  A    between atoms: C_16  and  C_17
REMARK    7  A    between atoms: N_20  and  C_21
REMARK                            x       y       z     vdW  Elec       q    Type
REMARK                         _______ _______ _______ _____ _____    ______ ____
ROOT
ATOM      1  N   UNL     1       0.774   9.699  20.323  0.00  0.00    +0.000 N 
ATOM      2  C   UNL     1       0.909  10.134  21.634  0.00  0.00    +0.000 C 
ATOM      3  O   UNL     1       1.656   9.666  22.486  0.00  0.00    +0.000 OA
ATOM      4  H   UNL     1       0.071  10.207  19.789  0.00  0.00    +0.000 HD
ENDROOT
BRANCH   1   8
ATOM      5  C   UNL     1       2.945   6.633  18.370  0.00  0.00    +0.000 A 
ATOM      6  C   UNL     1       2.492   6.456  19.675  0.00  0.00    +0.000 A 
ATOM      7  C   UNL     1       1.772   7.458  20.324  0.00  0.00    +0.000 A 
ATOM      8  C   UNL     1       1.498   8.670  19.695  0.00  0.00    +0.000 A 
ATOM      9  C   UNL     1       1.987   8.874  18.399  0.00  0.00    +0.000 A 
ATOM     10  C   UNL     1       2.718   7.865  17.741  0.00  0.00    +0.000 A 
BRANCH   5  16
ATOM     11  C   UNL     1       6.712   4.487  16.247  0.00  0.00    +0.000 C 
ATOM     12  C   UNL     1       5.342   4.640  16.793  0.00  0.00    +0.000 A 
ATOM     13  C   UNL     1       4.373   3.636  16.951  0.00  0.00    +0.000 A 
ATOM     14  C   UNL     1       3.272   4.267  17.487  0.00  0.00    +0.000 A 
ATOM     15  C   UNL     1       1.916   3.701  17.706  0.00  0.00    +0.000 C 
ATOM     16  N   UNL     1       3.652   5.591  17.702  0.00  0.00    +0.000 N 
ATOM     17  N   UNL     1       4.885   5.835  17.177  0.00  0.00    +0.000 NA
ENDBRANCH   5  16
ENDBRANCH   1   8
BRANCH   2  18
ATOM     18  C   UNL     1       0.038  11.272  21.960  0.00  0.00    +0.000 A 
ATOM     19  C   UNL     1      -1.255  11.185  22.544  0.00  0.00    +0.000 A 
ATOM     20  C   UNL     1      -1.674  12.482  22.693  0.00  0.00    +0.000 A 
ATOM     21  N   UNL     1      -0.662  13.257  22.206  0.00  0.00    +0.000 N 
ATOM     22  N   UNL     1       0.395  12.556  21.745  0.00  0.00    +0.000 NA
ATOM     23  H   UNL     1      -0.625  14.269  22.171  0.00  0.00    +0.000 HD
BRANCH  20  24
ATOM     24  C   UNL     1      -2.943  12.970  23.272  0.00  0.00    +0.000 A 
ATOM     25  C   UNL     1      -3.865  12.237  24.058  0.00  0.00    +0.000 A 
ATOM     26  C   UNL     1      -4.909  13.087  24.362  0.00  0.00    +0.000 A 
ATOM     27  N   UNL     1      -4.647  14.298  23.781  0.00  0.00    +0.000 N 
ATOM     28  C   UNL     1      -5.510  15.456  23.827  0.00  0.00    +0.000 C 
ATOM     29  C   UNL     1      -3.445  14.245  23.124  0.00  0.00    +0.000 A 
ENDBRANCH  20  24
ENDBRANCH   2  18
TORSDOF 4
ENDMDL
MODEL 4
REMARK VINA RESULT:      -7.7      8.921     10.623
REMARK  Name = 
REMARK  7 active torsions:
REMARK  status: ('A' for Active; 'I' for Inactive)
REMARK    1  A    between atoms: C_1  and  C_2
REMARK    2  A    between atoms: C_4  and  C_5
REMARK    3  A    between atoms: N_6  and  C_7
REMARK    4  A    between atoms: C_10  and  N_11
REMARK    5  A    between atoms: C_12  and  C_14
REMARK    6  A    between atoms: C_16  and  C_17
REMARK    7  A    between atoms: N_20  and  C_21
REMARK                            x       y       z     vdW  Elec       q    Type
REMARK                         _______ _______ _______ _____ _____    ______ ____
ROOT
ATOM      1  N   UNL     1       8.533   9.557  17.725  0.00  0.00    +0.000 N 
ATOM      2  C   UNL     1       9.096  10.282  18.766  0.00  0.00    +0.000 C 
ATOM      3  O   UNL     1       9.036  10.013  19.960  0.00  0.00    +0.000 OA
ATOM      4  H   UNL     1       8.675   9.975  16.807  0.00  0.00    +0.000 HD
ENDROOT
BRANCH   1   8
ATOM      5  C   UNL     1       6.341   5.946  17.997  0.00  0.00    +0.000 A 
ATOM      6  C   UNL     1       7.566   6.079  18.646  0.00  0.00    +0.000 A 
ATOM      7  C   UNL     1       8.292   7.266  18.566  0.00  0.00    +0.000 A 
ATOM      8  C   UNL     1       7.824   8.347  17.824  0.00  0.00    +0.000 A 
ATOM      9  C   UNL     1       6.615   8.207  17.131  0.00  0.00    +0.000 A 
ATOM     10  C   UNL     1       5.880   7.008  17.207  0.00  0.00    +0.000 A 
BRANCH   5  16
ATOM     11  C   UNL     1       3.979   2.390  20.250  0.00  0.00    +0.000 C 
ATOM     12  C   UNL     1       4.515   3.187  19.122  0.00  0.00    +0.000 A 
ATOM     13  C   UNL     1       4.236   3.021  17.756  0.00  0.00    +0.000 A 
ATOM     14  C   UNL     1       4.972   3.990  17.109  0.00  0.00    +0.000 A 
ATOM     15  C   UNL     1       5.166   4.160  15.646  0.00  0.00    +0.000 C 
ATOM     16  N   UNL     1       5.589   4.740  18.110  0.00  0.00    +0.000 N 
ATOM     17  N   UNL     1       5.387   4.177  19.334  0.00  0.00    +0.000 NA
ENDBRANCH   5  16
ENDBRANCH   1   8
BRANCH   2  18
ATOM     18  C   UNL     1       9.821  11.478  18.314  0.00  0.00    +0.000 A 
ATOM     19  C   UNL     1       9.318  12.807  18.330  0.00  0.00    +0.000 A 
ATOM     20  C   UNL     1      10.339  13.588  17.853  0.00  0.00    +0.000 A 
ATOM     21  N   UNL     1      11.363  12.730  17.576  0.00  0.00    +0.000 N 
ATOM     22  N   UNL     1      11.084  11.436  17.839  0.00  0.00    +0.000 NA
ATOM     23  H   UNL     1      12.282  12.965  17.219  0.00  0.00    +0.000 HD
BRANCH  20  24
ATOM     24  C   UNL     1      10.361  15.055  17.679  0.00  0.00    +0.000 A 
ATOM     25  C   UNL     1      11.274  15.814  16.908  0.00  0.00    +0.000 A 
ATOM     26  C   UNL     1      10.926  17.141  17.051  0.00  0.00    +0.000 A 
ATOM     27  N   UNL     1       9.842  17.204  17.883  0.00  0.00    +0.000 N 
ATOM     28  C   UNL     1       9.186  18.415  18.321  0.00  0.00    +0.000 C 
ATOM     29  C   UNL     1       9.478  15.938  18.264  0.00  0.00    +0.000 A 
ENDBRANCH  20  24
ENDBRANCH   2  18
TORSDOF 4
ENDMDL
MODEL 5
REMARK VINA RESULT:      -7.7      0.595      1.347
REMARK  Name = 
REMARK  7 active torsions:
REMARK  status: ('A' for Active; 'I' for Inactive)
REMARK    1  A    between atoms: C_1  and  C_2
REMARK    2  A    between atoms: C_4  and  C_5
REMARK    3  A    between atoms: N_6  and  C_7
REMARK    4  A    between atoms: C_10  and  N_11
REMARK    5  A    between atoms: C_12  and  C_14
REMARK    6  A    between atoms: C_16  and  C_17
REMARK    7  A    between atoms: N_20  and  C_21
REMARK                            x       y       z     vdW  Elec       q    Type
REMARK                         _______ _______ _______ _____ _____    ______ ____
ROOT
ATOM      1  N   UNL     1       0.116  10.063  20.839  0.00  0.00    +0.000 N 
ATOM      2  C   UNL     1       0.462  11.336  21.270  0.00  0.00    +0.000 C 
ATOM      3  O   UNL     1       1.554  11.878  21.146  0.00  0.00    +0.000 OA
ATOM      4  H   UNL     1      -0.838   9.793  21.073  0.00  0.00    +0.000 HD
ENDROOT
BRANCH   1   8
ATOM      5  C   UNL     1       2.544   7.370  18.654  0.00  0.00    +0.000 A 
ATOM      6  C   UNL     1       2.276   7.145  20.002  0.00  0.00    +0.000 A 
ATOM      7  C   UNL     1       1.473   8.023  20.728  0.00  0.00    +0.000 A 
ATOM      8  C   UNL     1       0.929   9.159  20.134  0.00  0.00    +0.000 A 
ATOM      9  C   UNL     1       1.230   9.418  18.791  0.00  0.00    +0.000 A 
ATOM     10  C   UNL     1       2.043   8.534  18.054  0.00  0.00    +0.000 A 
BRANCH   5  16
ATOM     11  C   UNL     1       6.456   5.766  16.324  0.00  0.00    +0.000 C 
ATOM     12  C   UNL     1       5.095   5.740  16.909  0.00  0.00    +0.000 A 
ATOM     13  C   UNL     1       4.243   4.629  17.030  0.00  0.00    +0.000 A 
ATOM     14  C   UNL     1       3.097   5.107  17.626  0.00  0.00    +0.000 A 
ATOM     15  C   UNL     1       1.816   4.387  17.843  0.00  0.00    +0.000 C 
ATOM     16  N   UNL     1       3.339   6.450  17.910  0.00  0.00    +0.000 N 
ATOM     17  N   UNL     1       4.524   6.855  17.373  0.00  0.00    +0.000 NA
ENDBRANCH   5  16
ENDBRANCH   1   8
BRANCH   2  18
ATOM     18  C   UNL     1      -0.643  12.045  21.932  0.00  0.00    +0.000 A 
ATOM     19  C   UNL     1      -1.997  12.053  21.502  0.00  0.00    +0.000 A 
ATOM     20  C   UNL     1      -2.668  12.809  22.428  0.00  0.00    +0.000 A 
ATOM     21  N   UNL     1      -1.727  13.211  23.330  0.00  0.00    +0.000 N 
ATOM     22  N   UNL     1      -0.480  12.771  23.058  0.00  0.00    +0.000 NA
ATOM     23  H   UNL     1      -1.871  13.776  24.159  0.00  0.00    +0.000 HD
BRANCH  20  24
ATOM     24  C   UNL     1      -4.111  13.125  22.476  0.00  0.00    +0.000 A 
ATOM     25  C   UNL     1      -4.915  13.621  21.422  0.00  0.00    +0.000 A 
ATOM     26  C   UNL     1      -6.191  13.783  21.923  0.00  0.00    +0.000 A 
ATOM     27  N   UNL     1      -6.176  13.408  23.239  0.00  0.00    +0.000 N 
ATOM     28  C   UNL     1      -7.303  13.461  24.141  0.00  0.00    +0.000 C 
ATOM     29  C   UNL     1      -4.917  12.992  23.586  0.00  0.00    +0.000 A 
ENDBRANCH  20  24
ENDBRANCH   2  18
TORSDOF 4
ENDMDL
MODEL 6
REMARK VINA RESULT:      -7.7      1.952      2.655
REMARK  Name = 
REMARK  7 active torsions:
REMARK  status: ('A' for Active; 'I' for Inactive)
REMARK    1  A    between atoms: C_1  and  C_2
REMARK    2  A    between atoms: C_4  and  C_5
REMARK    3  A    between atoms: N_6  and  C_7
REMARK    4  A    between atoms: C_10  and  N_11
REMARK    5  A    between atoms: C_12  and  C_14
REMARK    6  A    between atoms: C_16  and  C_17
REMARK    7  A    between atoms: N_20  and  C_21
REMARK                            x       y       z     vdW  Elec       q    Type
REMARK                         _______ _______ _______ _____ _____    ______ ____
ROOT
ATOM      1  N   UNL     1       0.545  10.368  19.967  0.00  0.00    +0.000 N 
ATOM      2  C   UNL     1      -0.758  10.714  19.637  0.00  0.00    +0.000 C 
ATOM      3  O   UNL     1      -1.483  10.143  18.831  0.00  0.00    +0.000 OA
ATOM      4  H   UNL     1       0.982  10.997  20.639  0.00  0.00    +0.000 HD
ENDROOT
BRANCH   1   8
ATOM      5  C   UNL     1       2.741   7.086  18.441  0.00  0.00    +0.000 A 
ATOM      6  C   UNL     1       2.294   7.084  19.759  0.00  0.00    +0.000 A 
ATOM      7  C   UNL     1       1.566   8.158  20.269  0.00  0.00    +0.000 A 
ATOM      8  C   UNL     1       1.277   9.270  19.482  0.00  0.00    +0.000 A 
ATOM      9  C   UNL     1       1.761   9.300  18.168  0.00  0.00    +0.000 A 
ATOM     10  C   UNL     1       2.500   8.219  17.651  0.00  0.00    +0.000 A 
BRANCH   5  16
ATOM     11  C   UNL     1       6.603   4.590  16.972  0.00  0.00    +0.000 C 
ATOM     12  C   UNL     1       5.184   4.863  17.301  0.00  0.00    +0.000 A 
ATOM     13  C   UNL     1       4.128   3.938  17.341  0.00  0.00    +0.000 A 
ATOM     14  C   UNL     1       3.012   4.669  17.686  0.00  0.00    +0.000 A 
ATOM     15  C   UNL     1       1.598   4.211  17.716  0.00  0.00    +0.000 C 
ATOM     16  N   UNL     1       3.457   5.969  17.917  0.00  0.00    +0.000 N 
ATOM     17  N   UNL     1       4.769   6.102  17.577  0.00  0.00    +0.000 NA
ENDBRANCH   5  16
ENDBRANCH   1   8
BRANCH   2  18
ATOM     18  C   UNL     1      -1.249  11.891  20.368  0.00  0.00    +0.000 A 
ATOM     19  C   UNL     1      -1.368  11.998  21.780  0.00  0.00    +0.000 A 
ATOM     20  C   UNL     1      -1.833  13.268  22.009  0.00  0.00    +0.000 A 
ATOM     21  N   UNL     1      -1.973  13.839  20.778  0.00  0.00    +0.000 N 
ATOM     22  N   UNL     1      -1.632  13.030  19.753  0.00  0.00    +0.000 NA
ATOM     23  H   UNL     1      -2.284  14.781  20.569  0.00  0.00    +0.000 HD
BRANCH  20  24
ATOM     24  C   UNL     1      -2.116  13.915  23.307  0.00  0.00    +0.000 A 
ATOM     25  C   UNL     1      -3.337  13.903  24.023  0.00  0.00    +0.000 A 
ATOM     26  C   UNL     1      -3.147  14.649  25.169  0.00  0.00    +0.000 A 
ATOM     27  N   UNL     1      -1.858  15.110  25.160  0.00  0.00    +0.000 N 
ATOM     28  C   UNL     1      -1.264  15.963  26.164  0.00  0.00    +0.000 C 
ATOM     29  C   UNL     1      -1.214  14.660  24.036  0.00  0.00    +0.000 A 
ENDBRANCH  20  24
ENDBRANCH   2  18
TORSDOF 4
ENDMDL
MODEL 7
REMARK VINA RESULT:      -7.7      1.129      1.231
REMARK  Name = 
REMARK  7 active torsions:
REMARK  status: ('A' for Active; 'I' for Inactive)
REMARK    1  A    between atoms: C_1  and  C_2
REMARK    2  A    between atoms: C_4  and  C_5
REMARK    3  A    between atoms: N_6  and  C_7
REMARK    4  A    between atoms: C_10  and  N_11
REMARK    5  A    between atoms: C_12  and  C_14
REMARK    6  A    between atoms: C_16  and  C_17
REMARK    7  A    between atoms: N_20  and  C_21
REMARK                            x       y       z     vdW  Elec       q    Type
REMARK                         _______ _______ _______ _____ _____    ______ ____
ROOT
ATOM      1  N   UNL     1       0.826   9.884  20.202  0.00  0.00    +0.000 N 
ATOM      2  C   UNL     1       0.875  10.229  21.545  0.00  0.00    +0.000 C 
ATOM      3  O   UNL     1       1.510   9.656  22.424  0.00  0.00    +0.000 OA
ATOM      4  H   UNL     1       0.210  10.474  19.646  0.00  0.00    +0.000 HD
ENDROOT
BRANCH   1   8
ATOM      5  C   UNL     1       2.949   6.716  18.363  0.00  0.00    +0.000 A 
ATOM      6  C   UNL     1       2.662   7.879  17.654  0.00  0.00    +0.000 A 
ATOM      7  C   UNL     1       1.968   8.929  18.252  0.00  0.00    +0.000 A 
ATOM      8  C   UNL     1       1.528   8.842  19.571  0.00  0.00    +0.000 A 
ATOM      9  C   UNL     1       1.773   7.658  20.278  0.00  0.00    +0.000 A 
ATOM     10  C   UNL     1       2.471   6.594  19.675  0.00  0.00    +0.000 A 
BRANCH   5  16
ATOM     11  C   UNL     1       6.834   4.492  16.556  0.00  0.00    +0.000 C 
ATOM     12  C   UNL     1       5.428   4.674  16.987  0.00  0.00    +0.000 A 
ATOM     13  C   UNL     1       4.429   3.689  17.062  0.00  0.00    +0.000 A 
ATOM     14  C   UNL     1       3.300   4.344  17.506  0.00  0.00    +0.000 A 
ATOM     15  C   UNL     1       1.919   3.806  17.612  0.00  0.00    +0.000 C 
ATOM     16  N   UNL     1       3.688   5.659  17.754  0.00  0.00    +0.000 N 
ATOM     17  N   UNL     1       4.965   5.878  17.334  0.00  0.00    +0.000 NA
ENDBRANCH   5  16
ENDBRANCH   1   8
BRANCH   2  18
ATOM     18  C   UNL     1       0.062  11.409  21.871  0.00  0.00    +0.000 A 
ATOM     19  C   UNL     1      -1.230  11.386  22.462  0.00  0.00    +0.000 A 
ATOM     20  C   UNL     1      -1.586  12.702  22.608  0.00  0.00    +0.000 A 
ATOM     21  N   UNL     1      -0.540  13.426  22.114  0.00  0.00    +0.000 N 
ATOM     22  N   UNL     1       0.480  12.673  21.650  0.00  0.00    +0.000 NA
ATOM     23  H   UNL     1      -0.455  14.435  22.074  0.00  0.00    +0.000 HD
BRANCH  20  24
ATOM     24  C   UNL     1      -2.827  13.253  23.191  0.00  0.00    +0.000 A 
ATOM     25  C   UNL     1      -2.950  14.382  24.036  0.00  0.00    +0.000 A 
ATOM     26  C   UNL     1      -4.287  14.515  24.349  0.00  0.00    +0.000 A 
ATOM     27  N   UNL     1      -4.966  13.503  23.727  0.00  0.00    +0.000 N 
ATOM     28  C   UNL     1      -6.387  13.259  23.826  0.00  0.00    +0.000 C 
ATOM     29  C   UNL     1      -4.090  12.733  23.007  0.00  0.00    +0.000 A 
ENDBRANCH  20  24
ENDBRANCH   2  18
TORSDOF 4
ENDMDL
MODEL 8
REMARK VINA RESULT:      -7.6      1.812      2.180
REMARK  Name = 
REMARK  7 active torsions:
REMARK  status: ('A' for Active; 'I' for Inactive)
REMARK    1  A    between atoms: C_1  and  C_2
REMARK    2  A    between atoms: C_4  and  C_5
REMARK    3  A    between atoms: N_6  and  C_7
REMARK    4  A    between atoms: C_10  and  N_11
REMARK    5  A    between atoms: C_12  and  C_14
REMARK    6  A    between atoms: C_16  and  C_17
REMARK    7  A    between atoms: N_20  and  C_21
REMARK                            x       y       z     vdW  Elec       q    Type
REMARK                         _______ _______ _______ _____ _____    ______ ____
ROOT
ATOM      1  N   UNL     1       0.593   9.232  20.450  0.00  0.00    +0.000 N 
ATOM      2  C   UNL     1       0.780   9.822  21.692  0.00  0.00    +0.000 C 
ATOM      3  O   UNL     1       1.698   9.604  22.474  0.00  0.00    +0.000 OA
ATOM      4  H   UNL     1      -0.256   9.532  19.973  0.00  0.00    +0.000 HD
ENDROOT
BRANCH   1   8
ATOM      5  C   UNL     1       3.136   6.474  18.488  0.00  0.00    +0.000 A 
ATOM      6  C   UNL     1       2.637   6.194  19.757  0.00  0.00    +0.000 A 
ATOM      7  C   UNL     1       1.795   7.094  20.408  0.00  0.00    +0.000 A 
ATOM      8  C   UNL     1       1.441   8.305  19.818  0.00  0.00    +0.000 A 
ATOM      9  C   UNL     1       1.974   8.614  18.561  0.00  0.00    +0.000 A 
ATOM     10  C   UNL     1       2.828   7.709  17.901  0.00  0.00    +0.000 A 
BRANCH   5  16
ATOM     11  C   UNL     1       7.253   4.655  16.742  0.00  0.00    +0.000 C 
ATOM     12  C   UNL     1       5.810   4.724  17.075  0.00  0.00    +0.000 A 
ATOM     13  C   UNL     1       4.858   3.699  16.946  0.00  0.00    +0.000 A 
ATOM     14  C   UNL     1       3.668   4.246  17.374  0.00  0.00    +0.000 A 
ATOM     15  C   UNL     1       2.312   3.646  17.298  0.00  0.00    +0.000 C 
ATOM     16  N   UNL     1       3.971   5.534  17.814  0.00  0.00    +0.000 N 
ATOM     17  N   UNL     1       5.264   5.854  17.530  0.00  0.00    +0.000 NA
ENDBRANCH   5  16
ENDBRANCH   1   8
BRANCH   2  18
ATOM     18  C   UNL     1      -0.267  10.795  22.036  0.00  0.00    +0.000 A 
ATOM     19  C   UNL     1      -0.971  11.614  21.112  0.00  0.00    +0.000 A 
ATOM     20  C   UNL     1      -1.861  12.331  21.869  0.00  0.00    +0.000 A 
ATOM     21  N   UNL     1      -1.657  11.934  23.158  0.00  0.00    +0.000 N 
ATOM     22  N   UNL     1      -0.689  11.004  23.301  0.00  0.00    +0.000 NA
ATOM     23  H   UNL     1      -2.151  12.250  23.984  0.00  0.00    +0.000 HD
BRANCH  20  24
ATOM     24  C   UNL     1      -2.858  13.321  21.411  0.00  0.00    +0.000 A 
ATOM     25  C   UNL     1      -2.755  14.732  21.469  0.00  0.00    +0.000 A 
ATOM     26  C   UNL     1      -3.923  15.249  20.947  0.00  0.00    +0.000 A 
ATOM     27  N   UNL     1      -4.722  14.199  20.585  0.00  0.00    +0.000 N 
ATOM     28  C   UNL     1      -6.052  14.307  20.029  0.00  0.00    +0.000 C 
ATOM     29  C   UNL     1      -4.080  13.017  20.850  0.00  0.00    +0.000 A 
ENDBRANCH  20  24
ENDBRANCH   2  18
TORSDOF 4
ENDMDL
MODEL 9
REMARK VINA RESULT:      -7.5      1.177      1.526
REMARK  Name = 
REMARK  7 active torsions:
REMARK  status: ('A' for Active; 'I' for Inactive)
REMARK    1  A    between atoms: C_1  and  C_2
REMARK    2  A    between atoms: C_4  and  C_5
REMARK    3  A    between atoms: N_6  and  C_7
REMARK    4  A    between atoms: C_10  and  N_11
REMARK    5  A    between atoms: C_12  and  C_14
REMARK    6  A    between atoms: C_16  and  C_17
REMARK    7  A    between atoms: N_20  and  C_21
REMARK                            x       y       z     vdW  Elec       q    Type
REMARK                         _______ _______ _______ _____ _____    ______ ____
ROOT
ATOM      1  N   UNL     1       0.014  10.570  20.923  0.00  0.00    +0.000 N 
ATOM      2  C   UNL     1      -0.094  10.737  22.297  0.00  0.00    +0.000 C 
ATOM      3  O   UNL     1       0.414  10.031  23.160  0.00  0.00    +0.000 OA
ATOM      4  H   UNL     1      -0.515  11.252  20.381  0.00  0.00    +0.000 HD
ENDROOT
BRANCH   1   8
ATOM      5  C   UNL     1       2.248   7.649  18.825  0.00  0.00    +0.000 A 
ATOM      6  C   UNL     1       1.993   7.500  20.186  0.00  0.00    +0.000 A 
ATOM      7  C   UNL     1       1.254   8.454  20.883  0.00  0.00    +0.000 A 
ATOM      8  C   UNL     1       0.763   9.591  20.246  0.00  0.00    +0.000 A 
ATOM      9  C   UNL     1       1.052   9.771  18.888  0.00  0.00    +0.000 A 
ATOM     10  C   UNL     1       1.801   8.811  18.180  0.00  0.00    +0.000 A 
BRANCH   5  16
ATOM     11  C   UNL     1       5.854   5.844  16.171  0.00  0.00    +0.000 C 
ATOM     12  C   UNL     1       4.601   5.859  16.962  0.00  0.00    +0.000 A 
ATOM     13  C   UNL     1       3.847   4.750  17.383  0.00  0.00    +0.000 A 
ATOM     14  C   UNL     1       2.777   5.274  18.076  0.00  0.00    +0.000 A 
ATOM     15  C   UNL     1       1.590   4.549  18.599  0.00  0.00    +0.000 C 
ATOM     16  N   UNL     1       2.976   6.653  18.111  0.00  0.00    +0.000 N 
ATOM     17  N   UNL     1       4.039   7.011  17.338  0.00  0.00    +0.000 NA
ENDBRANCH   5  16
ENDBRANCH   1   8
BRANCH   2  18
ATOM     18  C   UNL     1      -0.913  11.897  22.677  0.00  0.00    +0.000 A 
ATOM     19  C   UNL     1      -2.331  11.918  22.758  0.00  0.00    +0.000 A 
ATOM     20  C   UNL     1      -2.652  13.184  23.176  0.00  0.00    +0.000 A 
ATOM     21  N   UNL     1      -1.464  13.841  23.315  0.00  0.00    +0.000 N 
ATOM     22  N   UNL     1      -0.383  13.092  23.015  0.00  0.00    +0.000 NA
ATOM     23  H   UNL     1      -1.322  14.796  23.623  0.00  0.00    +0.000 HD
BRANCH  20  24
ATOM     24  C   UNL     1      -3.993  13.744  23.445  0.00  0.00    +0.000 A 
ATOM     25  C   UNL     1      -4.330  15.104  23.647  0.00  0.00    +0.000 A 
ATOM     26  C   UNL     1      -5.689  15.158  23.880  0.00  0.00    +0.000 A 
ATOM     27  N   UNL     1      -6.174  13.880  23.833  0.00  0.00    +0.000 N 
ATOM     28  C   UNL     1      -7.548  13.493  24.062  0.00  0.00    +0.000 C 
ATOM     29  C   UNL     1      -5.153  13.008  23.555  0.00  0.00    +0.000 A 
ENDBRANCH  20  24
ENDBRANCH   2  18
TORSDOF 4
ENDMDL
