MODEL 1
REMARK VINA RESULT:      -8.8      0.000      0.000
REMARK  Name = 
REMARK  8 active torsions:
REMARK  status: ('A' for Active; 'I' for Inactive)
REMARK    1  A    between atoms: C_1  and  N_2
REMARK    2  A    between atoms: C_6  and  C_7
REMARK    3  A    between atoms: C_7  and  C_8
REMARK    4  A    between atoms: C_8  and  C_9
REMARK    5  A    between atoms: C_13  and  N_14
REMARK    6  A    between atoms: C_17  and  C_18
REMARK    7  A    between atoms: C_19  and  C_20
REMARK    8  A    between atoms: C_20  and  N_21
REMARK                            x       y       z     vdW  Elec       q    Type
REMARK                         _______ _______ _______ _____ _____    ______ ____
ROOT
ATOM      1  C   UNL     1       4.544   4.749  17.178  0.00  0.00    +0.000 A 
ATOM      2  C   UNL     1       3.724   3.660  16.840  0.00  0.00    +0.000 A 
ATOM      3  C   UNL     1       2.417   3.553  17.322  0.00  0.00    +0.000 A 
ATOM      4  C   UNL     1       1.884   4.546  18.145  0.00  0.00    +0.000 A 
ATOM      5  C   UNL     1       2.641   5.667  18.481  0.00  0.00    +0.000 A 
ATOM      6  C   UNL     1       3.953   5.739  17.989  0.00  0.00    +0.000 A 
ENDROOT
BRANCH   5   7
ATOM      7  N   UNL     1       2.146   6.705  19.307  0.00  0.00    +0.000 N 
ATOM      8  C   UNL     1       1.787   6.472  20.687  0.00  0.00    +0.000 C 
ATOM      9  C   UNL     1       1.285   7.795  21.113  0.00  0.00    +0.000 C 
ATOM     10  C   UNL     1       1.334   8.701  20.133  0.00  0.00    +0.000 C 
ATOM     11  C   UNL     1       1.951   8.039  18.955  0.00  0.00    +0.000 C 
ATOM     12  O   UNL     1       2.206   8.628  17.916  0.00  0.00    +0.000 OA
BRANCH  10  13
ATOM     13  C   UNL     1       0.982  10.085  20.196  0.00  0.00    +0.000 C 
ATOM     14  C   UNL     1       0.229  10.617  21.171  0.00  0.00    +0.000 C 
BRANCH  14  15
ATOM     15  C   UNL     1      -0.024  12.086  21.305  0.00  0.00    +0.000 C 
BRANCH  15  16
ATOM     16  N   UNL     1      -0.448  12.411  22.675  0.00  0.00    +0.000 NA
ATOM     17  C   UNL     1      -1.676  11.680  23.024  0.00  0.00    +0.000 C 
ATOM     18  C   UNL     1      -2.803  12.543  22.488  0.00  0.00    +0.000 C 
ATOM     19  C   UNL     1      -2.311  13.955  22.740  0.00  0.00    +0.000 C 
ATOM     20  C   UNL     1      -0.796  13.836  22.845  0.00  0.00    +0.000 C 
ENDBRANCH  15  16
ENDBRANCH  14  15
ENDBRANCH  10  13
ENDBRANCH   5   7
BRANCH   1  21
ATOM     21  C   UNL     1       6.083   4.870  16.726  0.00  0.00    +0.000 C 
ATOM     22  C   UNL     1       6.667   6.305  16.560  0.00  0.00    +0.000 C 
ATOM     23  O   UNL     1       7.685   6.069  17.556  0.00  0.00    +0.000 OA
ATOM     24  C   UNL     1       7.123   4.783  17.878  0.00  0.00    +0.000 C 
BRANCH  21  25
ATOM     25  C   UNL     1       6.414   3.912  15.560  0.00  0.00    +0.000 C 
BRANCH  25  31
ATOM     26  C   UNL     1       5.777   3.320  12.532  0.00  0.00    +0.000 C 
ATOM     27  N   UNL     1       6.712   4.284  13.049  0.00  0.00    +0.000 N 
ATOM     28  C   UNL     1       7.505   5.087  12.284  0.00  0.00    +0.000 A 
ATOM     29  N   UNL     1       8.264   5.823  13.064  0.00  0.00    +0.000 NA
ATOM     30  N   UNL     1       7.969   5.486  14.363  0.00  0.00    +0.000 NA
ATOM     31  C   UNL     1       7.018   4.572  14.359  0.00  0.00    +0.000 A 
ENDBRANCH  25  31
ENDBRANCH  21  25
ENDBRANCH   1  21
TORSDOF 7
ENDMDL
MODEL 2
REMARK VINA RESULT:      -8.7      3.718      5.509
REMARK  Name = 
REMARK  8 active torsions:
REMARK  status: ('A' for Active; 'I' for Inactive)
REMARK    1  A    between atoms: C_1  and  N_2
REMARK    2  A    between atoms: C_6  and  C_7
REMARK    3  A    between atoms: C_7  and  C_8
REMARK    4  A    between atoms: C_8  and  C_9
REMARK    5  A    between atoms: C_13  and  N_14
REMARK    6  A    between atoms: C_17  and  C_18
REMARK    7  A    between atoms: C_19  and  C_20
REMARK    8  A    between atoms: C_20  and  N_21
REMARK                            x       y       z     vdW  Elec       q    Type
REMARK                         _______ _______ _______ _____ _____    ______ ____
ROOT
ATOM      1  C   UNL     1       2.499   7.397  18.637  0.00  0.00    +0.000 A 
ATOM      2  C   UNL     1       2.586   8.280  17.548  0.00  0.00    +0.000 A 
ATOM      3  C   UNL     1       2.017   9.554  17.594  0.00  0.00    +0.000 A 
ATOM      4  C   UNL     1       1.356   9.991  18.743  0.00  0.00    +0.000 A 
ATOM      5  C   UNL     1       1.272   9.170  19.866  0.00  0.00    +0.000 A 
ATOM      6  C   UNL     1       1.846   7.892  19.783  0.00  0.00    +0.000 A 
ENDROOT
BRANCH   5   7
ATOM      7  N   UNL     1       0.617   9.567  21.058  0.00  0.00    +0.000 N 
ATOM      8  C   UNL     1       0.654   8.754  22.251  0.00  0.00    +0.000 C 
ATOM      9  C   UNL     1      -0.189   9.526  23.188  0.00  0.00    +0.000 C 
ATOM     10  C   UNL     1      -0.668  10.647  22.640  0.00  0.00    +0.000 C 
ATOM     11  C   UNL     1      -0.108  10.738  21.268  0.00  0.00    +0.000 C 
ATOM     12  O   UNL     1      -0.297  11.694  20.532  0.00  0.00    +0.000 OA
BRANCH  10  13
ATOM     13  C   UNL     1      -1.471  11.654  23.260  0.00  0.00    +0.000 C 
ATOM     14  C   UNL     1      -2.731  11.931  22.894  0.00  0.00    +0.000 C 
BRANCH  14  15
ATOM     15  C   UNL     1      -3.611  12.890  23.632  0.00  0.00    +0.000 C 
BRANCH  15  16
ATOM     16  N   UNL     1      -4.420  13.677  22.689  0.00  0.00    +0.000 NA
ATOM     17  C   UNL     1      -5.205  14.694  23.404  0.00  0.00    +0.000 C 
ATOM     18  C   UNL     1      -6.461  13.967  23.849  0.00  0.00    +0.000 C 
ATOM     19  C   UNL     1      -6.753  13.034  22.690  0.00  0.00    +0.000 C 
ATOM     20  C   UNL     1      -5.421  12.861  21.973  0.00  0.00    +0.000 C 
ENDBRANCH  15  16
ENDBRANCH  14  15
ENDBRANCH  10  13
ENDBRANCH   5   7
BRANCH   1  21
ATOM     21  C   UNL     1       3.055   5.888  18.598  0.00  0.00    +0.000 C 
ATOM     22  C   UNL     1       3.988   5.502  17.410  0.00  0.00    +0.000 C 
ATOM     23  O   UNL     1       5.074   5.158  18.298  0.00  0.00    +0.000 OA
ATOM     24  C   UNL     1       4.336   5.629  19.441  0.00  0.00    +0.000 C 
BRANCH  21  25
ATOM     25  C   UNL     1       1.941   4.858  18.889  0.00  0.00    +0.000 C 
BRANCH  25  31
ATOM     26  C   UNL     1       3.346   2.041  18.987  0.00  0.00    +0.000 C 
ATOM     27  N   UNL     1       2.797   2.775  20.097  0.00  0.00    +0.000 N 
ATOM     28  C   UNL     1       2.775   2.336  21.387  0.00  0.00    +0.000 A 
ATOM     29  N   UNL     1       2.175   3.227  22.142  0.00  0.00    +0.000 NA
ATOM     30  N   UNL     1       1.786   4.263  21.327  0.00  0.00    +0.000 NA
ATOM     31  C   UNL     1       2.177   4.003  20.095  0.00  0.00    +0.000 A 
ENDBRANCH  25  31
ENDBRANCH  21  25
ENDBRANCH   1  21
TORSDOF 7
ENDMDL
MODEL 3
REMARK VINA RESULT:      -8.7      3.749      5.486
REMARK  Name = 
REMARK  8 active torsions:
REMARK  status: ('A' for Active; 'I' for Inactive)
REMARK    1  A    between atoms: C_1  and  N_2
REMARK    2  A    between atoms: C_6  and  C_7
REMARK    3  A    between atoms: C_7  and  C_8
REMARK    4  A    between atoms: C_8  and  C_9
REMARK    5  A    between atoms: C_13  and  N_14
REMARK    6  A    between atoms: C_17  and  C_18
REMARK    7  A    between atoms: C_19  and  C_20
REMARK    8  A    between atoms: C_20  and  N_21
REMARK                            x       y       z     vdW  Elec       q    Type
REMARK                         _______ _______ _______ _____ _____    ______ ____
ROOT
ATOM      1  C   UNL     1       2.598   7.266  18.600  0.00  0.00    +0.000 A 
ATOM      2  C   UNL     1       2.618   8.119  17.484  0.00  0.00    +0.000 A 
ATOM      3  C   UNL     1       1.999   9.371  17.512  0.00  0.00    +0.000 A 
ATOM      4  C   UNL     1       1.354   9.814  18.667  0.00  0.00    +0.000 A 
ATOM      5  C   UNL     1       1.336   9.024  19.815  0.00  0.00    +0.000 A 
ATOM      6  C   UNL     1       1.959   7.769  19.751  0.00  0.00    +0.000 A 
ENDROOT
BRANCH   5   7
ATOM      7  N   UNL     1       0.701   9.430  21.014  0.00  0.00    +0.000 N 
ATOM      8  C   UNL     1       1.170   8.990  22.308  0.00  0.00    +0.000 C 
ATOM      9  C   UNL     1       0.191   9.607  23.228  0.00  0.00    +0.000 C 
ATOM     10  C   UNL     1      -0.738  10.319  22.583  0.00  0.00    +0.000 C 
ATOM     11  C   UNL     1      -0.397  10.277  21.138  0.00  0.00    +0.000 C 
ATOM     12  O   UNL     1      -1.016  10.900  20.289  0.00  0.00    +0.000 OA
BRANCH  10  13
ATOM     13  C   UNL     1      -1.804  11.088  23.147  0.00  0.00    +0.000 C 
ATOM     14  C   UNL     1      -1.848  12.428  23.122  0.00  0.00    +0.000 C 
BRANCH  14  15
ATOM     15  C   UNL     1      -3.027  13.221  23.591  0.00  0.00    +0.000 C 
BRANCH  15  16
ATOM     16  N   UNL     1      -4.277  12.500  23.307  0.00  0.00    +0.000 NA
ATOM     17  C   UNL     1      -4.826  12.910  22.006  0.00  0.00    +0.000 C 
ATOM     18  C   UNL     1      -5.634  14.159  22.306  0.00  0.00    +0.000 C 
ATOM     19  C   UNL     1      -6.247  13.860  23.661  0.00  0.00    +0.000 C 
ATOM     20  C   UNL     1      -5.346  12.799  24.280  0.00  0.00    +0.000 C 
ENDBRANCH  15  16
ENDBRANCH  14  15
ENDBRANCH  10  13
ENDBRANCH   5   7
BRANCH   1  21
ATOM     21  C   UNL     1       3.215   5.780  18.586  0.00  0.00    +0.000 C 
ATOM     22  C   UNL     1       2.485   4.712  17.717  0.00  0.00    +0.000 C 
ATOM     23  O   UNL     1       3.661   4.476  16.915  0.00  0.00    +0.000 OA
ATOM     24  C   UNL     1       4.367   5.548  17.568  0.00  0.00    +0.000 C 
BRANCH  21  25
ATOM     25  C   UNL     1       3.580   5.298  20.009  0.00  0.00    +0.000 C 
BRANCH  25  31
ATOM     26  C   UNL     1       4.349   2.244  20.067  0.00  0.00    +0.000 C 
ATOM     27  N   UNL     1       3.121   2.837  20.526  0.00  0.00    +0.000 N 
ATOM     28  C   UNL     1       2.066   2.145  21.041  0.00  0.00    +0.000 A 
ATOM     29  N   UNL     1       1.093   2.980  21.329  0.00  0.00    +0.000 NA
ATOM     30  N   UNL     1       1.516   4.241  20.984  0.00  0.00    +0.000 NA
ATOM     31  C   UNL     1       2.748   4.162  20.518  0.00  0.00    +0.000 A 
ENDBRANCH  25  31
ENDBRANCH  21  25
ENDBRANCH   1  21
TORSDOF 7
ENDMDL
MODEL 4
REMARK VINA RESULT:      -8.6      2.632      4.143
REMARK  Name = 
REMARK  8 active torsions:
REMARK  status: ('A' for Active; 'I' for Inactive)
REMARK    1  A    between atoms: C_1  and  N_2
REMARK    2  A    between atoms: C_6  and  C_7
REMARK    3  A    between atoms: C_7  and  C_8
REMARK    4  A    between atoms: C_8  and  C_9
REMARK    5  A    between atoms: C_13  and  N_14
REMARK    6  A    between atoms: C_17  and  C_18
REMARK    7  A    between atoms: C_19  and  C_20
REMARK    8  A    between atoms: C_20  and  N_21
REMARK                            x       y       z     vdW  Elec       q    Type
REMARK                         _______ _______ _______ _____ _____    ______ ____
ROOT
ATOM      1  C   UNL     1       2.815   5.966  18.773  0.00  0.00    +0.000 A 
ATOM      2  C   UNL     1       3.260   6.609  17.606  0.00  0.00    +0.000 A 
ATOM      3  C   UNL     1       3.024   7.968  17.387  0.00  0.00    +0.000 A 
ATOM      4  C   UNL     1       2.349   8.731  18.341  0.00  0.00    +0.000 A 
ATOM      5  C   UNL     1       1.919   8.153  19.533  0.00  0.00    +0.000 A 
ATOM      6  C   UNL     1       2.163   6.783  19.718  0.00  0.00    +0.000 A 
ENDROOT
BRANCH   5   7
ATOM      7  N   UNL     1       1.235   8.883  20.536  0.00  0.00    +0.000 N 
ATOM      8  C   UNL     1       1.391   8.576  21.939  0.00  0.00    +0.000 C 
ATOM      9  C   UNL     1       0.469   9.538  22.579  0.00  0.00    +0.000 C 
ATOM     10  C   UNL     1      -0.156  10.316  21.691  0.00  0.00    +0.000 C 
ATOM     11  C   UNL     1       0.370   9.958  20.349  0.00  0.00    +0.000 C 
ATOM     12  O   UNL     1       0.050  10.549  19.329  0.00  0.00    +0.000 OA
BRANCH  10  13
ATOM     13  C   UNL     1      -1.073  11.383  21.949  0.00  0.00    +0.000 C 
ATOM     14  C   UNL     1      -1.861  11.441  23.033  0.00  0.00    +0.000 C 
BRANCH  14  15
ATOM     15  C   UNL     1      -2.718  12.622  23.364  0.00  0.00    +0.000 C 
BRANCH  15  16
ATOM     16  N   UNL     1      -4.138  12.299  23.163  0.00  0.00    +0.000 NA
ATOM     17  C   UNL     1      -4.598  12.783  21.852  0.00  0.00    +0.000 C 
ATOM     18  C   UNL     1      -4.978  14.233  22.089  0.00  0.00    +0.000 C 
ATOM     19  C   UNL     1      -5.589  14.211  23.477  0.00  0.00    +0.000 C 
ATOM     20  C   UNL     1      -5.022  12.963  24.142  0.00  0.00    +0.000 C 
ENDBRANCH  15  16
ENDBRANCH  14  15
ENDBRANCH  10  13
ENDBRANCH   5   7
BRANCH   1  21
ATOM     21  C   UNL     1       2.979   4.387  19.028  0.00  0.00    +0.000 C 
ATOM     22  C   UNL     1       2.824   3.880  20.494  0.00  0.00    +0.000 C 
ATOM     23  O   UNL     1       1.719   3.020  20.143  0.00  0.00    +0.000 OA
ATOM     24  C   UNL     1       1.695   3.540  18.800  0.00  0.00    +0.000 C 
BRANCH  21  25
ATOM     25  C   UNL     1       4.205   3.810  18.284  0.00  0.00    +0.000 C 
BRANCH  25  31
ATOM     26  C   UNL     1       6.594   4.433  16.329  0.00  0.00    +0.000 C 
ATOM     27  N   UNL     1       6.530   4.721  17.738  0.00  0.00    +0.000 N 
ATOM     28  C   UNL     1       7.531   5.294  18.463  0.00  0.00    +0.000 A 
ATOM     29  N   UNL     1       7.165   5.385  19.720  0.00  0.00    +0.000 NA
ATOM     30  N   UNL     1       5.903   4.849  19.822  0.00  0.00    +0.000 NA
ATOM     31  C   UNL     1       5.508   4.466  18.623  0.00  0.00    +0.000 A 
ENDBRANCH  25  31
ENDBRANCH  21  25
ENDBRANCH   1  21
TORSDOF 7
ENDMDL
MODEL 5
REMARK VINA RESULT:      -8.6      3.703      5.361
REMARK  Name = 
REMARK  8 active torsions:
REMARK  status: ('A' for Active; 'I' for Inactive)
REMARK    1  A    between atoms: C_1  and  N_2
REMARK    2  A    between atoms: C_6  and  C_7
REMARK    3  A    between atoms: C_7  and  C_8
REMARK    4  A    between atoms: C_8  and  C_9
REMARK    5  A    between atoms: C_13  and  N_14
REMARK    6  A    between atoms: C_17  and  C_18
REMARK    7  A    between atoms: C_19  and  C_20
REMARK    8  A    between atoms: C_20  and  N_21
REMARK                            x       y       z     vdW  Elec       q    Type
REMARK                         _______ _______ _______ _____ _____    ______ ____
ROOT
ATOM      1  C   UNL     1       2.528   7.336  18.656  0.00  0.00    +0.000 A 
ATOM      2  C   UNL     1       2.617   8.192  17.545  0.00  0.00    +0.000 A 
ATOM      3  C   UNL     1       2.047   9.467  17.559  0.00  0.00    +0.000 A 
ATOM      4  C   UNL     1       1.384   9.932  18.696  0.00  0.00    +0.000 A 
ATOM      5  C   UNL     1       1.299   9.139  19.839  0.00  0.00    +0.000 A 
ATOM      6  C   UNL     1       1.873   7.860  19.789  0.00  0.00    +0.000 A 
ENDROOT
BRANCH   5   7
ATOM      7  N   UNL     1       0.643   9.565  21.019  0.00  0.00    +0.000 N 
ATOM      8  C   UNL     1       0.542   8.715  22.182  0.00  0.00    +0.000 C 
ATOM      9  C   UNL     1      -0.251   9.543  23.115  0.00  0.00    +0.000 C 
ATOM     10  C   UNL     1      -0.582  10.726  22.592  0.00  0.00    +0.000 C 
ATOM     11  C   UNL     1       0.040  10.801  21.246  0.00  0.00    +0.000 C 
ATOM     12  O   UNL     1      -0.015  11.796  20.540  0.00  0.00    +0.000 OA
BRANCH  10  13
ATOM     13  C   UNL     1      -1.297  11.794  23.219  0.00  0.00    +0.000 C 
ATOM     14  C   UNL     1      -2.585  12.077  22.968  0.00  0.00    +0.000 C 
BRANCH  14  15
ATOM     15  C   UNL     1      -3.363  13.107  23.724  0.00  0.00    +0.000 C 
BRANCH  15  16
ATOM     16  N   UNL     1      -2.506  14.252  24.063  0.00  0.00    +0.000 NA
ATOM     17  C   UNL     1      -3.022  14.951  25.250  0.00  0.00    +0.000 C 
ATOM     18  C   UNL     1      -4.063  15.913  24.707  0.00  0.00    +0.000 C 
ATOM     19  C   UNL     1      -3.461  16.372  23.393  0.00  0.00    +0.000 C 
ATOM     20  C   UNL     1      -2.474  15.279  23.003  0.00  0.00    +0.000 C 
ENDBRANCH  15  16
ENDBRANCH  14  15
ENDBRANCH  10  13
ENDBRANCH   5   7
BRANCH   1  21
ATOM     21  C   UNL     1       3.085   5.827  18.655  0.00  0.00    +0.000 C 
ATOM     22  C   UNL     1       4.017   5.411  17.477  0.00  0.00    +0.000 C 
ATOM     23  O   UNL     1       5.103   5.090  18.373  0.00  0.00    +0.000 OA
ATOM     24  C   UNL     1       4.366   5.590  19.504  0.00  0.00    +0.000 C 
BRANCH  21  25
ATOM     25  C   UNL     1       1.970   4.805  18.973  0.00  0.00    +0.000 C 
BRANCH  25  31
ATOM     26  C   UNL     1       3.358   1.977  18.966  0.00  0.00    +0.000 C 
ATOM     27  N   UNL     1       2.856   2.693  20.109  0.00  0.00    +0.000 N 
ATOM     28  C   UNL     1       2.878   2.230  21.390  0.00  0.00    +0.000 A 
ATOM     29  N   UNL     1       2.313   3.110  22.184  0.00  0.00    +0.000 NA
ATOM     30  N   UNL     1       1.901   4.164  21.404  0.00  0.00    +0.000 NA
ATOM     31  C   UNL     1       2.245   3.926  20.153  0.00  0.00    +0.000 A 
ENDBRANCH  25  31
ENDBRANCH  21  25
ENDBRANCH   1  21
TORSDOF 7
ENDMDL
MODEL 6
REMARK VINA RESULT:      -8.6      1.456      1.899
REMARK  Name = 
REMARK  8 active torsions:
REMARK  status: ('A' for Active; 'I' for Inactive)
REMARK    1  A    between atoms: C_1  and  N_2
REMARK    2  A    between atoms: C_6  and  C_7
REMARK    3  A    between atoms: C_7  and  C_8
REMARK    4  A    between atoms: C_8  and  C_9
REMARK    5  A    between atoms: C_13  and  N_14
REMARK    6  A    between atoms: C_17  and  C_18
REMARK    7  A    between atoms: C_19  and  C_20
REMARK    8  A    between atoms: C_20  and  N_21
REMARK                            x       y       z     vdW  Elec       q    Type
REMARK                         _______ _______ _______ _____ _____    ______ ____
ROOT
ATOM      1  C   UNL     1       5.403   5.472  18.583  0.00  0.00    +0.000 A 
ATOM      2  C   UNL     1       4.905   4.233  19.018  0.00  0.00    +0.000 A 
ATOM      3  C   UNL     1       3.594   4.095  19.481  0.00  0.00    +0.000 A 
ATOM      4  C   UNL     1       2.735   5.194  19.507  0.00  0.00    +0.000 A 
ATOM      5  C   UNL     1       3.165   6.439  19.051  0.00  0.00    +0.000 A 
ATOM      6  C   UNL     1       4.490   6.546  18.602  0.00  0.00    +0.000 A 
ENDROOT
BRANCH   5   7
ATOM      7  N   UNL     1       2.332   7.585  19.050  0.00  0.00    +0.000 N 
ATOM      8  C   UNL     1       2.145   8.386  17.864  0.00  0.00    +0.000 C 
ATOM      9  C   UNL     1       1.264   9.470  18.348  0.00  0.00    +0.000 C 
ATOM     10  C   UNL     1       0.960   9.343  19.642  0.00  0.00    +0.000 C 
ATOM     11  C   UNL     1       1.590   8.085  20.118  0.00  0.00    +0.000 C 
ATOM     12  O   UNL     1       1.433   7.646  21.247  0.00  0.00    +0.000 OA
BRANCH  10  13
ATOM     13  C   UNL     1       0.100  10.170  20.429  0.00  0.00    +0.000 C 
ATOM     14  C   UNL     1      -0.415  11.331  19.997  0.00  0.00    +0.000 C 
BRANCH  14  15
ATOM     15  C   UNL     1      -1.420  12.124  20.771  0.00  0.00    +0.000 C 
BRANCH  15  16
ATOM     16  N   UNL     1      -1.041  12.187  22.191  0.00  0.00    +0.000 NA
ATOM     17  C   UNL     1      -2.165  11.775  23.045  0.00  0.00    +0.000 C 
ATOM     18  C   UNL     1      -2.992  13.034  23.227  0.00  0.00    +0.000 C 
ATOM     19  C   UNL     1      -1.945  14.128  23.319  0.00  0.00    +0.000 C 
ATOM     20  C   UNL     1      -0.710  13.555  22.636  0.00  0.00    +0.000 C 
ENDBRANCH  15  16
ENDBRANCH  14  15
ENDBRANCH  10  13
ENDBRANCH   5   7
BRANCH   1  21
ATOM     21  C   UNL     1       6.929   5.701  18.130  0.00  0.00    +0.000 C 
ATOM     22  C   UNL     1       7.314   7.117  17.604  0.00  0.00    +0.000 C 
ATOM     23  O   UNL     1       8.306   7.295  18.637  0.00  0.00    +0.000 OA
ATOM     24  C   UNL     1       7.915   6.065  19.276  0.00  0.00    +0.000 C 
BRANCH  21  25
ATOM     25  C   UNL     1       7.448   4.537  17.255  0.00  0.00    +0.000 C 
BRANCH  25  31
ATOM     26  C   UNL     1       4.998   3.144  15.848  0.00  0.00    +0.000 C 
ATOM     27  N   UNL     1       5.982   3.995  15.232  0.00  0.00    +0.000 N 
ATOM     28  C   UNL     1       6.020   4.310  13.907  0.00  0.00    +0.000 A 
ATOM     29  N   UNL     1       7.060   5.076  13.669  0.00  0.00    +0.000 NA
ATOM     30  N   UNL     1       7.722   5.254  14.860  0.00  0.00    +0.000 NA
ATOM     31  C   UNL     1       7.063   4.620  15.810  0.00  0.00    +0.000 A 
ENDBRANCH  25  31
ENDBRANCH  21  25
ENDBRANCH   1  21
TORSDOF 7
ENDMDL
MODEL 7
REMARK VINA RESULT:      -8.5      3.801      5.459
REMARK  Name = 
REMARK  8 active torsions:
REMARK  status: ('A' for Active; 'I' for Inactive)
REMARK    1  A    between atoms: C_1  and  N_2
REMARK    2  A    between atoms: C_6  and  C_7
REMARK    3  A    between atoms: C_7  and  C_8
REMARK    4  A    between atoms: C_8  and  C_9
REMARK    5  A    between atoms: C_13  and  N_14
REMARK    6  A    between atoms: C_17  and  C_18
REMARK    7  A    between atoms: C_19  and  C_20
REMARK    8  A    between atoms: C_20  and  N_21
REMARK                            x       y       z     vdW  Elec       q    Type
REMARK                         _______ _______ _______ _____ _____    ______ ____
ROOT
ATOM      1  C   UNL     1       2.502   7.393  18.941  0.00  0.00    +0.000 A 
ATOM      2  C   UNL     1       2.532   8.160  17.764  0.00  0.00    +0.000 A 
ATOM      3  C   UNL     1       1.896   9.401  17.686  0.00  0.00    +0.000 A 
ATOM      4  C   UNL     1       1.224   9.921  18.792  0.00  0.00    +0.000 A 
ATOM      5  C   UNL     1       1.194   9.220  19.996  0.00  0.00    +0.000 A 
ATOM      6  C   UNL     1       1.835   7.972  20.039  0.00  0.00    +0.000 A 
ENDROOT
BRANCH   5   7
ATOM      7  N   UNL     1       0.531   9.706  21.149  0.00  0.00    +0.000 N 
ATOM      8  C   UNL     1       0.596   9.009  22.413  0.00  0.00    +0.000 C 
ATOM      9  C   UNL     1      -0.268   9.839  23.278  0.00  0.00    +0.000 C 
ATOM     10  C   UNL     1      -0.782  10.889  22.632  0.00  0.00    +0.000 C 
ATOM     11  C   UNL     1      -0.230  10.868  21.253  0.00  0.00    +0.000 C 
ATOM     12  O   UNL     1      -0.450  11.746  20.434  0.00  0.00    +0.000 OA
BRANCH  10  13
ATOM     13  C   UNL     1      -1.615  11.924  23.160  0.00  0.00    +0.000 C 
ATOM     14  C   UNL     1      -2.939  11.992  22.955  0.00  0.00    +0.000 C 
BRANCH  14  15
ATOM     15  C   UNL     1      -3.823  12.999  23.619  0.00  0.00    +0.000 C 
BRANCH  15  16
ATOM     16  N   UNL     1      -5.231  12.760  23.266  0.00  0.00    +0.000 NA
ATOM     17  C   UNL     1      -5.415  12.814  21.808  0.00  0.00    +0.000 C 
ATOM     18  C   UNL     1      -5.606  14.288  21.499  0.00  0.00    +0.000 C 
ATOM     19  C   UNL     1      -6.411  14.791  22.682  0.00  0.00    +0.000 C 
ATOM     20  C   UNL     1      -6.140  13.794  23.801  0.00  0.00    +0.000 C 
ENDBRANCH  15  16
ENDBRANCH  14  15
ENDBRANCH  10  13
ENDBRANCH   5   7
BRANCH   1  21
ATOM     21  C   UNL     1       3.138   5.920  19.052  0.00  0.00    +0.000 C 
ATOM     22  C   UNL     1       3.371   5.141  17.722  0.00  0.00    +0.000 C 
ATOM     23  O   UNL     1       4.790   5.033  17.964  0.00  0.00    +0.000 OA
ATOM     24  C   UNL     1       4.690   5.870  19.132  0.00  0.00    +0.000 C 
BRANCH  21  25
ATOM     25  C   UNL     1       2.464   5.087  20.165  0.00  0.00    +0.000 C 
BRANCH  25  31
ATOM     26  C   UNL     1       3.941   2.308  20.016  0.00  0.00    +0.000 C 
ATOM     27  N   UNL     1       2.574   2.584  19.660  0.00  0.00    +0.000 N 
ATOM     28  C   UNL     1       1.698   1.665  19.163  0.00  0.00    +0.000 A 
ATOM     29  N   UNL     1       0.548   2.248  18.912  0.00  0.00    +0.000 NA
ATOM     30  N   UNL     1       0.679   3.576  19.239  0.00  0.00    +0.000 NA
ATOM     31  C   UNL     1       1.894   3.779  19.711  0.00  0.00    +0.000 A 
ENDBRANCH  25  31
ENDBRANCH  21  25
ENDBRANCH   1  21
TORSDOF 7
ENDMDL
MODEL 8
REMARK VINA RESULT:      -8.5      3.774      5.421
REMARK  Name = 
REMARK  8 active torsions:
REMARK  status: ('A' for Active; 'I' for Inactive)
REMARK    1  A    between atoms: C_1  and  N_2
REMARK    2  A    between atoms: C_6  and  C_7
REMARK    3  A    between atoms: C_7  and  C_8
REMARK    4  A    between atoms: C_8  and  C_9
REMARK    5  A    between atoms: C_13  and  N_14
REMARK    6  A    between atoms: C_17  and  C_18
REMARK    7  A    between atoms: C_19  and  C_20
REMARK    8  A    between atoms: C_20  and  N_21
REMARK                            x       y       z     vdW  Elec       q    Type
REMARK                         _______ _______ _______ _____ _____    ______ ____
ROOT
ATOM      1  C   UNL     1       2.470   7.501  18.906  0.00  0.00    +0.000 A 
ATOM      2  C   UNL     1       2.493   8.277  17.735  0.00  0.00    +0.000 A 
ATOM      3  C   UNL     1       1.844   9.512  17.666  0.00  0.00    +0.000 A 
ATOM      4  C   UNL     1       1.166  10.017  18.776  0.00  0.00    +0.000 A 
ATOM      5  C   UNL     1       1.144   9.306  19.974  0.00  0.00    +0.000 A 
ATOM      6  C   UNL     1       1.796   8.065  20.008  0.00  0.00    +0.000 A 
ENDROOT
BRANCH   5   7
ATOM      7  N   UNL     1       0.475   9.776  21.131  0.00  0.00    +0.000 N 
ATOM      8  C   UNL     1       0.417   8.995  22.345  0.00  0.00    +0.000 C 
ATOM      9  C   UNL     1      -0.407   9.845  23.231  0.00  0.00    +0.000 C 
ATOM     10  C   UNL     1      -0.791  10.979  22.639  0.00  0.00    +0.000 C 
ATOM     11  C   UNL     1      -0.179  10.996  21.286  0.00  0.00    +0.000 C 
ATOM     12  O   UNL     1      -0.280  11.943  20.521  0.00  0.00    +0.000 OA
BRANCH  10  13
ATOM     13  C   UNL     1      -1.548  12.052  23.204  0.00  0.00    +0.000 C 
ATOM     14  C   UNL     1      -2.886  12.049  23.302  0.00  0.00    +0.000 C 
BRANCH  14  15
ATOM     15  C   UNL     1      -3.661  13.111  24.014  0.00  0.00    +0.000 C 
BRANCH  15  16
ATOM     16  N   UNL     1      -3.739  14.329  23.194  0.00  0.00    +0.000 NA
ATOM     17  C   UNL     1      -2.981  15.424  23.819  0.00  0.00    +0.000 C 
ATOM     18  C   UNL     1      -3.951  16.047  24.806  0.00  0.00    +0.000 C 
ATOM     19  C   UNL     1      -5.282  15.966  24.085  0.00  0.00    +0.000 C 
ATOM     20  C   UNL     1      -5.115  14.848  23.064  0.00  0.00    +0.000 C 
ENDBRANCH  15  16
ENDBRANCH  14  15
ENDBRANCH  10  13
ENDBRANCH   5   7
BRANCH   1  21
ATOM     21  C   UNL     1       3.121   6.033  19.005  0.00  0.00    +0.000 C 
ATOM     22  C   UNL     1       3.361   5.267  17.669  0.00  0.00    +0.000 C 
ATOM     23  O   UNL     1       4.781   5.172  17.911  0.00  0.00    +0.000 OA
ATOM     24  C   UNL     1       4.674   5.999  19.085  0.00  0.00    +0.000 C 
BRANCH  21  25
ATOM     25  C   UNL     1       2.455   5.185  20.112  0.00  0.00    +0.000 C 
BRANCH  25  31
ATOM     26  C   UNL     1       4.006   2.443  20.100  0.00  0.00    +0.000 C 
ATOM     27  N   UNL     1       2.653   2.676  19.668  0.00  0.00    +0.000 N 
ATOM     28  C   UNL     1       1.828   1.725  19.147  0.00  0.00    +0.000 A 
ATOM     29  N   UNL     1       0.678   2.272  18.824  0.00  0.00    +0.000 NA
ATOM     30  N   UNL     1       0.759   3.610  19.129  0.00  0.00    +0.000 NA
ATOM     31  C   UNL     1       1.942   3.854  19.657  0.00  0.00    +0.000 A 
ENDBRANCH  25  31
ENDBRANCH  21  25
ENDBRANCH   1  21
TORSDOF 7
ENDMDL
MODEL 9
REMARK VINA RESULT:      -8.4      1.793      2.067
REMARK  Name = 
REMARK  8 active torsions:
REMARK  status: ('A' for Active; 'I' for Inactive)
REMARK    1  A    between atoms: C_1  and  N_2
REMARK    2  A    between atoms: C_6  and  C_7
REMARK    3  A    between atoms: C_7  and  C_8
REMARK    4  A    between atoms: C_8  and  C_9
REMARK    5  A    between atoms: C_13  and  N_14
REMARK    6  A    between atoms: C_17  and  C_18
REMARK    7  A    between atoms: C_19  and  C_20
REMARK    8  A    between atoms: C_20  and  N_21
REMARK                            x       y       z     vdW  Elec       q    Type
REMARK                         _______ _______ _______ _____ _____    ______ ____
ROOT
ATOM      1  C   UNL     1       4.490   4.823  17.179  0.00  0.00    +0.000 A 
ATOM      2  C   UNL     1       3.638   3.718  17.021  0.00  0.00    +0.000 A 
ATOM      3  C   UNL     1       2.332   3.727  17.516  0.00  0.00    +0.000 A 
ATOM      4  C   UNL     1       1.832   4.854  18.170  0.00  0.00    +0.000 A 
ATOM      5  C   UNL     1       2.621   5.992  18.320  0.00  0.00    +0.000 A 
ATOM      6  C   UNL     1       3.931   5.947  17.821  0.00  0.00    +0.000 A 
ENDROOT
BRANCH   5   7
ATOM      7  N   UNL     1       2.160   7.163  18.970  0.00  0.00    +0.000 N 
ATOM      8  C   UNL     1       1.809   7.166  20.371  0.00  0.00    +0.000 C 
ATOM      9  C   UNL     1       1.345   8.554  20.580  0.00  0.00    +0.000 C 
ATOM     10  C   UNL     1       1.408   9.287  19.465  0.00  0.00    +0.000 C 
ATOM     11  C   UNL     1       1.997   8.427  18.407  0.00  0.00    +0.000 C 
ATOM     12  O   UNL     1       2.256   8.834  17.286  0.00  0.00    +0.000 OA
BRANCH  10  13
ATOM     13  C   UNL     1       1.091  10.672  19.305  0.00  0.00    +0.000 C 
ATOM     14  C   UNL     1       1.847  11.533  18.608  0.00  0.00    +0.000 C 
BRANCH  14  15
ATOM     15  C   UNL     1       1.441  12.946  18.331  0.00  0.00    +0.000 C 
BRANCH  15  16
ATOM     16  N   UNL     1       0.573  13.451  19.405  0.00  0.00    +0.000 NA
ATOM     17  C   UNL     1      -0.263  14.559  18.916  0.00  0.00    +0.000 C 
ATOM     18  C   UNL     1       0.609  15.792  19.065  0.00  0.00    +0.000 C 
ATOM     19  C   UNL     1       1.364  15.533  20.354  0.00  0.00    +0.000 C 
ATOM     20  C   UNL     1       1.331  14.021  20.537  0.00  0.00    +0.000 C 
ENDBRANCH  15  16
ENDBRANCH  14  15
ENDBRANCH  10  13
ENDBRANCH   5   7
BRANCH   1  21
ATOM     21  C   UNL     1       6.029   4.826  16.711  0.00  0.00    +0.000 C 
ATOM     22  C   UNL     1       6.741   6.208  16.609  0.00  0.00    +0.000 C 
ATOM     23  O   UNL     1       7.743   5.829  17.577  0.00  0.00    +0.000 OA
ATOM     24  C   UNL     1       7.068   4.585  17.842  0.00  0.00    +0.000 C 
BRANCH  21  25
ATOM     25  C   UNL     1       6.259   3.903  15.493  0.00  0.00    +0.000 C 
BRANCH  25  31
ATOM     26  C   UNL     1       5.821   3.309  12.431  0.00  0.00    +0.000 C 
ATOM     27  N   UNL     1       6.728   4.267  13.007  0.00  0.00    +0.000 N 
ATOM     28  C   UNL     1       7.578   5.060  12.296  0.00  0.00    +0.000 A 
ATOM     29  N   UNL     1       8.290   5.791  13.124  0.00  0.00    +0.000 NA
ATOM     30  N   UNL     1       7.905   5.459  14.401  0.00  0.00    +0.000 NA
ATOM     31  C   UNL     1       6.948   4.554  14.335  0.00  0.00    +0.000 A 
ENDBRANCH  25  31
ENDBRANCH  21  25
ENDBRANCH   1  21
TORSDOF 7
ENDMDL
