MODEL 1
REMARK VINA RESULT:      -8.8      0.000      0.000
REMARK  Name = 
REMARK  3 active torsions:
REMARK  status: ('A' for Active; 'I' for Inactive)
REMARK    1  A    between atoms: C_2  and  C_15
REMARK    2  A    between atoms: N_3  and  C_4
REMARK    3  A    between atoms: C_21  and  C_22
REMARK                            x       y       z     vdW  Elec       q    Type
REMARK                         _______ _______ _______ _____ _____    ______ ____
ROOT
ATOM      1  O   UNL     1       5.123   7.270  18.100  0.00  0.00    +0.000 OA
ATOM      2  C   UNL     1       4.425   6.474  17.491  0.00  0.00    +0.000 C 
ATOM      3  N   UNL     1       3.041   6.452  17.647  0.00  0.00    +0.000 N 
ATOM      4  H   UNL     1       2.556   5.579  17.489  0.00  0.00    +0.000 HD
ENDROOT
BRANCH   3   5
ATOM      5  C   UNL     1       2.396   7.356  18.510  0.00  0.00    +0.000 A 
ATOM      6  C   UNL     1       1.981   8.587  18.021  0.00  0.00    +0.000 A 
ATOM      7  C   UNL     1       1.304   9.466  18.867  0.00  0.00    +0.000 A 
ATOM      8  C   UNL     1       1.138   9.111  20.206  0.00  0.00    +0.000 A 
ATOM      9  N   UNL     1       0.466  10.008  21.077  0.00  0.00    +0.000 N 
ATOM     10  C   UNL     1       0.301   9.868  22.432  0.00  0.00    +0.000 A 
ATOM     11  N   UNL     1      -0.397  10.872  22.915  0.00  0.00    +0.000 NA
ATOM     12  C   UNL     1      -0.646  11.622  21.805  0.00  0.00    +0.000 A 
ATOM     13  N   UNL     1      -0.125  11.162  20.665  0.00  0.00    +0.000 NA
ATOM     14  N   UNL     1       1.586   7.935  20.722  0.00  0.00    +0.000 NA
ATOM     15  C   UNL     1       2.168   7.069  19.854  0.00  0.00    +0.000 A 
ENDBRANCH   3   5
BRANCH   2  16
ATOM     16  C   UNL     1       5.034   5.443  16.582  0.00  0.00    +0.000 A 
ATOM     17  C   UNL     1       5.847   5.902  15.523  0.00  0.00    +0.000 A 
ATOM     18  C   UNL     1       6.395   5.013  14.607  0.00  0.00    +0.000 A 
ATOM     19  F   UNL     1       7.152   5.484  13.609  0.00  0.00    +0.000 F 
ATOM     20  C   UNL     1       6.156   3.660  14.706  0.00  0.00    +0.000 A 
ATOM     21  C   UNL     1       5.354   3.185  15.746  0.00  0.00    +0.000 A 
ATOM     22  C   UNL     1       4.760   4.048  16.706  0.00  0.00    +0.000 A 
BRANCH  22  23
ATOM     23  C   UNL     1       3.884   3.420  17.741  0.00  0.00    +0.000 A 
ATOM     24  C   UNL     1       4.297   3.218  19.069  0.00  0.00    +0.000 A 
ATOM     25  C   UNL     1       3.426   2.701  20.038  0.00  0.00    +0.000 A 
ATOM     26  C   UNL     1       2.140   2.306  19.687  0.00  0.00    +0.000 A 
ATOM     27  C   UNL     1       1.724   2.428  18.367  0.00  0.00    +0.000 A 
ATOM     28  C   UNL     1       2.580   2.991  17.413  0.00  0.00    +0.000 A 
ENDBRANCH  22  23
ENDBRANCH   2  16
TORSDOF 3
ENDMDL
MODEL 2
REMARK VINA RESULT:      -8.5      0.744      1.520
REMARK  Name = 
REMARK  3 active torsions:
REMARK  status: ('A' for Active; 'I' for Inactive)
REMARK    1  A    between atoms: C_2  and  C_15
REMARK    2  A    between atoms: N_3  and  C_4
REMARK    3  A    between atoms: C_21  and  C_22
REMARK                            x       y       z     vdW  Elec       q    Type
REMARK                         _______ _______ _______ _____ _____    ______ ____
ROOT
ATOM      1  O   UNL     1       5.059   7.477  17.920  0.00  0.00    +0.000 OA
ATOM      2  C   UNL     1       4.384   6.606  17.393  0.00  0.00    +0.000 C 
ATOM      3  N   UNL     1       3.005   6.543  17.577  0.00  0.00    +0.000 N 
ATOM      4  H   UNL     1       2.554   5.641  17.500  0.00  0.00    +0.000 HD
ENDROOT
BRANCH   3   5
ATOM      5  C   UNL     1       2.337   7.489  18.375  0.00  0.00    +0.000 A 
ATOM      6  C   UNL     1       2.167   7.237  19.730  0.00  0.00    +0.000 A 
ATOM      7  C   UNL     1       1.542   8.195  20.529  0.00  0.00    +0.000 A 
ATOM      8  C   UNL     1       1.033   9.344  19.923  0.00  0.00    +0.000 A 
ATOM      9  N   UNL     1       0.381  10.314  20.727  0.00  0.00    +0.000 N 
ATOM     10  C   UNL     1      -0.259  11.447  20.290  0.00  0.00    +0.000 A 
ATOM     11  N   UNL     1      -0.725  12.132  21.310  0.00  0.00    +0.000 NA
ATOM     12  C   UNL     1      -0.345  11.374  22.377  0.00  0.00    +0.000 A 
ATOM     13  N   UNL     1       0.306  10.247  22.083  0.00  0.00    +0.000 NA
ATOM     14  N   UNL     1       1.139   9.587  18.588  0.00  0.00    +0.000 NA
ATOM     15  C   UNL     1       1.823   8.673  17.854  0.00  0.00    +0.000 A 
ENDBRANCH   3   5
BRANCH   2  16
ATOM     16  C   UNL     1       5.020   5.528  16.561  0.00  0.00    +0.000 A 
ATOM     17  C   UNL     1       5.881   5.929  15.515  0.00  0.00    +0.000 A 
ATOM     18  C   UNL     1       6.459   4.994  14.667  0.00  0.00    +0.000 A 
ATOM     19  F   UNL     1       7.260   5.410  13.680  0.00  0.00    +0.000 F 
ATOM     20  C   UNL     1       6.202   3.648  14.820  0.00  0.00    +0.000 A 
ATOM     21  C   UNL     1       5.353   3.230  15.846  0.00  0.00    +0.000 A 
ATOM     22  C   UNL     1       4.728   4.142  16.738  0.00  0.00    +0.000 A 
BRANCH  22  23
ATOM     23  C   UNL     1       3.803   3.572  17.764  0.00  0.00    +0.000 A 
ATOM     24  C   UNL     1       2.496   3.152  17.464  0.00  0.00    +0.000 A 
ATOM     25  C   UNL     1       1.680   2.547  18.428  0.00  0.00    +0.000 A 
ATOM     26  C   UNL     1       2.124   2.411  19.739  0.00  0.00    +0.000 A 
ATOM     27  C   UNL     1       3.386   2.879  20.085  0.00  0.00    +0.000 A 
ATOM     28  C   UNL     1       4.216   3.438  19.107  0.00  0.00    +0.000 A 
ENDBRANCH  22  23
ENDBRANCH   2  16
TORSDOF 3
ENDMDL
MODEL 3
REMARK VINA RESULT:      -8.4      1.547      2.539
REMARK  Name = 
REMARK  3 active torsions:
REMARK  status: ('A' for Active; 'I' for Inactive)
REMARK    1  A    between atoms: C_2  and  C_15
REMARK    2  A    between atoms: N_3  and  C_4
REMARK    3  A    between atoms: C_21  and  C_22
REMARK                            x       y       z     vdW  Elec       q    Type
REMARK                         _______ _______ _______ _____ _____    ______ ____
ROOT
ATOM      1  O   UNL     1       1.832   7.676  17.511  0.00  0.00    +0.000 OA
ATOM      2  C   UNL     1       2.587   7.095  18.274  0.00  0.00    +0.000 C 
ATOM      3  N   UNL     1       2.574   7.348  19.644  0.00  0.00    +0.000 N 
ATOM      4  H   UNL     1       3.427   7.198  20.166  0.00  0.00    +0.000 HD
ENDROOT
BRANCH   3   5
ATOM      5  C   UNL     1       1.681   8.282  20.199  0.00  0.00    +0.000 A 
ATOM      6  C   UNL     1       1.081   8.008  21.421  0.00  0.00    +0.000 A 
ATOM      7  C   UNL     1       0.228   8.954  21.990  0.00  0.00    +0.000 A 
ATOM      8  C   UNL     1      -0.061  10.114  21.271  0.00  0.00    +0.000 A 
ATOM      9  N   UNL     1      -0.943  11.072  21.836  0.00  0.00    +0.000 N 
ATOM     10  C   UNL     1      -1.411  12.212  21.233  0.00  0.00    +0.000 A 
ATOM     11  N   UNL     1      -2.184  12.882  22.059  0.00  0.00    +0.000 NA
ATOM     12  C   UNL     1      -2.167  12.105  23.179  0.00  0.00    +0.000 A 
ATOM     13  N   UNL     1      -1.452  10.981  23.093  0.00  0.00    +0.000 NA
ATOM     14  N   UNL     1       0.470  10.378  20.047  0.00  0.00    +0.000 NA
ATOM     15  C   UNL     1       1.358   9.475  19.559  0.00  0.00    +0.000 A 
ENDBRANCH   3   5
BRANCH   2  16
ATOM     16  C   UNL     1       3.605   6.114  17.763  0.00  0.00    +0.000 A 
ATOM     17  C   UNL     1       4.515   6.565  16.782  0.00  0.00    +0.000 A 
ATOM     18  C   UNL     1       5.445   5.702  16.219  0.00  0.00    +0.000 A 
ATOM     19  F   UNL     1       6.284   6.161  15.283  0.00  0.00    +0.000 F 
ATOM     20  C   UNL     1       5.502   4.379  16.601  0.00  0.00    +0.000 A 
ATOM     21  C   UNL     1       4.611   3.912  17.569  0.00  0.00    +0.000 A 
ATOM     22  C   UNL     1       3.632   4.747  18.172  0.00  0.00    +0.000 A 
BRANCH  22  23
ATOM     23  C   UNL     1       2.707   4.115  19.160  0.00  0.00    +0.000 A 
ATOM     24  C   UNL     1       1.470   3.557  18.797  0.00  0.00    +0.000 A 
ATOM     25  C   UNL     1       0.659   2.899  19.732  0.00  0.00    +0.000 A 
ATOM     26  C   UNL     1       1.032   2.845  21.070  0.00  0.00    +0.000 A 
ATOM     27  C   UNL     1       2.216   3.448  21.475  0.00  0.00    +0.000 A 
ATOM     28  C   UNL     1       3.047   4.060  20.529  0.00  0.00    +0.000 A 
ENDBRANCH  22  23
ENDBRANCH   2  16
TORSDOF 3
ENDMDL
MODEL 4
REMARK VINA RESULT:      -8.4      2.691      4.209
REMARK  Name = 
REMARK  3 active torsions:
REMARK  status: ('A' for Active; 'I' for Inactive)
REMARK    1  A    between atoms: C_2  and  C_15
REMARK    2  A    between atoms: N_3  and  C_4
REMARK    3  A    between atoms: C_21  and  C_22
REMARK                            x       y       z     vdW  Elec       q    Type
REMARK                         _______ _______ _______ _____ _____    ______ ____
ROOT
ATOM      1  O   UNL     1       2.571   6.685  20.304  0.00  0.00    +0.000 OA
ATOM      2  C   UNL     1       2.417   6.405  19.125  0.00  0.00    +0.000 C 
ATOM      3  N   UNL     1       2.016   7.364  18.196  0.00  0.00    +0.000 N 
ATOM      4  H   UNL     1       1.511   7.053  17.378  0.00  0.00    +0.000 HD
ENDROOT
BRANCH   3   5
ATOM      5  C   UNL     1       1.778   8.694  18.586  0.00  0.00    +0.000 A 
ATOM      6  C   UNL     1       2.236   9.731  17.784  0.00  0.00    +0.000 A 
ATOM      7  C   UNL     1       1.963  11.049  18.151  0.00  0.00    +0.000 A 
ATOM      8  C   UNL     1       1.308  11.286  19.359  0.00  0.00    +0.000 A 
ATOM      9  N   UNL     1       1.043  12.626  19.746  0.00  0.00    +0.000 N 
ATOM     10  C   UNL     1       0.501  13.044  20.936  0.00  0.00    +0.000 A 
ATOM     11  N   UNL     1       0.369  14.352  20.943  0.00  0.00    +0.000 NA
ATOM     12  C   UNL     1       0.850  14.707  19.719  0.00  0.00    +0.000 A 
ATOM     13  N   UNL     1       1.298  13.705  18.960  0.00  0.00    +0.000 NA
ATOM     14  N   UNL     1       0.900  10.289  20.189  0.00  0.00    +0.000 NA
ATOM     15  C   UNL     1       1.109   9.017  19.764  0.00  0.00    +0.000 A 
ENDBRANCH   3   5
BRANCH   2  16
ATOM     16  C   UNL     1       2.605   5.000  18.629  0.00  0.00    +0.000 A 
ATOM     17  C   UNL     1       1.503   4.121  18.716  0.00  0.00    +0.000 A 
ATOM     18  C   UNL     1       1.618   2.791  18.333  0.00  0.00    +0.000 A 
ATOM     19  F   UNL     1       0.556   1.984  18.440  0.00  0.00    +0.000 F 
ATOM     20  C   UNL     1       2.812   2.293  17.860  0.00  0.00    +0.000 A 
ATOM     21  C   UNL     1       3.915   3.144  17.766  0.00  0.00    +0.000 A 
ATOM     22  C   UNL     1       3.859   4.511  18.152  0.00  0.00    +0.000 A 
BRANCH  22  23
ATOM     23  C   UNL     1       5.121   5.304  18.048  0.00  0.00    +0.000 A 
ATOM     24  C   UNL     1       5.340   6.258  17.039  0.00  0.00    +0.000 A 
ATOM     25  C   UNL     1       6.500   7.044  17.014  0.00  0.00    +0.000 A 
ATOM     26  C   UNL     1       7.503   6.847  17.956  0.00  0.00    +0.000 A 
ATOM     27  C   UNL     1       7.347   5.864  18.925  0.00  0.00    +0.000 A 
ATOM     28  C   UNL     1       6.166   5.116  18.977  0.00  0.00    +0.000 A 
ENDBRANCH  22  23
ENDBRANCH   2  16
TORSDOF 3
ENDMDL
MODEL 5
REMARK VINA RESULT:      -8.4      2.785      4.350
REMARK  Name = 
REMARK  3 active torsions:
REMARK  status: ('A' for Active; 'I' for Inactive)
REMARK    1  A    between atoms: C_2  and  C_15
REMARK    2  A    between atoms: N_3  and  C_4
REMARK    3  A    between atoms: C_21  and  C_22
REMARK                            x       y       z     vdW  Elec       q    Type
REMARK                         _______ _______ _______ _____ _____    ______ ____
ROOT
ATOM      1  O   UNL     1       2.618   6.724  20.273  0.00  0.00    +0.000 OA
ATOM      2  C   UNL     1       2.424   6.436  19.102  0.00  0.00    +0.000 C 
ATOM      3  N   UNL     1       1.987   7.386  18.182  0.00  0.00    +0.000 N 
ATOM      4  H   UNL     1       1.454   7.068  17.384  0.00  0.00    +0.000 HD
ENDROOT
BRANCH   3   5
ATOM      5  C   UNL     1       1.760   8.719  18.570  0.00  0.00    +0.000 A 
ATOM      6  C   UNL     1       1.039   8.977  19.729  0.00  0.00    +0.000 A 
ATOM      7  C   UNL     1       0.851  10.298  20.136  0.00  0.00    +0.000 A 
ATOM      8  C   UNL     1       1.326  11.325  19.319  0.00  0.00    +0.000 A 
ATOM      9  N   UNL     1       1.122  12.671  19.719  0.00  0.00    +0.000 N 
ATOM     10  C   UNL     1       1.432  13.797  18.998  0.00  0.00    +0.000 A 
ATOM     11  N   UNL     1       1.135  14.877  19.685  0.00  0.00    +0.000 NA
ATOM     12  C   UNL     1       0.634  14.364  20.844  0.00  0.00    +0.000 A 
ATOM     13  N   UNL     1       0.577  13.032  20.911  0.00  0.00    +0.000 NA
ATOM     14  N   UNL     1       1.985  11.097  18.151  0.00  0.00    +0.000 NA
ATOM     15  C   UNL     1       2.222   9.801  17.826  0.00  0.00    +0.000 A 
ENDBRANCH   3   5
BRANCH   2  16
ATOM     16  C   UNL     1       2.597   5.027  18.610  0.00  0.00    +0.000 A 
ATOM     17  C   UNL     1       1.481   4.165  18.681  0.00  0.00    +0.000 A 
ATOM     18  C   UNL     1       1.580   2.833  18.300  0.00  0.00    +0.000 A 
ATOM     19  F   UNL     1       0.505   2.043  18.392  0.00  0.00    +0.000 F 
ATOM     20  C   UNL     1       2.774   2.316  17.846  0.00  0.00    +0.000 A 
ATOM     21  C   UNL     1       3.891   3.150  17.769  0.00  0.00    +0.000 A 
ATOM     22  C   UNL     1       3.850   4.518  18.153  0.00  0.00    +0.000 A 
BRANCH  22  23
ATOM     23  C   UNL     1       5.126   5.291  18.068  0.00  0.00    +0.000 A 
ATOM     24  C   UNL     1       5.381   6.231  17.055  0.00  0.00    +0.000 A 
ATOM     25  C   UNL     1       6.553   7.000  17.046  0.00  0.00    +0.000 A 
ATOM     26  C   UNL     1       7.533   6.798  18.011  0.00  0.00    +0.000 A 
ATOM     27  C   UNL     1       7.341   5.828  18.987  0.00  0.00    +0.000 A 
ATOM     28  C   UNL     1       6.148   5.097  19.021  0.00  0.00    +0.000 A 
ENDBRANCH  22  23
ENDBRANCH   2  16
TORSDOF 3
ENDMDL
MODEL 6
REMARK VINA RESULT:      -8.4      2.034      2.694
REMARK  Name = 
REMARK  3 active torsions:
REMARK  status: ('A' for Active; 'I' for Inactive)
REMARK    1  A    between atoms: C_2  and  C_15
REMARK    2  A    between atoms: N_3  and  C_4
REMARK    3  A    between atoms: C_21  and  C_22
REMARK                            x       y       z     vdW  Elec       q    Type
REMARK                         _______ _______ _______ _____ _____    ______ ____
ROOT
ATOM      1  O   UNL     1       2.713   7.272  19.387  0.00  0.00    +0.000 OA
ATOM      2  C   UNL     1       2.967   7.310  18.193  0.00  0.00    +0.000 C 
ATOM      3  N   UNL     1       2.485   8.333  17.379  0.00  0.00    +0.000 N 
ATOM      4  H   UNL     1       2.346   8.137  16.397  0.00  0.00    +0.000 HD
ENDROOT
BRANCH   3   5
ATOM      5  C   UNL     1       1.692   9.366  17.909  0.00  0.00    +0.000 A 
ATOM      6  C   UNL     1       0.316   9.195  17.989  0.00  0.00    +0.000 A 
ATOM      7  C   UNL     1      -0.466  10.203  18.553  0.00  0.00    +0.000 A 
ATOM      8  C   UNL     1       0.153  11.390  18.946  0.00  0.00    +0.000 A 
ATOM      9  N   UNL     1      -0.639  12.427  19.505  0.00  0.00    +0.000 N 
ATOM     10  C   UNL     1      -0.217  13.686  19.852  0.00  0.00    +0.000 A 
ATOM     11  N   UNL     1      -1.210  14.375  20.368  0.00  0.00    +0.000 NA
ATOM     12  C   UNL     1      -2.244  13.490  20.319  0.00  0.00    +0.000 A 
ATOM     13  N   UNL     1      -1.964  12.301  19.781  0.00  0.00    +0.000 NA
ATOM     14  N   UNL     1       1.491  11.603  18.825  0.00  0.00    +0.000 NA
ATOM     15  C   UNL     1       2.233  10.572  18.347  0.00  0.00    +0.000 A 
ENDBRANCH   3   5
BRANCH   2  16
ATOM     16  C   UNL     1       3.770   6.224  17.534  0.00  0.00    +0.000 A 
ATOM     17  C   UNL     1       4.643   6.596  16.489  0.00  0.00    +0.000 A 
ATOM     18  C   UNL     1       5.373   5.641  15.794  0.00  0.00    +0.000 A 
ATOM     19  F   UNL     1       6.182   6.029  14.802  0.00  0.00    +0.000 F 
ATOM     20  C   UNL     1       5.260   4.303  16.103  0.00  0.00    +0.000 A 
ATOM     21  C   UNL     1       4.402   3.913  17.133  0.00  0.00    +0.000 A 
ATOM     22  C   UNL     1       3.624   4.844  17.872  0.00  0.00    +0.000 A 
BRANCH  22  23
ATOM     23  C   UNL     1       2.708   4.295  18.916  0.00  0.00    +0.000 A 
ATOM     24  C   UNL     1       1.405   3.852  18.631  0.00  0.00    +0.000 A 
ATOM     25  C   UNL     1       0.597   3.267  19.615  0.00  0.00    +0.000 A 
ATOM     26  C   UNL     1       1.045   3.175  20.928  0.00  0.00    +0.000 A 
ATOM     27  C   UNL     1       2.302   3.668  21.258  0.00  0.00    +0.000 A 
ATOM     28  C   UNL     1       3.124   4.206  20.261  0.00  0.00    +0.000 A 
ENDBRANCH  22  23
ENDBRANCH   2  16
TORSDOF 3
ENDMDL
MODEL 7
REMARK VINA RESULT:      -8.3      1.108      1.517
REMARK  Name = 
REMARK  3 active torsions:
REMARK  status: ('A' for Active; 'I' for Inactive)
REMARK    1  A    between atoms: C_2  and  C_15
REMARK    2  A    between atoms: N_3  and  C_4
REMARK    3  A    between atoms: C_21  and  C_22
REMARK                            x       y       z     vdW  Elec       q    Type
REMARK                         _______ _______ _______ _____ _____    ______ ____
ROOT
ATOM      1  O   UNL     1       4.759   7.769  18.055  0.00  0.00    +0.000 OA
ATOM      2  C   UNL     1       4.039   6.900  17.588  0.00  0.00    +0.000 C 
ATOM      3  N   UNL     1       2.656   6.931  17.760  0.00  0.00    +0.000 N 
ATOM      4  H   UNL     1       2.154   6.054  17.748  0.00  0.00    +0.000 HD
ENDROOT
BRANCH   3   5
ATOM      5  C   UNL     1       2.040   7.973  18.477  0.00  0.00    +0.000 A 
ATOM      6  C   UNL     1       1.818   7.823  19.840  0.00  0.00    +0.000 A 
ATOM      7  C   UNL     1       1.245   8.873  20.557  0.00  0.00    +0.000 A 
ATOM      8  C   UNL     1       0.837  10.014  19.865  0.00  0.00    +0.000 A 
ATOM      9  N   UNL     1       0.238  11.079  20.586  0.00  0.00    +0.000 N 
ATOM     10  C   UNL     1      -0.306  12.223  20.059  0.00  0.00    +0.000 A 
ATOM     11  N   UNL     1      -0.746  13.005  21.020  0.00  0.00    +0.000 NA
ATOM     12  C   UNL     1      -0.449  12.293  22.143  0.00  0.00    +0.000 A 
ATOM     13  N   UNL     1       0.124  11.105  21.941  0.00  0.00    +0.000 NA
ATOM     14  N   UNL     1       0.994  10.160  18.521  0.00  0.00    +0.000 NA
ATOM     15  C   UNL     1       1.628   9.154  17.867  0.00  0.00    +0.000 A 
ENDBRANCH   3   5
BRANCH   2  16
ATOM     16  C   UNL     1       4.616   5.727  16.847  0.00  0.00    +0.000 A 
ATOM     17  C   UNL     1       5.501   5.996  15.779  0.00  0.00    +0.000 A 
ATOM     18  C   UNL     1       6.027   4.967  15.011  0.00  0.00    +0.000 A 
ATOM     19  F   UNL     1       6.853   5.260  14.000  0.00  0.00    +0.000 F 
ATOM     20  C   UNL     1       5.696   3.654  15.267  0.00  0.00    +0.000 A 
ATOM     21  C   UNL     1       4.822   3.365  16.317  0.00  0.00    +0.000 A 
ATOM     22  C   UNL     1       4.246   4.378  17.131  0.00  0.00    +0.000 A 
BRANCH  22  23
ATOM     23  C   UNL     1       3.289   3.942  18.192  0.00  0.00    +0.000 A 
ATOM     24  C   UNL     1       3.596   3.989  19.562  0.00  0.00    +0.000 A 
ATOM     25  C   UNL     1       2.650   3.650  20.538  0.00  0.00    +0.000 A 
ATOM     26  C   UNL     1       1.393   3.185  20.167  0.00  0.00    +0.000 A 
ATOM     27  C   UNL     1       1.082   3.060  18.818  0.00  0.00    +0.000 A 
ATOM     28  C   UNL     1       2.013   3.448  17.848  0.00  0.00    +0.000 A 
ENDBRANCH  22  23
ENDBRANCH   2  16
TORSDOF 3
ENDMDL
MODEL 8
REMARK VINA RESULT:      -8.2      1.540      2.010
REMARK  Name = 
REMARK  3 active torsions:
REMARK  status: ('A' for Active; 'I' for Inactive)
REMARK    1  A    between atoms: C_2  and  C_15
REMARK    2  A    between atoms: N_3  and  C_4
REMARK    3  A    between atoms: C_21  and  C_22
REMARK                            x       y       z     vdW  Elec       q    Type
REMARK                         _______ _______ _______ _____ _____    ______ ____
ROOT
ATOM      1  O   UNL     1       1.775   7.494  17.502  0.00  0.00    +0.000 OA
ATOM      2  C   UNL     1       2.597   6.988  18.250  0.00  0.00    +0.000 C 
ATOM      3  N   UNL     1       2.651   7.319  19.603  0.00  0.00    +0.000 N 
ATOM      4  H   UNL     1       3.538   7.233  20.080  0.00  0.00    +0.000 HD
ENDROOT
BRANCH   3   5
ATOM      5  C   UNL     1       1.751   8.247  20.157  0.00  0.00    +0.000 A 
ATOM      6  C   UNL     1       1.341   9.335  19.397  0.00  0.00    +0.000 A 
ATOM      7  C   UNL     1       0.417  10.232  19.932  0.00  0.00    +0.000 A 
ATOM      8  C   UNL     1      -0.006  10.052  21.249  0.00  0.00    +0.000 A 
ATOM      9  N   UNL     1      -0.933  10.971  21.805  0.00  0.00    +0.000 N 
ATOM     10  C   UNL     1      -1.379  11.003  23.103  0.00  0.00    +0.000 A 
ATOM     11  N   UNL     1      -2.256  11.969  23.262  0.00  0.00    +0.000 NA
ATOM     12  C   UNL     1      -2.323  12.518  22.016  0.00  0.00    +0.000 A 
ATOM     13  N   UNL     1      -1.524  11.971  21.098  0.00  0.00    +0.000 NA
ATOM     14  N   UNL     1       0.424   9.026  22.032  0.00  0.00    +0.000 NA
ATOM     15  C   UNL     1       1.261   8.126  21.454  0.00  0.00    +0.000 A 
ENDBRANCH   3   5
BRANCH   2  16
ATOM     16  C   UNL     1       3.625   6.020  17.735  0.00  0.00    +0.000 A 
ATOM     17  C   UNL     1       4.515   6.478  16.738  0.00  0.00    +0.000 A 
ATOM     18  C   UNL     1       5.453   5.626  16.171  0.00  0.00    +0.000 A 
ATOM     19  F   UNL     1       6.272   6.091  15.221  0.00  0.00    +0.000 F 
ATOM     20  C   UNL     1       5.537   4.308  16.564  0.00  0.00    +0.000 A 
ATOM     21  C   UNL     1       4.666   3.833  17.547  0.00  0.00    +0.000 A 
ATOM     22  C   UNL     1       3.681   4.657  18.155  0.00  0.00    +0.000 A 
BRANCH  22  23
ATOM     23  C   UNL     1       2.779   4.018  19.160  0.00  0.00    +0.000 A 
ATOM     24  C   UNL     1       3.107   3.915  20.522  0.00  0.00    +0.000 A 
ATOM     25  C   UNL     1       2.206   3.383  21.455  0.00  0.00    +0.000 A 
ATOM     26  C   UNL     1       0.982   2.873  21.038  0.00  0.00    +0.000 A 
ATOM     27  C   UNL     1       0.656   2.896  19.688  0.00  0.00    +0.000 A 
ATOM     28  C   UNL     1       1.538   3.474  18.766  0.00  0.00    +0.000 A 
ENDBRANCH  22  23
ENDBRANCH   2  16
TORSDOF 3
ENDMDL
MODEL 9
REMARK VINA RESULT:      -8.1      1.887      2.511
REMARK  Name = 
REMARK  3 active torsions:
REMARK  status: ('A' for Active; 'I' for Inactive)
REMARK    1  A    between atoms: C_2  and  C_15
REMARK    2  A    between atoms: N_3  and  C_4
REMARK    3  A    between atoms: C_21  and  C_22
REMARK                            x       y       z     vdW  Elec       q    Type
REMARK                         _______ _______ _______ _____ _____    ______ ____
ROOT
ATOM      1  O   UNL     1       2.195   7.070  19.731  0.00  0.00    +0.000 OA
ATOM      2  C   UNL     1       2.535   7.286  18.578  0.00  0.00    +0.000 C 
ATOM      3  N   UNL     1       2.040   8.376  17.865  0.00  0.00    +0.000 N 
ATOM      4  H   UNL     1       1.991   8.305  16.858  0.00  0.00    +0.000 HD
ENDROOT
BRANCH   3   5
ATOM      5  C   UNL     1       1.132   9.274  18.455  0.00  0.00    +0.000 A 
ATOM      6  C   UNL     1      -0.034   9.607  17.777  0.00  0.00    +0.000 A 
ATOM      7  C   UNL     1      -0.954  10.464  18.381  0.00  0.00    +0.000 A 
ATOM      8  C   UNL     1      -0.634  11.026  19.617  0.00  0.00    +0.000 A 
ATOM      9  N   UNL     1      -1.557  11.913  20.228  0.00  0.00    +0.000 N 
ATOM     10  C   UNL     1      -1.367  12.627  21.385  0.00  0.00    +0.000 A 
ATOM     11  N   UNL     1      -2.443  13.325  21.675  0.00  0.00    +0.000 NA
ATOM     12  C   UNL     1      -3.287  13.008  20.653  0.00  0.00    +0.000 A 
ATOM     13  N   UNL     1      -2.796  12.177  19.732  0.00  0.00    +0.000 NA
ATOM     14  N   UNL     1       0.527  10.759  20.274  0.00  0.00    +0.000 NA
ATOM     15  C   UNL     1       1.362   9.859  19.697  0.00  0.00    +0.000 A 
ENDBRANCH   3   5
BRANCH   2  16
ATOM     16  C   UNL     1       3.466   6.354  17.855  0.00  0.00    +0.000 A 
ATOM     17  C   UNL     1       4.266   6.895  16.825  0.00  0.00    +0.000 A 
ATOM     18  C   UNL     1       5.106   6.085  16.073  0.00  0.00    +0.000 A 
ATOM     19  F   UNL     1       5.841   6.630  15.096  0.00  0.00    +0.000 F 
ATOM     20  C   UNL     1       5.179   4.729  16.311  0.00  0.00    +0.000 A 
ATOM     21  C   UNL     1       4.396   4.174  17.324  0.00  0.00    +0.000 A 
ATOM     22  C   UNL     1       3.512   4.952  18.119  0.00  0.00    +0.000 A 
BRANCH  22  23
ATOM     23  C   UNL     1       2.694   4.230  19.140  0.00  0.00    +0.000 A 
ATOM     24  C   UNL     1       3.137   4.010  20.455  0.00  0.00    +0.000 A 
ATOM     25  C   UNL     1       2.316   3.401  21.413  0.00  0.00    +0.000 A 
ATOM     26  C   UNL     1       1.055   2.932  21.062  0.00  0.00    +0.000 A 
ATOM     27  C   UNL     1       0.614   3.072  19.752  0.00  0.00    +0.000 A 
ATOM     28  C   UNL     1       1.418   3.725  18.811  0.00  0.00    +0.000 A 
ENDBRANCH  22  23
ENDBRANCH   2  16
TORSDOF 3
ENDMDL
