MODEL 1
REMARK VINA RESULT:      -8.4      0.000      0.000
REMARK  Name = 
REMARK  7 active torsions:
REMARK  status: ('A' for Active; 'I' for Inactive)
REMARK    1  A    between atoms: C_1  and  C_2
REMARK    2  A    between atoms: C_2  and  N_3
REMARK    3  A    between atoms: C_2  and  C_22
REMARK    4  A    between atoms: C_4  and  C_6
REMARK    5  A    between atoms: C_10  and  N_11
REMARK    6  A    between atoms: N_11  and  S_12
REMARK    7  A    between atoms: S_12  and  C_15
REMARK                            x       y       z     vdW  Elec       q    Type
REMARK                         _______ _______ _______ _____ _____    ______ ____
ROOT
ATOM      1  C   UNL     1       2.514   7.518  18.470  0.00  0.00    +0.000 A 
ATOM      2  C   UNL     1       2.334   6.931  19.730  0.00  0.00    +0.000 A 
ATOM      3  C   UNL     1       2.785   5.631  19.960  0.00  0.00    +0.000 A 
ATOM      4  C   UNL     1       3.406   4.917  18.934  0.00  0.00    +0.000 A 
ATOM      5  C   UNL     1       3.608   5.514  17.688  0.00  0.00    +0.000 A 
ATOM      6  C   UNL     1       3.173   6.815  17.455  0.00  0.00    +0.000 A 
ENDROOT
BRANCH   1   8
ATOM      7  N   UNL     1       1.172   9.455  19.086  0.00  0.00    +0.000 N 
ATOM      8  C   UNL     1       2.044   8.896  18.176  0.00  0.00    +0.000 C 
ATOM      9  O   UNL     1       2.418   9.457  17.152  0.00  0.00    +0.000 OA
ATOM     10  H   UNL     1       0.829   8.911  19.864  0.00  0.00    +0.000 HD
BRANCH   7  12
ATOM     11  C   UNL     1       0.887  11.663  20.137  0.00  0.00    +0.000 C 
ATOM     12  C   UNL     1       0.648  10.799  18.898  0.00  0.00    +0.000 C 
BRANCH  12  13
ATOM     13  C   UNL     1      -0.822  10.762  18.512  0.00  0.00    +0.000 A 
ATOM     14  C   UNL     1      -1.246   9.879  17.502  0.00  0.00    +0.000 A 
ATOM     15  C   UNL     1      -2.577   9.859  17.083  0.00  0.00    +0.000 A 
ATOM     16  C   UNL     1      -3.494  10.713  17.680  0.00  0.00    +0.000 A 
ATOM     17  F   UNL     1      -4.769  10.704  17.269  0.00  0.00    +0.000 F 
ATOM     18  C   UNL     1      -3.107  11.580  18.695  0.00  0.00    +0.000 A 
ATOM     19  C   UNL     1      -1.774  11.604  19.114  0.00  0.00    +0.000 A 
ENDBRANCH  12  13
ENDBRANCH   7  12
ENDBRANCH   1   8
BRANCH   5  20
ATOM     20  N   UNL     1       4.247   4.775  16.661  0.00  0.00    +0.000 N 
ATOM     21  H   UNL     1       4.325   3.765  16.764  0.00  0.00    +0.000 HD
BRANCH  20  22
ATOM     22  S   UNL     1       5.521   5.467  15.801  0.00  0.00    +0.000 S 
ATOM     23  O   UNL     1       6.118   4.390  15.035  0.00  0.00    +0.000 OA
ATOM     24  O   UNL     1       5.062   6.676  15.156  0.00  0.00    +0.000 OA
BRANCH  22  25
ATOM     25  C   UNL     1       6.702   5.922  17.059  0.00  0.00    +0.000 A 
ATOM     26  C   UNL     1       7.152   7.247  17.130  0.00  0.00    +0.000 A 
ATOM     27  C   UNL     1       7.972   7.646  18.186  0.00  0.00    +0.000 A 
ATOM     28  C   UNL     1       8.331   6.728  19.175  0.00  0.00    +0.000 A 
ATOM     29  C   UNL     1       7.881   5.408  19.103  0.00  0.00    +0.000 A 
ATOM     30  C   UNL     1       7.060   5.000  18.048  0.00  0.00    +0.000 A 
ENDBRANCH  22  25
ENDBRANCH  20  22
ENDBRANCH   5  20
TORSDOF 6
ENDMDL
MODEL 2
REMARK VINA RESULT:      -8.3      2.008      2.922
REMARK  Name = 
REMARK  7 active torsions:
REMARK  status: ('A' for Active; 'I' for Inactive)
REMARK    1  A    between atoms: C_1  and  C_2
REMARK    2  A    between atoms: C_2  and  N_3
REMARK    3  A    between atoms: C_2  and  C_22
REMARK    4  A    between atoms: C_4  and  C_6
REMARK    5  A    between atoms: C_10  and  N_11
REMARK    6  A    between atoms: N_11  and  S_12
REMARK    7  A    between atoms: S_12  and  C_15
REMARK                            x       y       z     vdW  Elec       q    Type
REMARK                         _______ _______ _______ _____ _____    ______ ____
ROOT
ATOM      1  C   UNL     1       2.567   7.566  18.537  0.00  0.00    +0.000 A 
ATOM      2  C   UNL     1       2.308   6.872  19.727  0.00  0.00    +0.000 A 
ATOM      3  C   UNL     1       2.789   5.573  19.890  0.00  0.00    +0.000 A 
ATOM      4  C   UNL     1       3.519   4.966  18.867  0.00  0.00    +0.000 A 
ATOM      5  C   UNL     1       3.799   5.669  17.694  0.00  0.00    +0.000 A 
ATOM      6  C   UNL     1       3.334   6.971  17.529  0.00  0.00    +0.000 A 
ENDROOT
BRANCH   1   8
ATOM      7  N   UNL     1       1.237   9.465  19.285  0.00  0.00    +0.000 N 
ATOM      8  C   UNL     1       2.069   8.948  18.315  0.00  0.00    +0.000 C 
ATOM      9  O   UNL     1       2.388   9.548  17.294  0.00  0.00    +0.000 OA
ATOM     10  H   UNL     1       0.938   8.890  20.059  0.00  0.00    +0.000 HD
BRANCH   7  12
ATOM     11  C   UNL     1       0.774  11.554  20.503  0.00  0.00    +0.000 C 
ATOM     12  C   UNL     1       0.691  10.808  19.170  0.00  0.00    +0.000 C 
BRANCH  12  13
ATOM     13  C   UNL     1      -0.730  10.775  18.631  0.00  0.00    +0.000 A 
ATOM     14  C   UNL     1      -1.699  11.625  19.195  0.00  0.00    +0.000 A 
ATOM     15  C   UNL     1      -3.026  11.581  18.762  0.00  0.00    +0.000 A 
ATOM     16  C   UNL     1      -3.388  10.696  17.756  0.00  0.00    +0.000 A 
ATOM     17  F   UNL     1      -4.663  10.644  17.351  0.00  0.00    +0.000 F 
ATOM     18  C   UNL     1      -2.446   9.861  17.167  0.00  0.00    +0.000 A 
ATOM     19  C   UNL     1      -1.118   9.901  17.600  0.00  0.00    +0.000 A 
ENDBRANCH  12  13
ENDBRANCH   7  12
ENDBRANCH   1   8
BRANCH   5  20
ATOM     20  N   UNL     1       4.547   5.039  16.669  0.00  0.00    +0.000 N 
ATOM     21  H   UNL     1       4.357   4.061  16.458  0.00  0.00    +0.000 HD
BRANCH  20  22
ATOM     22  S   UNL     1       6.152   5.485  16.409  0.00  0.00    +0.000 S 
ATOM     23  O   UNL     1       6.154   6.932  16.314  0.00  0.00    +0.000 OA
ATOM     24  O   UNL     1       7.000   4.797  17.356  0.00  0.00    +0.000 OA
BRANCH  22  25
ATOM     25  C   UNL     1       6.520   4.861  14.778  0.00  0.00    +0.000 A 
ATOM     26  C   UNL     1       5.653   3.933  14.186  0.00  0.00    +0.000 A 
ATOM     27  C   UNL     1       5.857   3.538  12.864  0.00  0.00    +0.000 A 
ATOM     28  C   UNL     1       6.916   4.075  12.131  0.00  0.00    +0.000 A 
ATOM     29  C   UNL     1       7.780   5.000  12.722  0.00  0.00    +0.000 A 
ATOM     30  C   UNL     1       7.583   5.400  14.046  0.00  0.00    +0.000 A 
ENDBRANCH  22  25
ENDBRANCH  20  22
ENDBRANCH   5  20
TORSDOF 6
ENDMDL
MODEL 3
REMARK VINA RESULT:      -8.1      2.786      3.740
REMARK  Name = 
REMARK  7 active torsions:
REMARK  status: ('A' for Active; 'I' for Inactive)
REMARK    1  A    between atoms: C_1  and  C_2
REMARK    2  A    between atoms: C_2  and  N_3
REMARK    3  A    between atoms: C_2  and  C_22
REMARK    4  A    between atoms: C_4  and  C_6
REMARK    5  A    between atoms: C_10  and  N_11
REMARK    6  A    between atoms: N_11  and  S_12
REMARK    7  A    between atoms: S_12  and  C_15
REMARK                            x       y       z     vdW  Elec       q    Type
REMARK                         _______ _______ _______ _____ _____    ______ ____
ROOT
ATOM      1  C   UNL     1       2.800   7.080  18.515  0.00  0.00    +0.000 A 
ATOM      2  C   UNL     1       2.665   6.428  19.748  0.00  0.00    +0.000 A 
ATOM      3  C   UNL     1       3.295   5.201  19.956  0.00  0.00    +0.000 A 
ATOM      4  C   UNL     1       4.050   4.623  18.934  0.00  0.00    +0.000 A 
ATOM      5  C   UNL     1       4.205   5.288  17.716  0.00  0.00    +0.000 A 
ATOM      6  C   UNL     1       3.591   6.519  17.505  0.00  0.00    +0.000 A 
ENDROOT
BRANCH   1   8
ATOM      7  N   UNL     1       1.419   8.934  19.282  0.00  0.00    +0.000 N 
ATOM      8  C   UNL     1       2.141   8.384  18.244  0.00  0.00    +0.000 C 
ATOM      9  O   UNL     1       2.241   8.893  17.133  0.00  0.00    +0.000 OA
ATOM     10  H   UNL     1       1.299   8.425  20.145  0.00  0.00    +0.000 HD
BRANCH   7  12
ATOM     11  C   UNL     1       1.712  11.320  18.748  0.00  0.00    +0.000 C 
ATOM     12  C   UNL     1       0.733  10.208  19.129  0.00  0.00    +0.000 C 
BRANCH  12  13
ATOM     13  C   UNL     1      -0.056  10.556  20.380  0.00  0.00    +0.000 A 
ATOM     14  C   UNL     1      -0.912  11.673  20.364  0.00  0.00    +0.000 A 
ATOM     15  C   UNL     1      -1.610  12.055  21.512  0.00  0.00    +0.000 A 
ATOM     16  C   UNL     1      -1.465  11.315  22.677  0.00  0.00    +0.000 A 
ATOM     17  F   UNL     1      -2.123  11.689  23.782  0.00  0.00    +0.000 F 
ATOM     18  C   UNL     1      -0.642  10.195  22.715  0.00  0.00    +0.000 A 
ATOM     19  C   UNL     1       0.059   9.813  21.568  0.00  0.00    +0.000 A 
ENDBRANCH  12  13
ENDBRANCH   7  12
ENDBRANCH   1   8
BRANCH   5  20
ATOM     20  N   UNL     1       4.982   4.688  16.693  0.00  0.00    +0.000 N 
ATOM     21  H   UNL     1       4.933   3.679  16.572  0.00  0.00    +0.000 HD
BRANCH  20  22
ATOM     22  S   UNL     1       6.480   5.345  16.286  0.00  0.00    +0.000 S 
ATOM     23  O   UNL     1       6.287   6.781  16.235  0.00  0.00    +0.000 OA
ATOM     24  O   UNL     1       7.503   4.758  17.122  0.00  0.00    +0.000 OA
BRANCH  22  25
ATOM     25  C   UNL     1       6.755   4.801  14.608  0.00  0.00    +0.000 A 
ATOM     26  C   UNL     1       5.919   3.819  14.060  0.00  0.00    +0.000 A 
ATOM     27  C   UNL     1       6.039   3.481  12.712  0.00  0.00    +0.000 A 
ATOM     28  C   UNL     1       6.980   4.128  11.911  0.00  0.00    +0.000 A 
ATOM     29  C   UNL     1       7.813   5.108  12.459  0.00  0.00    +0.000 A 
ATOM     30  C   UNL     1       7.700   5.452  13.808  0.00  0.00    +0.000 A 
ENDBRANCH  22  25
ENDBRANCH  20  22
ENDBRANCH   5  20
TORSDOF 6
ENDMDL
MODEL 4
REMARK VINA RESULT:      -8.1      2.974      4.164
REMARK  Name = 
REMARK  7 active torsions:
REMARK  status: ('A' for Active; 'I' for Inactive)
REMARK    1  A    between atoms: C_1  and  C_2
REMARK    2  A    between atoms: C_2  and  N_3
REMARK    3  A    between atoms: C_2  and  C_22
REMARK    4  A    between atoms: C_4  and  C_6
REMARK    5  A    between atoms: C_10  and  N_11
REMARK    6  A    between atoms: N_11  and  S_12
REMARK    7  A    between atoms: S_12  and  C_15
REMARK                            x       y       z     vdW  Elec       q    Type
REMARK                         _______ _______ _______ _____ _____    ______ ____
ROOT
ATOM      1  C   UNL     1       2.455   8.140  18.479  0.00  0.00    +0.000 A 
ATOM      2  C   UNL     1       3.234   7.625  17.434  0.00  0.00    +0.000 A 
ATOM      3  C   UNL     1       3.829   6.370  17.567  0.00  0.00    +0.000 A 
ATOM      4  C   UNL     1       3.654   5.636  18.741  0.00  0.00    +0.000 A 
ATOM      5  C   UNL     1       2.856   6.139  19.769  0.00  0.00    +0.000 A 
ATOM      6  C   UNL     1       2.247   7.385  19.640  0.00  0.00    +0.000 A 
ENDROOT
BRANCH   1   8
ATOM      7  N   UNL     1       0.849   9.758  19.337  0.00  0.00    +0.000 N 
ATOM      8  C   UNL     1       1.808   9.474  18.388  0.00  0.00    +0.000 C 
ATOM      9  O   UNL     1       2.123  10.238  17.483  0.00  0.00    +0.000 OA
ATOM     10  H   UNL     1       0.567   9.053  20.003  0.00  0.00    +0.000 HD
BRANCH   7  12
ATOM     11  C   UNL     1      -0.014  11.567  20.767  0.00  0.00    +0.000 C 
ATOM     12  C   UNL     1       0.150  11.033  19.343  0.00  0.00    +0.000 C 
BRANCH  12  13
ATOM     13  C   UNL     1      -1.185  10.927  18.624  0.00  0.00    +0.000 A 
ATOM     14  C   UNL     1      -2.245  11.765  19.016  0.00  0.00    +0.000 A 
ATOM     15  C   UNL     1      -3.501  11.656  18.416  0.00  0.00    +0.000 A 
ATOM     16  C   UNL     1      -3.701  10.718  17.414  0.00  0.00    +0.000 A 
ATOM     17  F   UNL     1      -4.909  10.604  16.848  0.00  0.00    +0.000 F 
ATOM     18  C   UNL     1      -2.664   9.892  16.992  0.00  0.00    +0.000 A 
ATOM     19  C   UNL     1      -1.408   9.997  17.593  0.00  0.00    +0.000 A 
ENDBRANCH  12  13
ENDBRANCH   7  12
ENDBRANCH   1   8
BRANCH   5  20
ATOM     20  N   UNL     1       2.684   5.376  20.951  0.00  0.00    +0.000 N 
ATOM     21  H   UNL     1       3.461   5.311  21.606  0.00  0.00    +0.000 HD
BRANCH  20  22
ATOM     22  S   UNL     1       1.706   4.004  20.927  0.00  0.00    +0.000 S 
ATOM     23  O   UNL     1       1.863   3.377  22.224  0.00  0.00    +0.000 OA
ATOM     24  O   UNL     1       0.398   4.356  20.421  0.00  0.00    +0.000 OA
BRANCH  22  25
ATOM     25  C   UNL     1       2.490   2.929  19.737  0.00  0.00    +0.000 A 
ATOM     26  C   UNL     1       1.909   2.767  18.472  0.00  0.00    +0.000 A 
ATOM     27  C   UNL     1       2.578   2.036  17.490  0.00  0.00    +0.000 A 
ATOM     28  C   UNL     1       3.828   1.480  17.765  0.00  0.00    +0.000 A 
ATOM     29  C   UNL     1       4.407   1.643  19.026  0.00  0.00    +0.000 A 
ATOM     30  C   UNL     1       3.742   2.372  20.015  0.00  0.00    +0.000 A 
ENDBRANCH  22  25
ENDBRANCH  20  22
ENDBRANCH   5  20
TORSDOF 6
ENDMDL
MODEL 5
REMARK VINA RESULT:      -8.0      1.108      1.589
REMARK  Name = 
REMARK  7 active torsions:
REMARK  status: ('A' for Active; 'I' for Inactive)
REMARK    1  A    between atoms: C_1  and  C_2
REMARK    2  A    between atoms: C_2  and  N_3
REMARK    3  A    between atoms: C_2  and  C_22
REMARK    4  A    between atoms: C_4  and  C_6
REMARK    5  A    between atoms: C_10  and  N_11
REMARK    6  A    between atoms: N_11  and  S_12
REMARK    7  A    between atoms: S_12  and  C_15
REMARK                            x       y       z     vdW  Elec       q    Type
REMARK                         _______ _______ _______ _____ _____    ______ ____
ROOT
ATOM      1  C   UNL     1       2.059   7.909  18.896  0.00  0.00    +0.000 A 
ATOM      2  C   UNL     1       1.937   7.372  20.185  0.00  0.00    +0.000 A 
ATOM      3  C   UNL     1       2.390   6.077  20.442  0.00  0.00    +0.000 A 
ATOM      4  C   UNL     1       2.956   5.320  19.415  0.00  0.00    +0.000 A 
ATOM      5  C   UNL     1       3.101   5.868  18.139  0.00  0.00    +0.000 A 
ATOM      6  C   UNL     1       2.664   7.164  17.877  0.00  0.00    +0.000 A 
ENDROOT
BRANCH   1   8
ATOM      7  N   UNL     1       0.582   9.787  19.373  0.00  0.00    +0.000 N 
ATOM      8  C   UNL     1       1.584   9.279  18.573  0.00  0.00    +0.000 C 
ATOM      9  O   UNL     1       2.069   9.878  17.619  0.00  0.00    +0.000 OA
ATOM     10  H   UNL     1       0.159   9.211  20.087  0.00  0.00    +0.000 HD
BRANCH   7  12
ATOM     11  C   UNL     1       0.072  11.952  20.429  0.00  0.00    +0.000 C 
ATOM     12  C   UNL     1       0.040  11.117  19.147  0.00  0.00    +0.000 C 
BRANCH  12  13
ATOM     13  C   UNL     1      -1.359  11.044  18.558  0.00  0.00    +0.000 A 
ATOM     14  C   UNL     1      -2.360  11.900  19.054  0.00  0.00    +0.000 A 
ATOM     15  C   UNL     1      -3.669  11.822  18.575  0.00  0.00    +0.000 A 
ATOM     16  C   UNL     1      -3.982  10.896  17.590  0.00  0.00    +0.000 A 
ATOM     17  F   UNL     1      -5.240  10.811  17.140  0.00  0.00    +0.000 F 
ATOM     18  C   UNL     1      -3.008  10.053  17.066  0.00  0.00    +0.000 A 
ATOM     19  C   UNL     1      -1.698  10.128  17.546  0.00  0.00    +0.000 A 
ENDBRANCH  12  13
ENDBRANCH   7  12
ENDBRANCH   1   8
BRANCH   5  20
ATOM     20  N   UNL     1       3.685   5.087  17.110  0.00  0.00    +0.000 N 
ATOM     21  H   UNL     1       3.074   4.659  16.417  0.00  0.00    +0.000 HD
BRANCH  20  22
ATOM     22  S   UNL     1       5.076   4.189  17.428  0.00  0.00    +0.000 S 
ATOM     23  O   UNL     1       4.836   3.512  18.687  0.00  0.00    +0.000 OA
ATOM     24  O   UNL     1       5.451   3.452  16.243  0.00  0.00    +0.000 OA
BRANCH  22  25
ATOM     25  C   UNL     1       6.330   5.421  17.736  0.00  0.00    +0.000 A 
ATOM     26  C   UNL     1       6.357   6.583  16.953  0.00  0.00    +0.000 A 
ATOM     27  C   UNL     1       7.247   7.611  17.267  0.00  0.00    +0.000 A 
ATOM     28  C   UNL     1       8.098   7.485  18.366  0.00  0.00    +0.000 A 
ATOM     29  C   UNL     1       8.070   6.326  19.145  0.00  0.00    +0.000 A 
ATOM     30  C   UNL     1       7.183   5.292  18.837  0.00  0.00    +0.000 A 
ENDBRANCH  22  25
ENDBRANCH  20  22
ENDBRANCH   5  20
TORSDOF 6
ENDMDL
MODEL 6
REMARK VINA RESULT:      -7.9      4.227      9.274
REMARK  Name = 
REMARK  7 active torsions:
REMARK  status: ('A' for Active; 'I' for Inactive)
REMARK    1  A    between atoms: C_1  and  C_2
REMARK    2  A    between atoms: C_2  and  N_3
REMARK    3  A    between atoms: C_2  and  C_22
REMARK    4  A    between atoms: C_4  and  C_6
REMARK    5  A    between atoms: C_10  and  N_11
REMARK    6  A    between atoms: N_11  and  S_12
REMARK    7  A    between atoms: S_12  and  C_15
REMARK                            x       y       z     vdW  Elec       q    Type
REMARK                         _______ _______ _______ _____ _____    ______ ____
ROOT
ATOM      1  C   UNL     1       2.572   7.410  18.753  0.00  0.00    +0.000 A 
ATOM      2  C   UNL     1       2.543   8.367  17.730  0.00  0.00    +0.000 A 
ATOM      3  C   UNL     1       1.733   9.496  17.860  0.00  0.00    +0.000 A 
ATOM      4  C   UNL     1       0.950   9.664  19.003  0.00  0.00    +0.000 A 
ATOM      5  C   UNL     1       1.002   8.722  20.032  0.00  0.00    +0.000 A 
ATOM      6  C   UNL     1       1.818   7.600  19.916  0.00  0.00    +0.000 A 
ENDROOT
BRANCH   1   8
ATOM      7  N   UNL     1       4.749   6.383  18.378  0.00  0.00    +0.000 N 
ATOM      8  C   UNL     1       3.413   6.188  18.656  0.00  0.00    +0.000 C 
ATOM      9  O   UNL     1       2.896   5.086  18.798  0.00  0.00    +0.000 OA
ATOM     10  H   UNL     1       5.099   7.310  18.182  0.00  0.00    +0.000 HD
BRANCH   7  12
ATOM     11  C   UNL     1       6.960   5.519  19.032  0.00  0.00    +0.000 C 
ATOM     12  C   UNL     1       5.665   5.259  18.260  0.00  0.00    +0.000 C 
BRANCH  12  13
ATOM     13  C   UNL     1       5.935   4.926  16.802  0.00  0.00    +0.000 A 
ATOM     14  C   UNL     1       5.037   4.095  16.108  0.00  0.00    +0.000 A 
ATOM     15  C   UNL     1       5.284   3.723  14.785  0.00  0.00    +0.000 A 
ATOM     16  C   UNL     1       6.423   4.190  14.145  0.00  0.00    +0.000 A 
ATOM     17  F   UNL     1       6.667   3.823  12.881  0.00  0.00    +0.000 F 
ATOM     18  C   UNL     1       7.316   5.031  14.800  0.00  0.00    +0.000 A 
ATOM     19  C   UNL     1       7.073   5.401  16.125  0.00  0.00    +0.000 A 
ENDBRANCH  12  13
ENDBRANCH   7  12
ENDBRANCH   1   8
BRANCH   5  20
ATOM     20  N   UNL     1       0.205   8.913  21.189  0.00  0.00    +0.000 N 
ATOM     21  H   UNL     1      -0.766   8.608  21.167  0.00  0.00    +0.000 HD
BRANCH  20  22
ATOM     22  S   UNL     1       0.469  10.255  22.175  0.00  0.00    +0.000 S 
ATOM     23  O   UNL     1       0.553   9.746  23.529  0.00  0.00    +0.000 OA
ATOM     24  O   UNL     1       1.529  11.061  21.613  0.00  0.00    +0.000 OA
BRANCH  22  25
ATOM     25  C   UNL     1      -1.052  11.184  22.066  0.00  0.00    +0.000 A 
ATOM     26  C   UNL     1      -1.796  11.419  23.229  0.00  0.00    +0.000 A 
ATOM     27  C   UNL     1      -2.914  12.252  23.181  0.00  0.00    +0.000 A 
ATOM     28  C   UNL     1      -3.280  12.858  21.978  0.00  0.00    +0.000 A 
ATOM     29  C   UNL     1      -2.537  12.623  20.818  0.00  0.00    +0.000 A 
ATOM     30  C   UNL     1      -1.417  11.789  20.859  0.00  0.00    +0.000 A 
ENDBRANCH  22  25
ENDBRANCH  20  22
ENDBRANCH   5  20
TORSDOF 6
ENDMDL
MODEL 7
REMARK VINA RESULT:      -7.9      1.925      2.755
REMARK  Name = 
REMARK  7 active torsions:
REMARK  status: ('A' for Active; 'I' for Inactive)
REMARK    1  A    between atoms: C_1  and  C_2
REMARK    2  A    between atoms: C_2  and  N_3
REMARK    3  A    between atoms: C_2  and  C_22
REMARK    4  A    between atoms: C_4  and  C_6
REMARK    5  A    between atoms: C_10  and  N_11
REMARK    6  A    between atoms: N_11  and  S_12
REMARK    7  A    between atoms: S_12  and  C_15
REMARK                            x       y       z     vdW  Elec       q    Type
REMARK                         _______ _______ _______ _____ _____    ______ ____
ROOT
ATOM      1  C   UNL     1       2.205   7.837  18.702  0.00  0.00    +0.000 A 
ATOM      2  C   UNL     1       1.970   7.252  19.954  0.00  0.00    +0.000 A 
ATOM      3  C   UNL     1       2.448   5.968  20.220  0.00  0.00    +0.000 A 
ATOM      4  C   UNL     1       3.151   5.269  19.238  0.00  0.00    +0.000 A 
ATOM      5  C   UNL     1       3.407   5.865  18.002  0.00  0.00    +0.000 A 
ATOM      6  C   UNL     1       2.945   7.150  17.733  0.00  0.00    +0.000 A 
ENDROOT
BRANCH   1   8
ATOM      7  N   UNL     1       0.760   9.729  19.217  0.00  0.00    +0.000 N 
ATOM      8  C   UNL     1       1.709   9.197  18.370  0.00  0.00    +0.000 C 
ATOM      9  O   UNL     1       2.132   9.767  17.370  0.00  0.00    +0.000 OA
ATOM     10  H   UNL     1       0.384   9.175  19.973  0.00  0.00    +0.000 HD
BRANCH   7  12
ATOM     11  C   UNL     1       0.307  11.921  20.243  0.00  0.00    +0.000 C 
ATOM     12  C   UNL     1       0.204  11.053  18.987  0.00  0.00    +0.000 C 
BRANCH  12  13
ATOM     13  C   UNL     1      -1.227  10.964  18.480  0.00  0.00    +0.000 A 
ATOM     14  C   UNL     1      -2.203  11.818  19.024  0.00  0.00    +0.000 A 
ATOM     15  C   UNL     1      -3.537  11.726  18.622  0.00  0.00    +0.000 A 
ATOM     16  C   UNL     1      -3.899  10.787  17.666  0.00  0.00    +0.000 A 
ATOM     17  F   UNL     1      -5.181  10.689  17.290  0.00  0.00    +0.000 F 
ATOM     18  C   UNL     1      -2.950   9.946  17.096  0.00  0.00    +0.000 A 
ATOM     19  C   UNL     1      -1.616  10.034  17.499  0.00  0.00    +0.000 A 
ENDBRANCH  12  13
ENDBRANCH   7  12
ENDBRANCH   1   8
BRANCH   5  20
ATOM     20  N   UNL     1       4.129   5.141  17.019  0.00  0.00    +0.000 N 
ATOM     21  H   UNL     1       3.839   4.189  16.804  0.00  0.00    +0.000 HD
BRANCH  20  22
ATOM     22  S   UNL     1       5.785   5.398  16.839  0.00  0.00    +0.000 S 
ATOM     23  O   UNL     1       5.982   6.830  16.946  0.00  0.00    +0.000 OA
ATOM     24  O   UNL     1       6.508   4.480  17.691  0.00  0.00    +0.000 OA
BRANCH  22  25
ATOM     25  C   UNL     1       6.115   4.957  15.141  0.00  0.00    +0.000 A 
ATOM     26  C   UNL     1       7.324   5.349  14.553  0.00  0.00    +0.000 A 
ATOM     27  C   UNL     1       7.651   4.900  13.273  0.00  0.00    +0.000 A 
ATOM     28  C   UNL     1       6.779   4.052  12.588  0.00  0.00    +0.000 A 
ATOM     29  C   UNL     1       5.574   3.662  13.176  0.00  0.00    +0.000 A 
ATOM     30  C   UNL     1       5.239   4.108  14.457  0.00  0.00    +0.000 A 
ENDBRANCH  22  25
ENDBRANCH  20  22
ENDBRANCH   5  20
TORSDOF 6
ENDMDL
MODEL 8
REMARK VINA RESULT:      -7.9      1.879      2.677
REMARK  Name = 
REMARK  7 active torsions:
REMARK  status: ('A' for Active; 'I' for Inactive)
REMARK    1  A    between atoms: C_1  and  C_2
REMARK    2  A    between atoms: C_2  and  N_3
REMARK    3  A    between atoms: C_2  and  C_22
REMARK    4  A    between atoms: C_4  and  C_6
REMARK    5  A    between atoms: C_10  and  N_11
REMARK    6  A    between atoms: N_11  and  S_12
REMARK    7  A    between atoms: S_12  and  C_15
REMARK                            x       y       z     vdW  Elec       q    Type
REMARK                         _______ _______ _______ _____ _____    ______ ____
ROOT
ATOM      1  C   UNL     1       1.821   7.979  19.183  0.00  0.00    +0.000 A 
ATOM      2  C   UNL     1       1.526   7.658  20.515  0.00  0.00    +0.000 A 
ATOM      3  C   UNL     1       1.893   6.413  21.026  0.00  0.00    +0.000 A 
ATOM      4  C   UNL     1       2.545   5.489  20.208  0.00  0.00    +0.000 A 
ATOM      5  C   UNL     1       2.863   5.821  18.890  0.00  0.00    +0.000 A 
ATOM      6  C   UNL     1       2.512   7.066  18.376  0.00  0.00    +0.000 A 
ENDROOT
BRANCH   1   8
ATOM      7  N   UNL     1       0.403   9.959  19.199  0.00  0.00    +0.000 N 
ATOM      8  C   UNL     1       1.444   9.288  18.592  0.00  0.00    +0.000 C 
ATOM      9  O   UNL     1       2.037   9.698  17.601  0.00  0.00    +0.000 OA
ATOM     10  H   UNL     1      -0.107   9.529  19.957  0.00  0.00    +0.000 HD
BRANCH   7  12
ATOM     11  C   UNL     1       0.198  12.354  19.733  0.00  0.00    +0.000 C 
ATOM     12  C   UNL     1      -0.052  11.249  18.704  0.00  0.00    +0.000 C 
BRANCH  12  13
ATOM     13  C   UNL     1      -1.511  11.190  18.285  0.00  0.00    +0.000 A 
ATOM     14  C   UNL     1      -2.464  11.934  19.005  0.00  0.00    +0.000 A 
ATOM     15  C   UNL     1      -3.821  11.859  18.682  0.00  0.00    +0.000 A 
ATOM     16  C   UNL     1      -4.230  11.050  17.632  0.00  0.00    +0.000 A 
ATOM     17  F   UNL     1      -5.532  10.968  17.331  0.00  0.00    +0.000 F 
ATOM     18  C   UNL     1      -3.307  10.321  16.890  0.00  0.00    +0.000 A 
ATOM     19  C   UNL     1      -1.949  10.392  17.213  0.00  0.00    +0.000 A 
ENDBRANCH  12  13
ENDBRANCH   7  12
ENDBRANCH   1   8
BRANCH   5  20
ATOM     20  N   UNL     1       3.532   4.872  18.077  0.00  0.00    +0.000 N 
ATOM     21  H   UNL     1       3.010   4.066  17.739  0.00  0.00    +0.000 HD
BRANCH  20  22
ATOM     22  S   UNL     1       5.168   4.558  18.332  0.00  0.00    +0.000 S 
ATOM     23  O   UNL     1       5.711   5.746  18.958  0.00  0.00    +0.000 OA
ATOM     24  O   UNL     1       5.316   3.257  18.945  0.00  0.00    +0.000 OA
BRANCH  22  25
ATOM     25  C   UNL     1       5.859   4.478  16.688  0.00  0.00    +0.000 A 
ATOM     26  C   UNL     1       5.035   4.114  15.615  0.00  0.00    +0.000 A 
ATOM     27  C   UNL     1       5.527   4.176  14.310  0.00  0.00    +0.000 A 
ATOM     28  C   UNL     1       6.833   4.610  14.078  0.00  0.00    +0.000 A 
ATOM     29  C   UNL     1       7.653   4.972  15.149  0.00  0.00    +0.000 A 
ATOM     30  C   UNL     1       7.168   4.913  16.458  0.00  0.00    +0.000 A 
ENDBRANCH  22  25
ENDBRANCH  20  22
ENDBRANCH   5  20
TORSDOF 6
ENDMDL
MODEL 9
REMARK VINA RESULT:      -7.9      2.231      2.935
REMARK  Name = 
REMARK  7 active torsions:
REMARK  status: ('A' for Active; 'I' for Inactive)
REMARK    1  A    between atoms: C_1  and  C_2
REMARK    2  A    between atoms: C_2  and  N_3
REMARK    3  A    between atoms: C_2  and  C_22
REMARK    4  A    between atoms: C_4  and  C_6
REMARK    5  A    between atoms: C_10  and  N_11
REMARK    6  A    between atoms: N_11  and  S_12
REMARK    7  A    between atoms: S_12  and  C_15
REMARK                            x       y       z     vdW  Elec       q    Type
REMARK                         _______ _______ _______ _____ _____    ______ ____
ROOT
ATOM      1  C   UNL     1       2.545   8.084  18.378  0.00  0.00    +0.000 A 
ATOM      2  C   UNL     1       2.361   7.071  19.329  0.00  0.00    +0.000 A 
ATOM      3  C   UNL     1       3.027   5.854  19.184  0.00  0.00    +0.000 A 
ATOM      4  C   UNL     1       3.867   5.646  18.088  0.00  0.00    +0.000 A 
ATOM      5  C   UNL     1       4.070   6.666  17.157  0.00  0.00    +0.000 A 
ATOM      6  C   UNL     1       3.420   7.888  17.302  0.00  0.00    +0.000 A 
ENDROOT
BRANCH   1   8
ATOM      7  N   UNL     1       0.723   9.427  19.277  0.00  0.00    +0.000 N 
ATOM      8  C   UNL     1       1.852   9.393  18.486  0.00  0.00    +0.000 C 
ATOM      9  O   UNL     1       2.283  10.359  17.865  0.00  0.00    +0.000 OA
ATOM     10  H   UNL     1       0.365   8.579  19.691  0.00  0.00    +0.000 HD
BRANCH   7  12
ATOM     11  C   UNL     1      -0.399  10.873  20.925  0.00  0.00    +0.000 C 
ATOM     12  C   UNL     1      -0.035  10.656  19.455  0.00  0.00    +0.000 C 
BRANCH  12  13
ATOM     13  C   UNL     1      -1.265  10.672  18.562  0.00  0.00    +0.000 A 
ATOM     14  C   UNL     1      -1.305   9.835  17.432  0.00  0.00    +0.000 A 
ATOM     15  C   UNL     1      -2.395   9.865  16.559  0.00  0.00    +0.000 A 
ATOM     16  C   UNL     1      -3.455  10.723  16.819  0.00  0.00    +0.000 A 
ATOM     17  F   UNL     1      -4.494  10.762  15.975  0.00  0.00    +0.000 F 
ATOM     18  C   UNL     1      -3.450  11.545  17.940  0.00  0.00    +0.000 A 
ATOM     19  C   UNL     1      -2.359  11.519  18.813  0.00  0.00    +0.000 A 
ENDBRANCH  12  13
ENDBRANCH   7  12
ENDBRANCH   1   8
BRANCH   5  20
ATOM     20  N   UNL     1       4.932   6.438  16.056  0.00  0.00    +0.000 N 
ATOM     21  H   UNL     1       4.526   6.373  15.124  0.00  0.00    +0.000 HD
BRANCH  20  22
ATOM     22  S   UNL     1       6.314   5.494  16.256  0.00  0.00    +0.000 S 
ATOM     23  O   UNL     1       7.386   6.416  16.577  0.00  0.00    +0.000 OA
ATOM     24  O   UNL     1       6.009   4.375  17.119  0.00  0.00    +0.000 OA
BRANCH  22  25
ATOM     25  C   UNL     1       6.652   4.859  14.622  0.00  0.00    +0.000 A 
ATOM     26  C   UNL     1       5.819   3.867  14.087  0.00  0.00    +0.000 A 
ATOM     27  C   UNL     1       5.991   3.457  12.765  0.00  0.00    +0.000 A 
ATOM     28  C   UNL     1       6.981   4.043  11.976  0.00  0.00    +0.000 A 
ATOM     29  C   UNL     1       7.811   5.032  12.511  0.00  0.00    +0.000 A 
ATOM     30  C   UNL     1       7.646   5.448  13.834  0.00  0.00    +0.000 A 
ENDBRANCH  22  25
ENDBRANCH  20  22
ENDBRANCH   5  20
TORSDOF 6
ENDMDL
