MODEL 1
REMARK VINA RESULT:      -8.2      0.000      0.000
REMARK  Name = 
REMARK  7 active torsions:
REMARK  status: ('A' for Active; 'I' for Inactive)
REMARK    1  A    between atoms: C_1  and  C_2
REMARK    2  A    between atoms: C_4  and  C_5
REMARK    3  A    between atoms: C_9  and  N_10
REMARK    4  A    between atoms: C_11  and  C_13
REMARK    5  A    between atoms: C_18  and  S_19
REMARK    6  A    between atoms: S_19  and  C_20
REMARK    7  A    between atoms: C_20  and  C_21
REMARK                            x       y       z     vdW  Elec       q    Type
REMARK                         _______ _______ _______ _____ _____    ______ ____
ROOT
ATOM      1  N   UNL     1       3.162   7.093  18.020  0.00  0.00    +0.000 N 
ATOM      2  C   UNL     1       4.074   6.098  18.315  0.00  0.00    +0.000 C 
ATOM      3  O   UNL     1       4.339   5.678  19.434  0.00  0.00    +0.000 OA
ATOM      4  H   UNL     1       3.009   7.306  17.044  0.00  0.00    +0.000 HD
ENDROOT
BRANCH   1   9
ATOM      5  C   UNL     1       0.697   9.493  19.442  0.00  0.00    +0.000 A 
ATOM      6  C   UNL     1       0.536   8.990  20.740  0.00  0.00    +0.000 A 
ATOM      7  C   UNL     1       1.266   7.887  21.158  0.00  0.00    +0.000 A 
ATOM      8  C   UNL     1       2.153   7.272  20.280  0.00  0.00    +0.000 A 
ATOM      9  C   UNL     1       2.327   7.738  18.971  0.00  0.00    +0.000 A 
ATOM     10  C   UNL     1       1.614   8.876  18.569  0.00  0.00    +0.000 A 
BRANCH   5  14
ATOM     11  C   UNL     1      -3.384  11.724  17.763  0.00  0.00    +0.000 C 
ATOM     12  C   UNL     1      -1.988  11.558  18.248  0.00  0.00    +0.000 A 
ATOM     13  N   UNL     1      -1.468  10.423  18.663  0.00  0.00    +0.000 NA
ATOM     14  C   UNL     1      -0.143  10.611  19.031  0.00  0.00    +0.000 A 
ATOM     15  C   UNL     1       0.321  11.902  18.878  0.00  0.00    +0.000 A 
ATOM     16  S   UNL     1      -0.924  12.908  18.269  0.00  0.00    +0.000 S 
ENDBRANCH   5  14
ENDBRANCH   1   9
BRANCH   2  17
ATOM     17  C   UNL     1       4.823   5.455  17.195  0.00  0.00    +0.000 A 
ATOM     18  C   UNL     1       5.983   6.178  16.823  0.00  0.00    +0.000 A 
ATOM     19  C   UNL     1       6.934   5.637  15.968  0.00  0.00    +0.000 A 
ATOM     20  C   UNL     1       6.740   4.361  15.476  0.00  0.00    +0.000 A 
ATOM     21  C   UNL     1       5.574   3.660  15.786  0.00  0.00    +0.000 A 
ATOM     22  C   UNL     1       4.581   4.184  16.637  0.00  0.00    +0.000 A 
BRANCH  22  23
ATOM     23  S   UNL     1       3.077   3.223  16.906  0.00  0.00    +0.000 S 
BRANCH  23  24
ATOM     24  C   UNL     1       3.496   2.226  18.398  0.00  0.00    +0.000 C 
BRANCH  24  25
ATOM     25  C   UNL     1       2.458   2.279  19.518  0.00  0.00    +0.000 C 
ATOM     26  C   UNL     1       1.307   3.234  19.269  0.00  0.00    +0.000 C 
ATOM     27  C   UNL     1       0.949   3.687  20.661  0.00  0.00    +0.000 C 
ATOM     28  C   UNL     1       2.297   3.740  21.341  0.00  0.00    +0.000 C 
ATOM     29  O   UNL     1       3.108   2.727  20.729  0.00  0.00    +0.000 OA
ENDBRANCH  24  25
ENDBRANCH  23  24
ENDBRANCH  22  23
ENDBRANCH   2  17
TORSDOF 6
ENDMDL
MODEL 2
REMARK VINA RESULT:      -8.0      1.064      1.064
REMARK  Name = 
REMARK  7 active torsions:
REMARK  status: ('A' for Active; 'I' for Inactive)
REMARK    1  A    between atoms: C_1  and  C_2
REMARK    2  A    between atoms: C_4  and  C_5
REMARK    3  A    between atoms: C_9  and  N_10
REMARK    4  A    between atoms: C_11  and  C_13
REMARK    5  A    between atoms: C_18  and  S_19
REMARK    6  A    between atoms: S_19  and  C_20
REMARK    7  A    between atoms: C_20  and  C_21
REMARK                            x       y       z     vdW  Elec       q    Type
REMARK                         _______ _______ _______ _____ _____    ______ ____
ROOT
ATOM      1  N   UNL     1       2.941   6.960  18.068  0.00  0.00    +0.000 N 
ATOM      2  C   UNL     1       4.004   6.097  18.254  0.00  0.00    +0.000 C 
ATOM      3  O   UNL     1       4.534   5.835  19.327  0.00  0.00    +0.000 OA
ATOM      4  H   UNL     1       2.573   7.044  17.131  0.00  0.00    +0.000 HD
ENDROOT
BRANCH   1   9
ATOM      5  C   UNL     1       0.908   9.545  19.811  0.00  0.00    +0.000 A 
ATOM      6  C   UNL     1       0.713   8.948  21.063  0.00  0.00    +0.000 A 
ATOM      7  C   UNL     1       1.280   7.714  21.345  0.00  0.00    +0.000 A 
ATOM      8  C   UNL     1       2.039   7.064  20.376  0.00  0.00    +0.000 A 
ATOM      9  C   UNL     1       2.242   7.625  19.110  0.00  0.00    +0.000 A 
ATOM     10  C   UNL     1       1.696   8.888  18.845  0.00  0.00    +0.000 A 
BRANCH   5  14
ATOM     11  C   UNL     1      -2.751  12.865  20.003  0.00  0.00    +0.000 C 
ATOM     12  C   UNL     1      -1.447  12.251  19.636  0.00  0.00    +0.000 A 
ATOM     13  N   UNL     1      -1.006  11.099  20.094  0.00  0.00    +0.000 NA
ATOM     14  C   UNL     1       0.234  10.810  19.542  0.00  0.00    +0.000 A 
ATOM     15  C   UNL     1       0.709  11.759  18.660  0.00  0.00    +0.000 A 
ATOM     16  S   UNL     1      -0.411  13.046  18.519  0.00  0.00    +0.000 S 
ENDBRANCH   5  14
ENDBRANCH   1   9
BRANCH   2  17
ATOM     17  C   UNL     1       4.587   5.407  17.065  0.00  0.00    +0.000 A 
ATOM     18  C   UNL     1       5.003   6.309  16.055  0.00  0.00    +0.000 A 
ATOM     19  C   UNL     1       5.773   5.890  14.979  0.00  0.00    +0.000 A 
ATOM     20  C   UNL     1       6.143   4.561  14.900  0.00  0.00    +0.000 A 
ATOM     21  C   UNL     1       5.691   3.650  15.856  0.00  0.00    +0.000 A 
ATOM     22  C   UNL     1       4.895   4.037  16.952  0.00  0.00    +0.000 A 
BRANCH  22  23
ATOM     23  S   UNL     1       4.302   2.762  18.083  0.00  0.00    +0.000 S 
BRANCH  23  24
ATOM     24  C   UNL     1       2.604   2.422  17.456  0.00  0.00    +0.000 C 
BRANCH  24  25
ATOM     25  C   UNL     1       1.499   2.519  18.507  0.00  0.00    +0.000 C 
ATOM     26  C   UNL     1       1.177   3.930  18.959  0.00  0.00    +0.000 C 
ATOM     27  C   UNL     1       0.754   3.728  20.390  0.00  0.00    +0.000 C 
ATOM     28  C   UNL     1       1.660   2.607  20.842  0.00  0.00    +0.000 C 
ATOM     29  O   UNL     1       1.921   1.797  19.688  0.00  0.00    +0.000 OA
ENDBRANCH  24  25
ENDBRANCH  23  24
ENDBRANCH  22  23
ENDBRANCH   2  17
TORSDOF 6
ENDMDL
MODEL 3
REMARK VINA RESULT:      -7.9      1.260      1.650
REMARK  Name = 
REMARK  7 active torsions:
REMARK  status: ('A' for Active; 'I' for Inactive)
REMARK    1  A    between atoms: C_1  and  C_2
REMARK    2  A    between atoms: C_4  and  C_5
REMARK    3  A    between atoms: C_9  and  N_10
REMARK    4  A    between atoms: C_11  and  C_13
REMARK    5  A    between atoms: C_18  and  S_19
REMARK    6  A    between atoms: S_19  and  C_20
REMARK    7  A    between atoms: C_20  and  C_21
REMARK                            x       y       z     vdW  Elec       q    Type
REMARK                         _______ _______ _______ _____ _____    ______ ____
ROOT
ATOM      1  N   UNL     1       2.945   7.101  17.931  0.00  0.00    +0.000 N 
ATOM      2  C   UNL     1       3.938   6.170  18.169  0.00  0.00    +0.000 C 
ATOM      3  O   UNL     1       4.400   5.881  19.266  0.00  0.00    +0.000 OA
ATOM      4  H   UNL     1       2.627   7.204  16.977  0.00  0.00    +0.000 HD
ENDROOT
BRANCH   1   9
ATOM      5  C   UNL     1       1.051   9.846  19.583  0.00  0.00    +0.000 A 
ATOM      6  C   UNL     1       0.721   9.257  20.811  0.00  0.00    +0.000 A 
ATOM      7  C   UNL     1       1.153   7.973  21.108  0.00  0.00    +0.000 A 
ATOM      8  C   UNL     1       1.909   7.265  20.179  0.00  0.00    +0.000 A 
ATOM      9  C   UNL     1       2.244   7.817  18.937  0.00  0.00    +0.000 A 
ATOM     10  C   UNL     1       1.835   9.129  18.659  0.00  0.00    +0.000 A 
BRANCH   5  14
ATOM     11  C   UNL     1       1.190  14.733  18.844  0.00  0.00    +0.000 C 
ATOM     12  C   UNL     1       0.629  13.364  18.997  0.00  0.00    +0.000 A 
ATOM     13  N   UNL     1       1.346  12.275  19.168  0.00  0.00    +0.000 NA
ATOM     14  C   UNL     1       0.515  11.170  19.292  0.00  0.00    +0.000 A 
ATOM     15  C   UNL     1      -0.834  11.452  19.217  0.00  0.00    +0.000 A 
ATOM     16  S   UNL     1      -1.073  13.131  18.981  0.00  0.00    +0.000 S 
ENDBRANCH   5  14
ENDBRANCH   1   9
BRANCH   2  17
ATOM     17  C   UNL     1       4.528   5.436  17.010  0.00  0.00    +0.000 A 
ATOM     18  C   UNL     1       4.940   6.298  15.964  0.00  0.00    +0.000 A 
ATOM     19  C   UNL     1       5.715   5.840  14.908  0.00  0.00    +0.000 A 
ATOM     20  C   UNL     1       6.094   4.512  14.884  0.00  0.00    +0.000 A 
ATOM     21  C   UNL     1       5.646   3.638  15.877  0.00  0.00    +0.000 A 
ATOM     22  C   UNL     1       4.845   4.064  16.954  0.00  0.00    +0.000 A 
BRANCH  22  23
ATOM     23  S   UNL     1       4.259   2.833  18.136  0.00  0.00    +0.000 S 
BRANCH  23  24
ATOM     24  C   UNL     1       2.569   2.446  17.513  0.00  0.00    +0.000 C 
BRANCH  24  25
ATOM     25  C   UNL     1       1.452   2.604  18.544  0.00  0.00    +0.000 C 
ATOM     26  C   UNL     1       1.250   4.020  19.046  0.00  0.00    +0.000 C 
ATOM     27  C   UNL     1       0.774   3.803  20.458  0.00  0.00    +0.000 C 
ATOM     28  C   UNL     1       1.562   2.586  20.883  0.00  0.00    +0.000 C 
ATOM     29  O   UNL     1       1.777   1.801  19.702  0.00  0.00    +0.000 OA
ENDBRANCH  24  25
ENDBRANCH  23  24
ENDBRANCH  22  23
ENDBRANCH   2  17
TORSDOF 6
ENDMDL
MODEL 4
REMARK VINA RESULT:      -7.9      1.221      1.705
REMARK  Name = 
REMARK  7 active torsions:
REMARK  status: ('A' for Active; 'I' for Inactive)
REMARK    1  A    between atoms: C_1  and  C_2
REMARK    2  A    between atoms: C_4  and  C_5
REMARK    3  A    between atoms: C_9  and  N_10
REMARK    4  A    between atoms: C_11  and  C_13
REMARK    5  A    between atoms: C_18  and  S_19
REMARK    6  A    between atoms: S_19  and  C_20
REMARK    7  A    between atoms: C_20  and  C_21
REMARK                            x       y       z     vdW  Elec       q    Type
REMARK                         _______ _______ _______ _____ _____    ______ ____
ROOT
ATOM      1  N   UNL     1       3.083   6.754  17.704  0.00  0.00    +0.000 N 
ATOM      2  C   UNL     1       4.299   6.121  17.872  0.00  0.00    +0.000 C 
ATOM      3  O   UNL     1       4.997   6.169  18.877  0.00  0.00    +0.000 OA
ATOM      4  H   UNL     1       2.591   6.587  16.836  0.00  0.00    +0.000 HD
ENDROOT
BRANCH   1   9
ATOM      5  C   UNL     1       1.246   9.557  19.323  0.00  0.00    +0.000 A 
ATOM      6  C   UNL     1       0.938   9.003  20.572  0.00  0.00    +0.000 A 
ATOM      7  C   UNL     1       1.367   7.724  20.895  0.00  0.00    +0.000 A 
ATOM      8  C   UNL     1       2.097   6.986  19.968  0.00  0.00    +0.000 A 
ATOM      9  C   UNL     1       2.409   7.502  18.705  0.00  0.00    +0.000 A 
ATOM     10  C   UNL     1       2.005   8.809  18.402  0.00  0.00    +0.000 A 
BRANCH   5  14
ATOM     11  C   UNL     1       1.344  14.469  18.758  0.00  0.00    +0.000 C 
ATOM     12  C   UNL     1       0.805  13.083  18.798  0.00  0.00    +0.000 A 
ATOM     13  N   UNL     1       1.525  12.005  19.023  0.00  0.00    +0.000 NA
ATOM     14  C   UNL     1       0.715  10.878  19.009  0.00  0.00    +0.000 A 
ATOM     15  C   UNL     1      -0.622  11.131  18.776  0.00  0.00    +0.000 A 
ATOM     16  S   UNL     1      -0.876  12.811  18.563  0.00  0.00    +0.000 S 
ENDBRANCH   5  14
ENDBRANCH   1   9
BRANCH   2  17
ATOM     17  C   UNL     1       4.845   5.300  16.751  0.00  0.00    +0.000 A 
ATOM     18  C   UNL     1       5.758   6.017  15.938  0.00  0.00    +0.000 A 
ATOM     19  C   UNL     1       6.545   5.376  14.992  0.00  0.00    +0.000 A 
ATOM     20  C   UNL     1       6.433   4.007  14.845  0.00  0.00    +0.000 A 
ATOM     21  C   UNL     1       5.495   3.297  15.597  0.00  0.00    +0.000 A 
ATOM     22  C   UNL     1       4.669   3.916  16.555  0.00  0.00    +0.000 A 
BRANCH  22  23
ATOM     23  S   UNL     1       3.437   2.913  17.412  0.00  0.00    +0.000 S 
BRANCH  23  24
ATOM     24  C   UNL     1       4.099   2.840  19.130  0.00  0.00    +0.000 C 
BRANCH  24  25
ATOM     25  C   UNL     1       3.168   3.403  20.202  0.00  0.00    +0.000 C 
ATOM     26  C   UNL     1       2.861   2.448  21.339  0.00  0.00    +0.000 C 
ATOM     27  C   UNL     1       1.465   2.849  21.737  0.00  0.00    +0.000 C 
ATOM     28  C   UNL     1       0.842   3.219  20.410  0.00  0.00    +0.000 C 
ATOM     29  O   UNL     1       1.900   3.729  19.587  0.00  0.00    +0.000 OA
ENDBRANCH  24  25
ENDBRANCH  23  24
ENDBRANCH  22  23
ENDBRANCH   2  17
TORSDOF 6
ENDMDL
MODEL 5
REMARK VINA RESULT:      -7.9      1.406      1.794
REMARK  Name = 
REMARK  7 active torsions:
REMARK  status: ('A' for Active; 'I' for Inactive)
REMARK    1  A    between atoms: C_1  and  C_2
REMARK    2  A    between atoms: C_4  and  C_5
REMARK    3  A    between atoms: C_9  and  N_10
REMARK    4  A    between atoms: C_11  and  C_13
REMARK    5  A    between atoms: C_18  and  S_19
REMARK    6  A    between atoms: S_19  and  C_20
REMARK    7  A    between atoms: C_20  and  C_21
REMARK                            x       y       z     vdW  Elec       q    Type
REMARK                         _______ _______ _______ _____ _____    ______ ____
ROOT
ATOM      1  N   UNL     1       2.602   8.223  18.193  0.00  0.00    +0.000 N 
ATOM      2  C   UNL     1       2.817   6.863  18.306  0.00  0.00    +0.000 C 
ATOM      3  O   UNL     1       2.152   6.088  18.982  0.00  0.00    +0.000 OA
ATOM      4  H   UNL     1       3.202   8.734  17.560  0.00  0.00    +0.000 HD
ENDROOT
BRANCH   1   9
ATOM      5  C   UNL     1      -0.664   9.978  18.514  0.00  0.00    +0.000 A 
ATOM      6  C   UNL     1      -0.727  10.198  19.897  0.00  0.00    +0.000 A 
ATOM      7  C   UNL     1       0.321   9.803  20.716  0.00  0.00    +0.000 A 
ATOM      8  C   UNL     1       1.433   9.178  20.161  0.00  0.00    +0.000 A 
ATOM      9  C   UNL     1       1.522   8.928  18.787  0.00  0.00    +0.000 A 
ATOM     10  C   UNL     1       0.476   9.364  17.962  0.00  0.00    +0.000 A 
BRANCH   5  14
ATOM     11  C   UNL     1      -5.111  11.934  17.593  0.00  0.00    +0.000 C 
ATOM     12  C   UNL     1      -3.830  11.218  17.355  0.00  0.00    +0.000 A 
ATOM     13  N   UNL     1      -2.869  11.085  18.244  0.00  0.00    +0.000 NA
ATOM     14  C   UNL     1      -1.820  10.351  17.708  0.00  0.00    +0.000 A 
ATOM     15  C   UNL     1      -2.015   9.931  16.408  0.00  0.00    +0.000 A 
ATOM     16  S   UNL     1      -3.536  10.469  15.836  0.00  0.00    +0.000 S 
ENDBRANCH   5  14
ENDBRANCH   1   9
BRANCH   2  17
ATOM     17  C   UNL     1       3.952   6.249  17.555  0.00  0.00    +0.000 A 
ATOM     18  C   UNL     1       5.045   7.135  17.389  0.00  0.00    +0.000 A 
ATOM     19  C   UNL     1       6.276   6.691  16.927  0.00  0.00    +0.000 A 
ATOM     20  C   UNL     1       6.434   5.352  16.627  0.00  0.00    +0.000 A 
ATOM     21  C   UNL     1       5.350   4.479  16.730  0.00  0.00    +0.000 A 
ATOM     22  C   UNL     1       4.082   4.897  17.180  0.00  0.00    +0.000 A 
BRANCH  22  23
ATOM     23  S   UNL     1       2.732   3.700  17.198  0.00  0.00    +0.000 S 
BRANCH  23  24
ATOM     24  C   UNL     1       3.395   2.359  18.273  0.00  0.00    +0.000 C 
BRANCH  24  25
ATOM     25  C   UNL     1       2.674   2.192  19.610  0.00  0.00    +0.000 C 
ATOM     26  C   UNL     1       1.220   2.621  19.604  0.00  0.00    +0.000 C 
ATOM     27  C   UNL     1       1.016   3.108  21.015  0.00  0.00    +0.000 C 
ATOM     28  C   UNL     1       2.349   3.740  21.337  0.00  0.00    +0.000 C 
ATOM     29  O   UNL     1       3.340   3.013  20.598  0.00  0.00    +0.000 OA
ENDBRANCH  24  25
ENDBRANCH  23  24
ENDBRANCH  22  23
ENDBRANCH   2  17
TORSDOF 6
ENDMDL
MODEL 6
REMARK VINA RESULT:      -7.9      2.296      3.120
REMARK  Name = 
REMARK  7 active torsions:
REMARK  status: ('A' for Active; 'I' for Inactive)
REMARK    1  A    between atoms: C_1  and  C_2
REMARK    2  A    between atoms: C_4  and  C_5
REMARK    3  A    between atoms: C_9  and  N_10
REMARK    4  A    between atoms: C_11  and  C_13
REMARK    5  A    between atoms: C_18  and  S_19
REMARK    6  A    between atoms: S_19  and  C_20
REMARK    7  A    between atoms: C_20  and  C_21
REMARK                            x       y       z     vdW  Elec       q    Type
REMARK                         _______ _______ _______ _____ _____    ______ ____
ROOT
ATOM      1  N   UNL     1       2.433   8.576  17.527  0.00  0.00    +0.000 N 
ATOM      2  C   UNL     1       2.812   7.476  18.271  0.00  0.00    +0.000 C 
ATOM      3  O   UNL     1       2.517   7.266  19.441  0.00  0.00    +0.000 OA
ATOM      4  H   UNL     1       2.710   8.595  16.556  0.00  0.00    +0.000 HD
ENDROOT
BRANCH   1   9
ATOM      5  C   UNL     1       1.322  11.915  18.740  0.00  0.00    +0.000 A 
ATOM      6  C   UNL     1      -0.070  11.757  18.755  0.00  0.00    +0.000 A 
ATOM      7  C   UNL     1      -0.639  10.542  18.403  0.00  0.00    +0.000 A 
ATOM      8  C   UNL     1       0.177   9.480  18.024  0.00  0.00    +0.000 A 
ATOM      9  C   UNL     1       1.571   9.608  17.983  0.00  0.00    +0.000 A 
ATOM     10  C   UNL     1       2.139  10.827  18.376  0.00  0.00    +0.000 A 
BRANCH   5  14
ATOM     11  C   UNL     1       3.251  16.369  17.791  0.00  0.00    +0.000 C 
ATOM     12  C   UNL     1       2.753  15.205  18.573  0.00  0.00    +0.000 A 
ATOM     13  N   UNL     1       2.203  14.131  18.051  0.00  0.00    +0.000 NA
ATOM     14  C   UNL     1       1.866  13.232  19.053  0.00  0.00    +0.000 A 
ATOM     15  C   UNL     1       2.179  13.648  20.331  0.00  0.00    +0.000 A 
ATOM     16  S   UNL     1       2.904  15.198  20.285  0.00  0.00    +0.000 S 
ENDBRANCH   5  14
ENDBRANCH   1   9
BRANCH   2  17
ATOM     17  C   UNL     1       3.661   6.430  17.627  0.00  0.00    +0.000 A 
ATOM     18  C   UNL     1       4.961   6.894  17.309  0.00  0.00    +0.000 A 
ATOM     19  C   UNL     1       5.968   6.023  16.920  0.00  0.00    +0.000 A 
ATOM     20  C   UNL     1       5.692   4.672  16.846  0.00  0.00    +0.000 A 
ATOM     21  C   UNL     1       4.400   4.206  17.098  0.00  0.00    +0.000 A 
ATOM     22  C   UNL     1       3.349   5.063  17.480  0.00  0.00    +0.000 A 
BRANCH  22  23
ATOM     23  S   UNL     1       1.701   4.363  17.704  0.00  0.00    +0.000 S 
BRANCH  23  24
ATOM     24  C   UNL     1       2.051   2.572  17.947  0.00  0.00    +0.000 C 
BRANCH  24  25
ATOM     25  C   UNL     1       1.899   2.076  19.385  0.00  0.00    +0.000 C 
ATOM     26  C   UNL     1       0.898   2.851  20.219  0.00  0.00    +0.000 C 
ATOM     27  C   UNL     1       1.479   2.752  21.605  0.00  0.00    +0.000 C 
ATOM     28  C   UNL     1       2.965   2.805  21.338  0.00  0.00    +0.000 C 
ATOM     29  O   UNL     1       3.175   2.203  20.054  0.00  0.00    +0.000 OA
ENDBRANCH  24  25
ENDBRANCH  23  24
ENDBRANCH  22  23
ENDBRANCH   2  17
TORSDOF 6
ENDMDL
MODEL 7
REMARK VINA RESULT:      -7.8      2.798      8.568
REMARK  Name = 
REMARK  7 active torsions:
REMARK  status: ('A' for Active; 'I' for Inactive)
REMARK    1  A    between atoms: C_1  and  C_2
REMARK    2  A    between atoms: C_4  and  C_5
REMARK    3  A    between atoms: C_9  and  N_10
REMARK    4  A    between atoms: C_11  and  C_13
REMARK    5  A    between atoms: C_18  and  S_19
REMARK    6  A    between atoms: S_19  and  C_20
REMARK    7  A    between atoms: C_20  and  C_21
REMARK                            x       y       z     vdW  Elec       q    Type
REMARK                         _______ _______ _______ _____ _____    ______ ____
ROOT
ATOM      1  N   UNL     1       1.380   6.449  21.063  0.00  0.00    +0.000 N 
ATOM      2  C   UNL     1       1.497   7.708  20.508  0.00  0.00    +0.000 C 
ATOM      3  O   UNL     1       2.274   8.028  19.617  0.00  0.00    +0.000 OA
ATOM      4  H   UNL     1       0.661   6.316  21.761  0.00  0.00    +0.000 HD
ENDROOT
BRANCH   1   9
ATOM      5  C   UNL     1       3.841   4.362  19.208  0.00  0.00    +0.000 A 
ATOM      6  C   UNL     1       3.663   3.113  19.818  0.00  0.00    +0.000 A 
ATOM      7  C   UNL     1       2.709   2.950  20.812  0.00  0.00    +0.000 A 
ATOM      8  C   UNL     1       1.933   4.035  21.210  0.00  0.00    +0.000 A 
ATOM      9  C   UNL     1       2.095   5.300  20.632  0.00  0.00    +0.000 A 
ATOM     10  C   UNL     1       3.035   5.447  19.603  0.00  0.00    +0.000 A 
BRANCH   5  14
ATOM     11  C   UNL     1       5.959   4.009  14.754  0.00  0.00    +0.000 C 
ATOM     12  C   UNL     1       5.813   4.290  16.208  0.00  0.00    +0.000 A 
ATOM     13  N   UNL     1       4.691   4.175  16.884  0.00  0.00    +0.000 NA
ATOM     14  C   UNL     1       4.902   4.495  18.218  0.00  0.00    +0.000 A 
ATOM     15  C   UNL     1       6.201   4.845  18.528  0.00  0.00    +0.000 A 
ATOM     16  S   UNL     1       7.181   4.780  17.126  0.00  0.00    +0.000 S 
ENDBRANCH   5  14
ENDBRANCH   1   9
BRANCH   2  17
ATOM     17  C   UNL     1       0.618   8.803  21.016  0.00  0.00    +0.000 A 
ATOM     18  C   UNL     1       0.418   8.743  22.417  0.00  0.00    +0.000 A 
ATOM     19  C   UNL     1      -0.171   9.790  23.112  0.00  0.00    +0.000 A 
ATOM     20  C   UNL     1      -0.567  10.915  22.416  0.00  0.00    +0.000 A 
ATOM     21  C   UNL     1      -0.431  10.964  21.028  0.00  0.00    +0.000 A 
ATOM     22  C   UNL     1       0.148   9.914  20.288  0.00  0.00    +0.000 A 
BRANCH  22  23
ATOM     23  S   UNL     1       0.201  10.051  18.489  0.00  0.00    +0.000 S 
BRANCH  23  24
ATOM     24  C   UNL     1      -1.196  11.196  18.129  0.00  0.00    +0.000 C 
BRANCH  24  25
ATOM     25  C   UNL     1      -2.425  10.535  17.505  0.00  0.00    +0.000 C 
ATOM     26  C   UNL     1      -2.500  10.637  15.995  0.00  0.00    +0.000 C 
ATOM     27  C   UNL     1      -3.984  10.678  15.742  0.00  0.00    +0.000 C 
ATOM     28  C   UNL     1      -4.493  11.467  16.926  0.00  0.00    +0.000 C 
ATOM     29  O   UNL     1      -3.610  11.185  18.019  0.00  0.00    +0.000 OA
ENDBRANCH  24  25
ENDBRANCH  23  24
ENDBRANCH  22  23
ENDBRANCH   2  17
TORSDOF 6
ENDMDL
MODEL 8
REMARK VINA RESULT:      -7.8      1.173      1.577
REMARK  Name = 
REMARK  7 active torsions:
REMARK  status: ('A' for Active; 'I' for Inactive)
REMARK    1  A    between atoms: C_1  and  C_2
REMARK    2  A    between atoms: C_4  and  C_5
REMARK    3  A    between atoms: C_9  and  N_10
REMARK    4  A    between atoms: C_11  and  C_13
REMARK    5  A    between atoms: C_18  and  S_19
REMARK    6  A    between atoms: S_19  and  C_20
REMARK    7  A    between atoms: C_20  and  C_21
REMARK                            x       y       z     vdW  Elec       q    Type
REMARK                         _______ _______ _______ _____ _____    ______ ____
ROOT
ATOM      1  N   UNL     1       3.039   7.024  18.341  0.00  0.00    +0.000 N 
ATOM      2  C   UNL     1       4.007   6.061  18.551  0.00  0.00    +0.000 C 
ATOM      3  O   UNL     1       4.344   5.611  19.639  0.00  0.00    +0.000 OA
ATOM      4  H   UNL     1       2.829   7.268  17.382  0.00  0.00    +0.000 HD
ENDROOT
BRANCH   1   9
ATOM      5  C   UNL     1       1.022   9.544  20.195  0.00  0.00    +0.000 A 
ATOM      6  C   UNL     1       0.492   8.767  21.233  0.00  0.00    +0.000 A 
ATOM      7  C   UNL     1       0.827   7.425  21.344  0.00  0.00    +0.000 A 
ATOM      8  C   UNL     1       1.687   6.849  20.413  0.00  0.00    +0.000 A 
ATOM      9  C   UNL     1       2.223   7.592  19.355  0.00  0.00    +0.000 A 
ATOM     10  C   UNL     1       1.909   8.956  19.272  0.00  0.00    +0.000 A 
BRANCH   5  14
ATOM     11  C   UNL     1       0.353  14.219  21.659  0.00  0.00    +0.000 C 
ATOM     12  C   UNL     1       0.285  13.007  20.801  0.00  0.00    +0.000 A 
ATOM     13  N   UNL     1       0.855  11.855  21.083  0.00  0.00    +0.000 NA
ATOM     14  C   UNL     1       0.585  10.930  20.084  0.00  0.00    +0.000 A 
ATOM     15  C   UNL     1      -0.201  11.406  19.055  0.00  0.00    +0.000 A 
ATOM     16  S   UNL     1      -0.608  13.046  19.333  0.00  0.00    +0.000 S 
ENDBRANCH   5  14
ENDBRANCH   1   9
BRANCH   2  17
ATOM     17  C   UNL     1       4.730   5.499  17.371  0.00  0.00    +0.000 A 
ATOM     18  C   UNL     1       5.864   6.264  17.005  0.00  0.00    +0.000 A 
ATOM     19  C   UNL     1       6.794   5.791  16.090  0.00  0.00    +0.000 A 
ATOM     20  C   UNL     1       6.606   4.543  15.530  0.00  0.00    +0.000 A 
ATOM     21  C   UNL     1       5.463   3.803  15.837  0.00  0.00    +0.000 A 
ATOM     22  C   UNL     1       4.490   4.258  16.749  0.00  0.00    +0.000 A 
BRANCH  22  23
ATOM     23  S   UNL     1       3.013   3.254  17.010  0.00  0.00    +0.000 S 
BRANCH  23  24
ATOM     24  C   UNL     1       3.504   2.171  18.417  0.00  0.00    +0.000 C 
BRANCH  24  25
ATOM     25  C   UNL     1       2.480   2.085  19.549  0.00  0.00    +0.000 C 
ATOM     26  C   UNL     1       1.303   3.030  19.410  0.00  0.00    +0.000 C 
ATOM     27  C   UNL     1       0.954   3.332  20.844  0.00  0.00    +0.000 C 
ATOM     28  C   UNL     1       2.309   3.352  21.511  0.00  0.00    +0.000 C 
ATOM     29  O   UNL     1       3.136   2.427  20.791  0.00  0.00    +0.000 OA
ENDBRANCH  24  25
ENDBRANCH  23  24
ENDBRANCH  22  23
ENDBRANCH   2  17
TORSDOF 6
ENDMDL
MODEL 9
REMARK VINA RESULT:      -7.7      2.486      4.556
REMARK  Name = 
REMARK  7 active torsions:
REMARK  status: ('A' for Active; 'I' for Inactive)
REMARK    1  A    between atoms: C_1  and  C_2
REMARK    2  A    between atoms: C_4  and  C_5
REMARK    3  A    between atoms: C_9  and  N_10
REMARK    4  A    between atoms: C_11  and  C_13
REMARK    5  A    between atoms: C_18  and  S_19
REMARK    6  A    between atoms: S_19  and  C_20
REMARK    7  A    between atoms: C_20  and  C_21
REMARK                            x       y       z     vdW  Elec       q    Type
REMARK                         _______ _______ _______ _____ _____    ______ ____
ROOT
ATOM      1  N   UNL     1       1.944   7.303  18.892  0.00  0.00    +0.000 N 
ATOM      2  C   UNL     1       2.923   6.613  18.204  0.00  0.00    +0.000 C 
ATOM      3  O   UNL     1       3.712   7.099  17.402  0.00  0.00    +0.000 OA
ATOM      4  H   UNL     1       1.394   6.780  19.560  0.00  0.00    +0.000 HD
ENDROOT
BRANCH   1   9
ATOM      5  C   UNL     1       0.795  10.707  19.862  0.00  0.00    +0.000 A 
ATOM      6  C   UNL     1       1.423  11.500  18.892  0.00  0.00    +0.000 A 
ATOM      7  C   UNL     1       2.192  10.911  17.899  0.00  0.00    +0.000 A 
ATOM      8  C   UNL     1       2.346   9.528  17.873  0.00  0.00    +0.000 A 
ATOM      9  C   UNL     1       1.746   8.708  18.836  0.00  0.00    +0.000 A 
ATOM     10  C   UNL     1       0.941   9.307  19.814  0.00  0.00    +0.000 A 
BRANCH   5  14
ATOM     11  C   UNL     1      -0.578  14.485  22.742  0.00  0.00    +0.000 C 
ATOM     12  C   UNL     1      -0.504  13.100  22.204  0.00  0.00    +0.000 A 
ATOM     13  N   UNL     1       0.188  12.744  21.143  0.00  0.00    +0.000 NA
ATOM     14  C   UNL     1       0.055  11.380  20.923  0.00  0.00    +0.000 A 
ATOM     15  C   UNL     1      -0.742  10.722  21.838  0.00  0.00    +0.000 A 
ATOM     16  S   UNL     1      -1.345  11.829  22.997  0.00  0.00    +0.000 S 
ENDBRANCH   5  14
ENDBRANCH   1   9
BRANCH   2  17
ATOM     17  C   UNL     1       3.061   5.143  18.427  0.00  0.00    +0.000 A 
ATOM     18  C   UNL     1       1.846   4.441  18.231  0.00  0.00    +0.000 A 
ATOM     19  C   UNL     1       1.811   3.055  18.164  0.00  0.00    +0.000 A 
ATOM     20  C   UNL     1       2.992   2.350  18.289  0.00  0.00    +0.000 A 
ATOM     21  C   UNL     1       4.187   3.025  18.542  0.00  0.00    +0.000 A 
ATOM     22  C   UNL     1       4.258   4.429  18.632  0.00  0.00    +0.000 A 
BRANCH  22  23
ATOM     23  S   UNL     1       5.842   5.191  19.041  0.00  0.00    +0.000 S 
BRANCH  23  24
ATOM     24  C   UNL     1       6.904   4.705  17.617  0.00  0.00    +0.000 C 
BRANCH  24  25
ATOM     25  C   UNL     1       6.345   5.073  16.243  0.00  0.00    +0.000 C 
ATOM     26  C   UNL     1       5.700   3.923  15.494  0.00  0.00    +0.000 C 
ATOM     27  C   UNL     1       5.973   4.275  14.055  0.00  0.00    +0.000 C 
ATOM     28  C   UNL     1       7.341   4.911  14.130  0.00  0.00    +0.000 C 
ATOM     29  O   UNL     1       7.431   5.545  15.413  0.00  0.00    +0.000 OA
ENDBRANCH  24  25
ENDBRANCH  23  24
ENDBRANCH  22  23
ENDBRANCH   2  17
TORSDOF 6
ENDMDL
