MODEL 1
REMARK VINA RESULT:      -7.9      0.000      0.000
REMARK  Name = 
REMARK  6 active torsions:
REMARK  status: ('A' for Active; 'I' for Inactive)
REMARK    1  A    between atoms: C_1  and  N_2
REMARK    2  A    between atoms: N_2  and  C_3
REMARK    3  A    between atoms: N_2  and  S_4
REMARK    4  A    between atoms: S_4  and  C_7
REMARK    5  A    between atoms: C_11  and  N_12
REMARK    6  A    between atoms: C_16  and  C_17
REMARK                            x       y       z     vdW  Elec       q    Type
REMARK                         _______ _______ _______ _____ _____    ______ ____
ROOT
ATOM      1  N   UNL     1       1.058   9.201  19.753  0.00  0.00    +0.000 N 
ATOM      2  C   UNL     1       0.880   8.824  21.065  0.00  0.00    +0.000 C 
ATOM      3  O   UNL     1       0.098   9.240  21.905  0.00  0.00    +0.000 OA
ATOM      4  N   UNL     1       1.724   7.772  21.345  0.00  0.00    +0.000 N 
ATOM      5  C   UNL     1       2.481   7.379  20.200  0.00  0.00    +0.000 C 
ATOM      6  C   UNL     1       2.054   8.413  19.186  0.00  0.00    +0.000 C 
ATOM      7  O   UNL     1       2.562   8.510  18.078  0.00  0.00    +0.000 OA
ATOM      8  H   UNL     1       1.662   7.274  22.226  0.00  0.00    +0.000 HD
ENDROOT
BRANCH   5   9
ATOM      9  C   UNL     1       2.256   5.924  19.841  0.00  0.00    +0.000 A 
ATOM     10  C   UNL     1       1.180   5.283  20.494  0.00  0.00    +0.000 A 
ATOM     11  C   UNL     1       0.686   4.070  20.037  0.00  0.00    +0.000 A 
ATOM     12  C   UNL     1       1.160   3.563  18.835  0.00  0.00    +0.000 A 
ATOM     13  C   UNL     1       2.265   4.149  18.200  0.00  0.00    +0.000 A 
ATOM     14  C   UNL     1       2.730   3.600  17.000  0.00  0.00    +0.000 A 
ATOM     15  C   UNL     1       4.068   3.729  16.661  0.00  0.00    +0.000 A 
ATOM     16  C   UNL     1       4.858   4.628  17.360  0.00  0.00    +0.000 A 
ATOM     17  C   UNL     1       4.266   5.458  18.321  0.00  0.00    +0.000 A 
ATOM     18  C   UNL     1       2.946   5.225  18.797  0.00  0.00    +0.000 A 
ENDBRANCH   5   9
BRANCH   1  23
ATOM     19  C   UNL     1      -1.842  10.644  17.918  0.00  0.00    +0.000 A 
ATOM     20  C   UNL     1      -1.525  11.997  17.891  0.00  0.00    +0.000 A 
ATOM     21  C   UNL     1      -0.304  12.420  18.407  0.00  0.00    +0.000 A 
ATOM     22  C   UNL     1       0.574  11.498  18.992  0.00  0.00    +0.000 A 
ATOM     23  C   UNL     1       0.254  10.132  19.051  0.00  0.00    +0.000 A 
ATOM     24  C   UNL     1      -0.963   9.719  18.482  0.00  0.00    +0.000 A 
BRANCH  19  25
ATOM     25  S   UNL     1      -3.433  10.061  17.364  0.00  0.00    +0.000 S 
ATOM     26  O   UNL     1      -3.761   8.915  18.183  0.00  0.00    +0.000 OA
ATOM     27  O   UNL     1      -3.388   9.950  15.929  0.00  0.00    +0.000 OA
BRANCH  25  29
ATOM     28  C   UNL     1      -5.137  12.043  16.668  0.00  0.00    +0.000 C 
ATOM     29  N   UNL     1      -4.483  11.330  17.776  0.00  0.00    +0.000 NA
ATOM     30  C   UNL     1      -5.354  11.116  18.941  0.00  0.00    +0.000 C 
ENDBRANCH  25  29
ENDBRANCH  19  25
ENDBRANCH   1  23
TORSDOF 4
ENDMDL
MODEL 2
REMARK VINA RESULT:      -7.9      3.060      8.022
REMARK  Name = 
REMARK  6 active torsions:
REMARK  status: ('A' for Active; 'I' for Inactive)
REMARK    1  A    between atoms: C_1  and  N_2
REMARK    2  A    between atoms: N_2  and  C_3
REMARK    3  A    between atoms: N_2  and  S_4
REMARK    4  A    between atoms: S_4  and  C_7
REMARK    5  A    between atoms: C_11  and  N_12
REMARK    6  A    between atoms: C_16  and  C_17
REMARK                            x       y       z     vdW  Elec       q    Type
REMARK                         _______ _______ _______ _____ _____    ______ ____
ROOT
ATOM      1  N   UNL     1       1.784   8.575  19.388  0.00  0.00    +0.000 N 
ATOM      2  C   UNL     1       1.821   9.258  18.194  0.00  0.00    +0.000 C 
ATOM      3  O   UNL     1       2.208   8.900  17.092  0.00  0.00    +0.000 OA
ATOM      4  N   UNL     1       1.259  10.503  18.374  0.00  0.00    +0.000 N 
ATOM      5  C   UNL     1       0.784  10.681  19.709  0.00  0.00    +0.000 C 
ATOM      6  C   UNL     1       1.228   9.396  20.362  0.00  0.00    +0.000 C 
ATOM      7  O   UNL     1       1.118   9.185  21.562  0.00  0.00    +0.000 OA
ATOM      8  H   UNL     1       1.085  11.116  17.585  0.00  0.00    +0.000 HD
ENDROOT
BRANCH   5   9
ATOM      9  C   UNL     1      -0.696  11.004  19.748  0.00  0.00    +0.000 A 
ATOM     10  C   UNL     1      -1.146  11.717  20.882  0.00  0.00    +0.000 A 
ATOM     11  C   UNL     1      -2.391  12.330  20.894  0.00  0.00    +0.000 A 
ATOM     12  C   UNL     1      -3.131  12.366  19.720  0.00  0.00    +0.000 A 
ATOM     13  C   UNL     1      -2.734  11.618  18.602  0.00  0.00    +0.000 A 
ATOM     14  C   UNL     1      -3.516  11.661  17.443  0.00  0.00    +0.000 A 
ATOM     15  C   UNL     1      -3.528  10.572  16.585  0.00  0.00    +0.000 A 
ATOM     16  C   UNL     1      -2.566   9.586  16.732  0.00  0.00    +0.000 A 
ATOM     17  C   UNL     1      -1.544   9.759  17.674  0.00  0.00    +0.000 A 
ATOM     18  C   UNL     1      -1.610  10.775  18.668  0.00  0.00    +0.000 A 
ENDBRANCH   5   9
BRANCH   1  23
ATOM     19  C   UNL     1       3.609   5.345  19.079  0.00  0.00    +0.000 A 
ATOM     20  C   UNL     1       3.010   4.576  20.070  0.00  0.00    +0.000 A 
ATOM     21  C   UNL     1       1.939   5.103  20.785  0.00  0.00    +0.000 A 
ATOM     22  C   UNL     1       1.501   6.412  20.541  0.00  0.00    +0.000 A 
ATOM     23  C   UNL     1       2.115   7.209  19.562  0.00  0.00    +0.000 A 
ATOM     24  C   UNL     1       3.165   6.642  18.819  0.00  0.00    +0.000 A 
BRANCH  19  25
ATOM     25  S   UNL     1       5.048   4.758  18.204  0.00  0.00    +0.000 S 
ATOM     26  O   UNL     1       4.579   3.781  17.247  0.00  0.00    +0.000 OA
ATOM     27  O   UNL     1       6.048   4.412  19.180  0.00  0.00    +0.000 OA
BRANCH  25  29
ATOM     28  C   UNL     1       6.921   6.634  17.665  0.00  0.00    +0.000 C 
ATOM     29  N   UNL     1       5.575   6.129  17.352  0.00  0.00    +0.000 NA
ATOM     30  C   UNL     1       5.237   6.189  15.921  0.00  0.00    +0.000 C 
ENDBRANCH  25  29
ENDBRANCH  19  25
ENDBRANCH   1  23
TORSDOF 4
ENDMDL
MODEL 3
REMARK VINA RESULT:      -7.9      2.355      2.755
REMARK  Name = 
REMARK  6 active torsions:
REMARK  status: ('A' for Active; 'I' for Inactive)
REMARK    1  A    between atoms: C_1  and  N_2
REMARK    2  A    between atoms: N_2  and  C_3
REMARK    3  A    between atoms: N_2  and  S_4
REMARK    4  A    between atoms: S_4  and  C_7
REMARK    5  A    between atoms: C_11  and  N_12
REMARK    6  A    between atoms: C_16  and  C_17
REMARK                            x       y       z     vdW  Elec       q    Type
REMARK                         _______ _______ _______ _____ _____    ______ ____
ROOT
ATOM      1  N   UNL     1       0.687   9.153  19.940  0.00  0.00    +0.000 N 
ATOM      2  C   UNL     1       0.817   8.815  21.267  0.00  0.00    +0.000 C 
ATOM      3  O   UNL     1       0.169   9.171  22.239  0.00  0.00    +0.000 OA
ATOM      4  N   UNL     1       1.826   7.884  21.393  0.00  0.00    +0.000 N 
ATOM      5  C   UNL     1       2.386   7.535  20.127  0.00  0.00    +0.000 C 
ATOM      6  C   UNL     1       1.644   8.466  19.201  0.00  0.00    +0.000 C 
ATOM      7  O   UNL     1       1.909   8.574  18.011  0.00  0.00    +0.000 OA
ATOM      8  H   UNL     1       2.000   7.420  22.278  0.00  0.00    +0.000 HD
ENDROOT
BRANCH   5   9
ATOM      9  C   UNL     1       2.280   6.049  19.848  0.00  0.00    +0.000 A 
ATOM     10  C   UNL     1       1.317   5.343  20.603  0.00  0.00    +0.000 A 
ATOM     11  C   UNL     1       0.913   4.068  20.234  0.00  0.00    +0.000 A 
ATOM     12  C   UNL     1       1.353   3.549  19.024  0.00  0.00    +0.000 A 
ATOM     13  C   UNL     1       2.352   4.204  18.288  0.00  0.00    +0.000 A 
ATOM     14  C   UNL     1       2.787   3.642  17.082  0.00  0.00    +0.000 A 
ATOM     15  C   UNL     1       4.081   3.879  16.645  0.00  0.00    +0.000 A 
ATOM     16  C   UNL     1       4.824   4.881  17.246  0.00  0.00    +0.000 A 
ATOM     17  C   UNL     1       4.220   5.699  18.211  0.00  0.00    +0.000 A 
ATOM     18  C   UNL     1       2.963   5.367  18.789  0.00  0.00    +0.000 A 
ENDBRANCH   5   9
BRANCH   1  23
ATOM     19  C   UNL     1      -1.819  11.885  19.593  0.00  0.00    +0.000 A 
ATOM     20  C   UNL     1      -2.209  11.755  18.265  0.00  0.00    +0.000 A 
ATOM     21  C   UNL     1      -1.703  10.703  17.507  0.00  0.00    +0.000 A 
ATOM     22  C   UNL     1      -0.772   9.814  18.063  0.00  0.00    +0.000 A 
ATOM     23  C   UNL     1      -0.349   9.951  19.394  0.00  0.00    +0.000 A 
ATOM     24  C   UNL     1      -0.906  10.992  20.157  0.00  0.00    +0.000 A 
BRANCH  19  25
ATOM     25  S   UNL     1      -2.356  13.270  20.578  0.00  0.00    +0.000 S 
ATOM     26  O   UNL     1      -3.797  13.324  20.463  0.00  0.00    +0.000 OA
ATOM     27  O   UNL     1      -1.547  14.406  20.222  0.00  0.00    +0.000 OA
BRANCH  25  29
ATOM     28  C   UNL     1      -0.976  13.624  22.877  0.00  0.00    +0.000 C 
ATOM     29  N   UNL     1      -1.964  12.801  22.162  0.00  0.00    +0.000 NA
ATOM     30  C   UNL     1      -3.075  12.338  23.009  0.00  0.00    +0.000 C 
ENDBRANCH  25  29
ENDBRANCH  19  25
ENDBRANCH   1  23
TORSDOF 4
ENDMDL
MODEL 4
REMARK VINA RESULT:      -7.8      2.414      3.142
REMARK  Name = 
REMARK  6 active torsions:
REMARK  status: ('A' for Active; 'I' for Inactive)
REMARK    1  A    between atoms: C_1  and  N_2
REMARK    2  A    between atoms: N_2  and  C_3
REMARK    3  A    between atoms: N_2  and  S_4
REMARK    4  A    between atoms: S_4  and  C_7
REMARK    5  A    between atoms: C_11  and  N_12
REMARK    6  A    between atoms: C_16  and  C_17
REMARK                            x       y       z     vdW  Elec       q    Type
REMARK                         _______ _______ _______ _____ _____    ______ ____
ROOT
ATOM      1  N   UNL     1       0.857   9.106  20.017  0.00  0.00    +0.000 N 
ATOM      2  C   UNL     1       0.790   8.674  21.322  0.00  0.00    +0.000 C 
ATOM      3  O   UNL     1       0.041   9.009  22.226  0.00  0.00    +0.000 OA
ATOM      4  N   UNL     1       1.718   7.672  21.508  0.00  0.00    +0.000 N 
ATOM      5  C   UNL     1       2.420   7.369  20.302  0.00  0.00    +0.000 C 
ATOM      6  C   UNL     1       1.862   8.406  19.358  0.00  0.00    +0.000 C 
ATOM      7  O   UNL     1       2.288   8.573  18.224  0.00  0.00    +0.000 OA
ATOM      8  H   UNL     1       1.746   7.141  22.371  0.00  0.00    +0.000 HD
ENDROOT
BRANCH   5   9
ATOM      9  C   UNL     1       2.266   5.915  19.904  0.00  0.00    +0.000 A 
ATOM     10  C   UNL     1       1.240   5.197  20.559  0.00  0.00    +0.000 A 
ATOM     11  C   UNL     1       0.802   3.973  20.075  0.00  0.00    +0.000 A 
ATOM     12  C   UNL     1       1.277   3.528  18.848  0.00  0.00    +0.000 A 
ATOM     13  C   UNL     1       2.335   4.192  18.210  0.00  0.00    +0.000 A 
ATOM     14  C   UNL     1       2.802   3.704  16.984  0.00  0.00    +0.000 A 
ATOM     15  C   UNL     1       4.124   3.916  16.623  0.00  0.00    +0.000 A 
ATOM     16  C   UNL     1       4.879   4.835  17.333  0.00  0.00    +0.000 A 
ATOM     17  C   UNL     1       4.265   5.603  18.331  0.00  0.00    +0.000 A 
ATOM     18  C   UNL     1       2.969   5.285  18.826  0.00  0.00    +0.000 A 
ENDBRANCH   5   9
BRANCH   1  23
ATOM     19  C   UNL     1      -0.873  12.284  19.138  0.00  0.00    +0.000 A 
ATOM     20  C   UNL     1      -1.623  11.909  18.030  0.00  0.00    +0.000 A 
ATOM     21  C   UNL     1      -1.622  10.578  17.626  0.00  0.00    +0.000 A 
ATOM     22  C   UNL     1      -0.833   9.635  18.299  0.00  0.00    +0.000 A 
ATOM     23  C   UNL     1      -0.049  10.005  19.403  0.00  0.00    +0.000 A 
ATOM     24  C   UNL     1      -0.100  11.345  19.824  0.00  0.00    +0.000 A 
BRANCH  19  25
ATOM     25  S   UNL     1      -0.758  13.991  19.637  0.00  0.00    +0.000 S 
ATOM     26  O   UNL     1      -1.988  14.303  20.330  0.00  0.00    +0.000 OA
ATOM     27  O   UNL     1      -0.344  14.760  18.492  0.00  0.00    +0.000 OA
BRANCH  25  29
ATOM     28  C   UNL     1       1.799  14.534  20.334  0.00  0.00    +0.000 C 
ATOM     29  N   UNL     1       0.506  13.985  20.772  0.00  0.00    +0.000 NA
ATOM     30  C   UNL     1       0.153  14.330  22.157  0.00  0.00    +0.000 C 
ENDBRANCH  25  29
ENDBRANCH  19  25
ENDBRANCH   1  23
TORSDOF 4
ENDMDL
MODEL 5
REMARK VINA RESULT:      -7.8      3.109      8.457
REMARK  Name = 
REMARK  6 active torsions:
REMARK  status: ('A' for Active; 'I' for Inactive)
REMARK    1  A    between atoms: C_1  and  N_2
REMARK    2  A    between atoms: N_2  and  C_3
REMARK    3  A    between atoms: N_2  and  S_4
REMARK    4  A    between atoms: S_4  and  C_7
REMARK    5  A    between atoms: C_11  and  N_12
REMARK    6  A    between atoms: C_16  and  C_17
REMARK                            x       y       z     vdW  Elec       q    Type
REMARK                         _______ _______ _______ _____ _____    ______ ____
ROOT
ATOM      1  N   UNL     1       1.947   8.396  19.106  0.00  0.00    +0.000 N 
ATOM      2  C   UNL     1       2.299   8.945  17.895  0.00  0.00    +0.000 C 
ATOM      3  O   UNL     1       2.920   8.462  16.961  0.00  0.00    +0.000 OA
ATOM      4  N   UNL     1       1.768  10.213  17.808  0.00  0.00    +0.000 N 
ATOM      5  C   UNL     1       0.998  10.545  18.964  0.00  0.00    +0.000 C 
ATOM      6  C   UNL     1       1.213   9.329  19.830  0.00  0.00    +0.000 C 
ATOM      7  O   UNL     1       0.810   9.252  20.983  0.00  0.00    +0.000 OA
ATOM      8  H   UNL     1       1.816  10.741  16.944  0.00  0.00    +0.000 HD
ENDROOT
BRANCH   5   9
ATOM      9  C   UNL     1      -0.433  10.901  18.611  0.00  0.00    +0.000 A 
ATOM     10  C   UNL     1      -1.071  10.053  17.678  0.00  0.00    +0.000 A 
ATOM     11  C   UNL     1      -2.447  10.085  17.507  0.00  0.00    +0.000 A 
ATOM     12  C   UNL     1      -3.213  10.851  18.375  0.00  0.00    +0.000 A 
ATOM     13  C   UNL     1      -2.602  11.742  19.269  0.00  0.00    +0.000 A 
ATOM     14  C   UNL     1      -3.405  12.515  20.115  0.00  0.00    +0.000 A 
ATOM     15  C   UNL     1      -2.949  13.749  20.552  0.00  0.00    +0.000 A 
ATOM     16  C   UNL     1      -1.613  14.075  20.383  0.00  0.00    +0.000 A 
ATOM     17  C   UNL     1      -0.733  13.113  19.868  0.00  0.00    +0.000 A 
ATOM     18  C   UNL     1      -1.206  11.916  19.264  0.00  0.00    +0.000 A 
ENDBRANCH   5   9
BRANCH   1  23
ATOM     19  C   UNL     1       3.649   5.121  19.595  0.00  0.00    +0.000 A 
ATOM     20  C   UNL     1       2.783   4.470  20.465  0.00  0.00    +0.000 A 
ATOM     21  C   UNL     1       1.588   5.086  20.823  0.00  0.00    +0.000 A 
ATOM     22  C   UNL     1       1.284   6.370  20.349  0.00  0.00    +0.000 A 
ATOM     23  C   UNL     1       2.163   7.050  19.491  0.00  0.00    +0.000 A 
ATOM     24  C   UNL     1       3.343   6.392  19.105  0.00  0.00    +0.000 A 
BRANCH  19  25
ATOM     25  S   UNL     1       5.238   4.423  19.184  0.00  0.00    +0.000 S 
ATOM     26  O   UNL     1       5.174   3.020  19.529  0.00  0.00    +0.000 OA
ATOM     27  O   UNL     1       6.253   5.274  19.749  0.00  0.00    +0.000 OA
BRANCH  25  29
ATOM     28  C   UNL     1       6.633   4.550  16.870  0.00  0.00    +0.000 C 
ATOM     29  N   UNL     1       5.300   4.555  17.492  0.00  0.00    +0.000 NA
ATOM     30  C   UNL     1       4.287   3.806  16.733  0.00  0.00    +0.000 C 
ENDBRANCH  25  29
ENDBRANCH  19  25
ENDBRANCH   1  23
TORSDOF 4
ENDMDL
MODEL 6
REMARK VINA RESULT:      -7.5      2.371      3.002
REMARK  Name = 
REMARK  6 active torsions:
REMARK  status: ('A' for Active; 'I' for Inactive)
REMARK    1  A    between atoms: C_1  and  N_2
REMARK    2  A    between atoms: N_2  and  C_3
REMARK    3  A    between atoms: N_2  and  S_4
REMARK    4  A    between atoms: S_4  and  C_7
REMARK    5  A    between atoms: C_11  and  N_12
REMARK    6  A    between atoms: C_16  and  C_17
REMARK                            x       y       z     vdW  Elec       q    Type
REMARK                         _______ _______ _______ _____ _____    ______ ____
ROOT
ATOM      1  N   UNL     1       0.848   9.110  20.086  0.00  0.00    +0.000 N 
ATOM      2  C   UNL     1       0.854   8.673  21.390  0.00  0.00    +0.000 C 
ATOM      3  O   UNL     1       0.154   9.001  22.335  0.00  0.00    +0.000 OA
ATOM      4  N   UNL     1       1.794   7.674  21.522  0.00  0.00    +0.000 N 
ATOM      5  C   UNL     1       2.431   7.379  20.278  0.00  0.00    +0.000 C 
ATOM      6  C   UNL     1       1.819   8.417  19.371  0.00  0.00    +0.000 C 
ATOM      7  O   UNL     1       2.182   8.591  18.216  0.00  0.00    +0.000 OA
ATOM      8  H   UNL     1       1.871   7.139  22.380  0.00  0.00    +0.000 HD
ENDROOT
BRANCH   5   9
ATOM      9  C   UNL     1       2.262   5.926  19.883  0.00  0.00    +0.000 A 
ATOM     10  C   UNL     1       1.222   5.223  20.532  0.00  0.00    +0.000 A 
ATOM     11  C   UNL     1       0.773   4.003  20.048  0.00  0.00    +0.000 A 
ATOM     12  C   UNL     1       1.250   3.549  18.826  0.00  0.00    +0.000 A 
ATOM     13  C   UNL     1       2.321   4.198  18.193  0.00  0.00    +0.000 A 
ATOM     14  C   UNL     1       2.791   3.701  16.972  0.00  0.00    +0.000 A 
ATOM     15  C   UNL     1       4.118   3.895  16.620  0.00  0.00    +0.000 A 
ATOM     16  C   UNL     1       4.880   4.806  17.333  0.00  0.00    +0.000 A 
ATOM     17  C   UNL     1       4.268   5.585  18.325  0.00  0.00    +0.000 A 
ATOM     18  C   UNL     1       2.965   5.285  18.811  0.00  0.00    +0.000 A 
ENDBRANCH   5   9
BRANCH   1  23
ATOM     19  C   UNL     1      -1.105  12.225  19.500  0.00  0.00    +0.000 A 
ATOM     20  C   UNL     1      -1.740  11.948  18.295  0.00  0.00    +0.000 A 
ATOM     21  C   UNL     1      -1.588  10.691  17.719  0.00  0.00    +0.000 A 
ATOM     22  C   UNL     1      -0.763   9.731  18.323  0.00  0.00    +0.000 A 
ATOM     23  C   UNL     1      -0.094  10.008  19.525  0.00  0.00    +0.000 A 
ATOM     24  C   UNL     1      -0.297  11.267  20.115  0.00  0.00    +0.000 A 
BRANCH  19  25
ATOM     25  S   UNL     1      -1.183  13.851  20.228  0.00  0.00    +0.000 S 
ATOM     26  O   UNL     1      -0.373  13.806  21.425  0.00  0.00    +0.000 OA
ATOM     27  O   UNL     1      -2.568  14.240  20.292  0.00  0.00    +0.000 OA
BRANCH  25  29
ATOM     28  C   UNL     1      -0.687  16.273  19.131  0.00  0.00    +0.000 C 
ATOM     29  N   UNL     1      -0.396  14.831  19.087  0.00  0.00    +0.000 NA
ATOM     30  C   UNL     1       1.014  14.518  18.806  0.00  0.00    +0.000 C 
ENDBRANCH  25  29
ENDBRANCH  19  25
ENDBRANCH   1  23
TORSDOF 4
ENDMDL
MODEL 7
REMARK VINA RESULT:      -7.5      2.327      2.908
REMARK  Name = 
REMARK  6 active torsions:
REMARK  status: ('A' for Active; 'I' for Inactive)
REMARK    1  A    between atoms: C_1  and  N_2
REMARK    2  A    between atoms: N_2  and  C_3
REMARK    3  A    between atoms: N_2  and  S_4
REMARK    4  A    between atoms: S_4  and  C_7
REMARK    5  A    between atoms: C_11  and  N_12
REMARK    6  A    between atoms: C_16  and  C_17
REMARK                            x       y       z     vdW  Elec       q    Type
REMARK                         _______ _______ _______ _____ _____    ______ ____
ROOT
ATOM      1  N   UNL     1       0.907   9.108  20.057  0.00  0.00    +0.000 N 
ATOM      2  C   UNL     1       0.829   8.657  21.355  0.00  0.00    +0.000 C 
ATOM      3  O   UNL     1       0.086   8.994  22.263  0.00  0.00    +0.000 OA
ATOM      4  N   UNL     1       1.734   7.631  21.527  0.00  0.00    +0.000 N 
ATOM      5  C   UNL     1       2.431   7.332  20.317  0.00  0.00    +0.000 C 
ATOM      6  C   UNL     1       1.897   8.395  19.389  0.00  0.00    +0.000 C 
ATOM      7  O   UNL     1       2.329   8.571  18.258  0.00  0.00    +0.000 OA
ATOM      8  H   UNL     1       1.749   7.086  22.381  0.00  0.00    +0.000 HD
ENDROOT
BRANCH   5   9
ATOM      9  C   UNL     1       2.245   5.888  19.896  0.00  0.00    +0.000 A 
ATOM     10  C   UNL     1       1.202   5.183  20.537  0.00  0.00    +0.000 A 
ATOM     11  C   UNL     1       0.738   3.977  20.033  0.00  0.00    +0.000 A 
ATOM     12  C   UNL     1       1.205   3.541  18.801  0.00  0.00    +0.000 A 
ATOM     13  C   UNL     1       2.279   4.190  18.174  0.00  0.00    +0.000 A 
ATOM     14  C   UNL     1       2.738   3.712  16.943  0.00  0.00    +0.000 A 
ATOM     15  C   UNL     1       4.065   3.899  16.588  0.00  0.00    +0.000 A 
ATOM     16  C   UNL     1       4.839   4.790  17.313  0.00  0.00    +0.000 A 
ATOM     17  C   UNL     1       4.240   5.556  18.322  0.00  0.00    +0.000 A 
ATOM     18  C   UNL     1       2.937   5.260  18.809  0.00  0.00    +0.000 A 
ENDBRANCH   5   9
BRANCH   1  23
ATOM     19  C   UNL     1      -0.725  12.341  19.199  0.00  0.00    +0.000 A 
ATOM     20  C   UNL     1      -1.508  11.990  18.105  0.00  0.00    +0.000 A 
ATOM     21  C   UNL     1      -1.561  10.659  17.706  0.00  0.00    +0.000 A 
ATOM     22  C   UNL     1      -0.794   9.690  18.368  0.00  0.00    +0.000 A 
ATOM     23  C   UNL     1       0.022  10.036  19.456  0.00  0.00    +0.000 A 
ATOM     24  C   UNL     1       0.026  11.378  19.874  0.00  0.00    +0.000 A 
BRANCH  19  25
ATOM     25  S   UNL     1      -0.542  14.045  19.690  0.00  0.00    +0.000 S 
ATOM     26  O   UNL     1      -0.493  14.823  18.472  0.00  0.00    +0.000 OA
ATOM     27  O   UNL     1       0.528  14.116  20.651  0.00  0.00    +0.000 OA
BRANCH  25  29
ATOM     28  C   UNL     1      -2.331  13.571  21.664  0.00  0.00    +0.000 C 
ATOM     29  N   UNL     1      -2.005  14.386  20.482  0.00  0.00    +0.000 NA
ATOM     30  C   UNL     1      -2.368  15.804  20.620  0.00  0.00    +0.000 C 
ENDBRANCH  25  29
ENDBRANCH  19  25
ENDBRANCH   1  23
TORSDOF 4
ENDMDL
MODEL 8
REMARK VINA RESULT:      -7.5      3.074      8.341
REMARK  Name = 
REMARK  6 active torsions:
REMARK  status: ('A' for Active; 'I' for Inactive)
REMARK    1  A    between atoms: C_1  and  N_2
REMARK    2  A    between atoms: N_2  and  C_3
REMARK    3  A    between atoms: N_2  and  S_4
REMARK    4  A    between atoms: S_4  and  C_7
REMARK    5  A    between atoms: C_11  and  N_12
REMARK    6  A    between atoms: C_16  and  C_17
REMARK                            x       y       z     vdW  Elec       q    Type
REMARK                         _______ _______ _______ _____ _____    ______ ____
ROOT
ATOM      1  N   UNL     1       1.906   8.393  19.119  0.00  0.00    +0.000 N 
ATOM      2  C   UNL     1       2.268   8.918  17.899  0.00  0.00    +0.000 C 
ATOM      3  O   UNL     1       2.869   8.407  16.968  0.00  0.00    +0.000 OA
ATOM      4  N   UNL     1       1.776  10.202  17.803  0.00  0.00    +0.000 N 
ATOM      5  C   UNL     1       1.023  10.569  18.959  0.00  0.00    +0.000 C 
ATOM      6  C   UNL     1       1.205   9.355  19.837  0.00  0.00    +0.000 C 
ATOM      7  O   UNL     1       0.806   9.302  20.992  0.00  0.00    +0.000 OA
ATOM      8  H   UNL     1       1.835  10.719  16.933  0.00  0.00    +0.000 HD
ENDROOT
BRANCH   5   9
ATOM      9  C   UNL     1      -0.398  10.965  18.610  0.00  0.00    +0.000 A 
ATOM     10  C   UNL     1      -1.055  10.149  17.661  0.00  0.00    +0.000 A 
ATOM     11  C   UNL     1      -2.430  10.217  17.489  0.00  0.00    +0.000 A 
ATOM     12  C   UNL     1      -3.178  10.987  18.368  0.00  0.00    +0.000 A 
ATOM     13  C   UNL     1      -2.547  11.847  19.278  0.00  0.00    +0.000 A 
ATOM     14  C   UNL     1      -3.333  12.625  20.136  0.00  0.00    +0.000 A 
ATOM     15  C   UNL     1      -2.849  13.840  20.594  0.00  0.00    +0.000 A 
ATOM     16  C   UNL     1      -1.505  14.136  20.433  0.00  0.00    +0.000 A 
ATOM     17  C   UNL     1      -0.647  13.162  19.904  0.00  0.00    +0.000 A 
ATOM     18  C   UNL     1      -1.148  11.987  19.278  0.00  0.00    +0.000 A 
ENDBRANCH   5   9
BRANCH   1  23
ATOM     19  C   UNL     1       3.308   4.949  19.303  0.00  0.00    +0.000 A 
ATOM     20  C   UNL     1       2.689   4.443  20.440  0.00  0.00    +0.000 A 
ATOM     21  C   UNL     1       1.738   5.217  21.097  0.00  0.00    +0.000 A 
ATOM     22  C   UNL     1       1.444   6.512  20.647  0.00  0.00    +0.000 A 
ATOM     23  C   UNL     1       2.082   7.045  19.516  0.00  0.00    +0.000 A 
ATOM     24  C   UNL     1       3.006   6.230  18.839  0.00  0.00    +0.000 A 
BRANCH  19  25
ATOM     25  S   UNL     1       4.605   4.042  18.482  0.00  0.00    +0.000 S 
ATOM     26  O   UNL     1       5.450   3.497  19.521  0.00  0.00    +0.000 OA
ATOM     27  O   UNL     1       5.155   4.889  17.456  0.00  0.00    +0.000 OA
BRANCH  25  29
ATOM     28  C   UNL     1       3.757   1.474  18.455  0.00  0.00    +0.000 C 
ATOM     29  N   UNL     1       3.778   2.759  17.739  0.00  0.00    +0.000 NA
ATOM     30  C   UNL     1       2.509   3.087  17.072  0.00  0.00    +0.000 C 
ENDBRANCH  25  29
ENDBRANCH  19  25
ENDBRANCH   1  23
TORSDOF 4
ENDMDL
MODEL 9
REMARK VINA RESULT:      -7.4      2.194      2.665
REMARK  Name = 
REMARK  6 active torsions:
REMARK  status: ('A' for Active; 'I' for Inactive)
REMARK    1  A    between atoms: C_1  and  N_2
REMARK    2  A    between atoms: N_2  and  C_3
REMARK    3  A    between atoms: N_2  and  S_4
REMARK    4  A    between atoms: S_4  and  C_7
REMARK    5  A    between atoms: C_11  and  N_12
REMARK    6  A    between atoms: C_16  and  C_17
REMARK                            x       y       z     vdW  Elec       q    Type
REMARK                         _______ _______ _______ _____ _____    ______ ____
ROOT
ATOM      1  N   UNL     1       0.665   9.211  20.140  0.00  0.00    +0.000 N 
ATOM      2  C   UNL     1       0.806   8.810  21.449  0.00  0.00    +0.000 C 
ATOM      3  O   UNL     1       0.169   9.124  22.442  0.00  0.00    +0.000 OA
ATOM      4  N   UNL     1       1.811   7.870  21.523  0.00  0.00    +0.000 N 
ATOM      5  C   UNL     1       2.358   7.578  20.237  0.00  0.00    +0.000 C 
ATOM      6  C   UNL     1       1.612   8.554  19.361  0.00  0.00    +0.000 C 
ATOM      7  O   UNL     1       1.866   8.716  18.176  0.00  0.00    +0.000 OA
ATOM      8  H   UNL     1       1.991   7.365  22.383  0.00  0.00    +0.000 HD
ENDROOT
BRANCH   5   9
ATOM      9  C   UNL     1       2.242   6.107  19.890  0.00  0.00    +0.000 A 
ATOM     10  C   UNL     1       1.248   5.382  20.584  0.00  0.00    +0.000 A 
ATOM     11  C   UNL     1       0.840   4.130  20.148  0.00  0.00    +0.000 A 
ATOM     12  C   UNL     1       1.310   3.658  18.930  0.00  0.00    +0.000 A 
ATOM     13  C   UNL     1       2.339   4.330  18.253  0.00  0.00    +0.000 A 
ATOM     14  C   UNL     1       2.803   3.815  17.038  0.00  0.00    +0.000 A 
ATOM     15  C   UNL     1       4.113   4.053  16.650  0.00  0.00    +0.000 A 
ATOM     16  C   UNL     1       4.850   5.018  17.317  0.00  0.00    +0.000 A 
ATOM     17  C   UNL     1       4.227   5.801  18.298  0.00  0.00    +0.000 A 
ATOM     18  C   UNL     1       2.949   5.462  18.823  0.00  0.00    +0.000 A 
ENDBRANCH   5   9
BRANCH   1  23
ATOM     19  C   UNL     1      -1.673  12.091  19.822  0.00  0.00    +0.000 A 
ATOM     20  C   UNL     1      -2.226  11.878  18.565  0.00  0.00    +0.000 A 
ATOM     21  C   UNL     1      -1.887  10.729  17.858  0.00  0.00    +0.000 A 
ATOM     22  C   UNL     1      -0.959   9.821  18.386  0.00  0.00    +0.000 A 
ATOM     23  C   UNL     1      -0.372  10.038  19.643  0.00  0.00    +0.000 A 
ATOM     24  C   UNL     1      -0.762  11.180  20.361  0.00  0.00    +0.000 A 
BRANCH  19  25
ATOM     25  S   UNL     1      -1.994  13.593  20.727  0.00  0.00    +0.000 S 
ATOM     26  O   UNL     1      -1.445  14.674  19.939  0.00  0.00    +0.000 OA
ATOM     27  O   UNL     1      -1.573  13.388  22.088  0.00  0.00    +0.000 OA
BRANCH  25  29
ATOM     28  C   UNL     1      -4.446  12.687  21.422  0.00  0.00    +0.000 C 
ATOM     29  N   UNL     1      -3.687  13.717  20.695  0.00  0.00    +0.000 NA
ATOM     30  C   UNL     1      -4.254  15.068  20.816  0.00  0.00    +0.000 C 
ENDBRANCH  25  29
ENDBRANCH  19  25
ENDBRANCH   1  23
TORSDOF 4
ENDMDL
