MODEL 1
REMARK VINA RESULT:      -9.2      0.000      0.000
REMARK  Name = 
REMARK  6 active torsions:
REMARK  status: ('A' for Active; 'I' for Inactive)
REMARK    1  A    between atoms: C_2  and  C_7
REMARK    2  A    between atoms: N_3  and  C_4
REMARK    3  A    between atoms: C_10  and  C_11
REMARK    4  A    between atoms: N_15  and  C_16
REMARK    5  A    between atoms: C_16  and  C_17
REMARK    6  A    between atoms: C_21  and  C_22
REMARK                            x       y       z     vdW  Elec       q    Type
REMARK                         _______ _______ _______ _____ _____    ______ ____
ROOT
ATOM      1  C   UNL     1       4.807   4.561  19.206  0.00  0.00    +0.000 C 
ATOM      2  C   UNL     1       4.466   3.078  19.177  0.00  0.00    +0.000 C 
ATOM      3  C   UNL     1       3.458   2.944  20.294  0.00  0.00    +0.000 C 
ATOM      4  C   UNL     1       2.684   4.254  20.256  0.00  0.00    +0.000 C 
ATOM      5  N   UNL     1       3.530   5.254  19.574  0.00  0.00    +0.000 NA
ENDROOT
BRANCH   1   9
ATOM      6  C   UNL     1       6.344   5.242  16.034  0.00  0.00    +0.000 A 
ATOM      7  N   UNL     1       6.295   6.488  16.532  0.00  0.00    +0.000 NA
ATOM      8  O   UNL     1       5.731   6.321  17.795  0.00  0.00    +0.000 OA
ATOM      9  C   UNL     1       5.503   4.987  17.949  0.00  0.00    +0.000 A 
ATOM     10  N   UNL     1       5.906   4.268  16.919  0.00  0.00    +0.000 NA
BRANCH   6  12
ATOM     11  O   UNL     1       7.756   5.396  14.119  0.00  0.00    +0.000 OA
ATOM     12  C   UNL     1       6.752   4.936  14.654  0.00  0.00    +0.000 C 
ATOM     13  N   UNL     1       5.865   4.088  14.000  0.00  0.00    +0.000 N 
ATOM     14  H   UNL     1       5.055   3.773  14.523  0.00  0.00    +0.000 HD
BRANCH  13  15
ATOM     15  C   UNL     1       5.992   3.766  12.616  0.00  0.00    +0.000 C 
ATOM     16  C   UNL     1       4.762   3.472  11.801  0.00  0.00    +0.000 C 
ATOM     17  C   UNL     1       5.743   2.376  12.100  0.00  0.00    +0.000 C 
ENDBRANCH  13  15
ENDBRANCH   6  12
ENDBRANCH   1   9
BRANCH   5  18
ATOM     18  C   UNL     1       2.832   5.859  18.429  0.00  0.00    +0.000 C 
BRANCH  18  19
ATOM     19  C   UNL     1       2.495   7.330  18.561  0.00  0.00    +0.000 A 
ATOM     20  C   UNL     1       2.682   8.212  17.492  0.00  0.00    +0.000 A 
ATOM     21  C   UNL     1       2.171   9.506  17.555  0.00  0.00    +0.000 A 
ATOM     22  C   UNL     1       1.486   9.941  18.696  0.00  0.00    +0.000 A 
ATOM     23  C   UNL     1       1.321   9.099  19.810  0.00  0.00    +0.000 A 
ATOM     24  C   UNL     1       1.832   7.792  19.713  0.00  0.00    +0.000 A 
BRANCH  23  25
ATOM     25  C   UNL     1       0.616   9.547  21.027  0.00  0.00    +0.000 A 
ATOM     26  C   UNL     1      -0.443  10.464  20.972  0.00  0.00    +0.000 A 
ATOM     27  C   UNL     1      -1.075  10.894  22.138  0.00  0.00    +0.000 A 
ATOM     28  C   UNL     1      -0.637  10.384  23.347  0.00  0.00    +0.000 A 
ATOM     29  N   UNL     1       0.369   9.494  23.458  0.00  0.00    +0.000 NA
ATOM     30  C   UNL     1       0.966   9.102  22.304  0.00  0.00    +0.000 A 
ENDBRANCH  23  25
ENDBRANCH  18  19
ENDBRANCH   5  18
TORSDOF 6
ENDMDL
MODEL 2
REMARK VINA RESULT:      -9.0      0.952      1.120
REMARK  Name = 
REMARK  6 active torsions:
REMARK  status: ('A' for Active; 'I' for Inactive)
REMARK    1  A    between atoms: C_2  and  C_7
REMARK    2  A    between atoms: N_3  and  C_4
REMARK    3  A    between atoms: C_10  and  C_11
REMARK    4  A    between atoms: N_15  and  C_16
REMARK    5  A    between atoms: C_16  and  C_17
REMARK    6  A    between atoms: C_21  and  C_22
REMARK                            x       y       z     vdW  Elec       q    Type
REMARK                         _______ _______ _______ _____ _____    ______ ____
ROOT
ATOM      1  C   UNL     1       4.184   4.055  19.582  0.00  0.00    +0.000 C 
ATOM      2  C   UNL     1       3.527   2.688  19.453  0.00  0.00    +0.000 C 
ATOM      3  C   UNL     1       2.300   2.823  20.325  0.00  0.00    +0.000 C 
ATOM      4  C   UNL     1       1.874   4.272  20.144  0.00  0.00    +0.000 C 
ATOM      5  N   UNL     1       3.052   5.031  19.678  0.00  0.00    +0.000 NA
ENDROOT
BRANCH   1   9
ATOM      6  C   UNL     1       6.344   4.566  16.760  0.00  0.00    +0.000 A 
ATOM      7  N   UNL     1       7.142   5.022  17.739  0.00  0.00    +0.000 NA
ATOM      8  O   UNL     1       6.390   4.835  18.897  0.00  0.00    +0.000 OA
ATOM      9  C   UNL     1       5.212   4.271  18.512  0.00  0.00    +0.000 A 
ATOM     10  N   UNL     1       5.147   4.035  17.216  0.00  0.00    +0.000 NA
BRANCH   6  12
ATOM     11  O   UNL     1       7.647   5.283  14.896  0.00  0.00    +0.000 OA
ATOM     12  C   UNL     1       6.668   4.682  15.330  0.00  0.00    +0.000 C 
ATOM     13  N   UNL     1       5.733   4.064  14.508  0.00  0.00    +0.000 N 
ATOM     14  H   UNL     1       4.950   3.606  14.961  0.00  0.00    +0.000 HD
BRANCH  13  15
ATOM     15  C   UNL     1       5.776   4.164  13.085  0.00  0.00    +0.000 C 
ATOM     16  C   UNL     1       4.870   3.305  12.247  0.00  0.00    +0.000 C 
ATOM     17  C   UNL     1       6.352   3.070  12.231  0.00  0.00    +0.000 C 
ENDBRANCH  13  15
ENDBRANCH   6  12
ENDBRANCH   1   9
BRANCH   5  18
ATOM     18  C   UNL     1       2.772   5.742  18.421  0.00  0.00    +0.000 C 
BRANCH  18  19
ATOM     19  C   UNL     1       2.498   7.227  18.547  0.00  0.00    +0.000 A 
ATOM     20  C   UNL     1       2.768   8.102  17.490  0.00  0.00    +0.000 A 
ATOM     21  C   UNL     1       2.314   9.419  17.539  0.00  0.00    +0.000 A 
ATOM     22  C   UNL     1       1.605   9.880  18.654  0.00  0.00    +0.000 A 
ATOM     23  C   UNL     1       1.357   9.044  19.756  0.00  0.00    +0.000 A 
ATOM     24  C   UNL     1       1.812   7.715  19.674  0.00  0.00    +0.000 A 
BRANCH  23  25
ATOM     25  C   UNL     1       0.626   9.520  20.947  0.00  0.00    +0.000 A 
ATOM     26  C   UNL     1       0.042   8.630  21.860  0.00  0.00    +0.000 A 
ATOM     27  C   UNL     1      -0.668   9.104  22.962  0.00  0.00    +0.000 A 
ATOM     28  C   UNL     1      -0.772  10.472  23.137  0.00  0.00    +0.000 A 
ATOM     29  N   UNL     1      -0.223  11.372  22.298  0.00  0.00    +0.000 NA
ATOM     30  C   UNL     1       0.456  10.877  21.232  0.00  0.00    +0.000 A 
ENDBRANCH  23  25
ENDBRANCH  18  19
ENDBRANCH   5  18
TORSDOF 6
ENDMDL
MODEL 3
REMARK VINA RESULT:      -8.5      1.252      1.637
REMARK  Name = 
REMARK  6 active torsions:
REMARK  status: ('A' for Active; 'I' for Inactive)
REMARK    1  A    between atoms: C_2  and  C_7
REMARK    2  A    between atoms: N_3  and  C_4
REMARK    3  A    between atoms: C_10  and  C_11
REMARK    4  A    between atoms: N_15  and  C_16
REMARK    5  A    between atoms: C_16  and  C_17
REMARK    6  A    between atoms: C_21  and  C_22
REMARK                            x       y       z     vdW  Elec       q    Type
REMARK                         _______ _______ _______ _____ _____    ______ ____
ROOT
ATOM      1  C   UNL     1       3.393   4.181  20.327  0.00  0.00    +0.000 C 
ATOM      2  C   UNL     1       2.882   2.770  20.075  0.00  0.00    +0.000 C 
ATOM      3  C   UNL     1       1.467   2.826  20.605  0.00  0.00    +0.000 C 
ATOM      4  C   UNL     1       1.006   4.240  20.282  0.00  0.00    +0.000 C 
ATOM      5  N   UNL     1       2.211   5.076  20.108  0.00  0.00    +0.000 NA
ENDROOT
BRANCH   1   9
ATOM      6  C   UNL     1       6.229   4.617  18.170  0.00  0.00    +0.000 A 
ATOM      7  N   UNL     1       6.387   5.686  18.968  0.00  0.00    +0.000 NA
ATOM      8  O   UNL     1       5.333   5.586  19.873  0.00  0.00    +0.000 OA
ATOM      9  C   UNL     1       4.642   4.458  19.546  0.00  0.00    +0.000 A 
ATOM     10  N   UNL     1       5.175   3.794  18.540  0.00  0.00    +0.000 NA
BRANCH   6  12
ATOM     11  O   UNL     1       8.260   4.197  16.993  0.00  0.00    +0.000 OA
ATOM     12  C   UNL     1       7.045   4.373  16.971  0.00  0.00    +0.000 C 
ATOM     13  N   UNL     1       6.302   4.388  15.795  0.00  0.00    +0.000 N 
ATOM     14  H   UNL     1       5.306   4.556  15.880  0.00  0.00    +0.000 HD
BRANCH  13  15
ATOM     15  C   UNL     1       6.907   4.306  14.505  0.00  0.00    +0.000 C 
ATOM     16  C   UNL     1       6.343   5.107  13.363  0.00  0.00    +0.000 C 
ATOM     17  C   UNL     1       6.231   3.610  13.357  0.00  0.00    +0.000 C 
ENDBRANCH  13  15
ENDBRANCH   6  12
ENDBRANCH   1   9
BRANCH   5  18
ATOM     18  C   UNL     1       2.214   5.753  18.801  0.00  0.00    +0.000 C 
BRANCH  18  19
ATOM     19  C   UNL     1       2.096   7.263  18.837  0.00  0.00    +0.000 A 
ATOM     20  C   UNL     1       2.520   8.045  17.759  0.00  0.00    +0.000 A 
ATOM     21  C   UNL     1       2.211   9.403  17.715  0.00  0.00    +0.000 A 
ATOM     22  C   UNL     1       1.494   9.998  18.760  0.00  0.00    +0.000 A 
ATOM     23  C   UNL     1       1.094   9.254  19.884  0.00  0.00    +0.000 A 
ATOM     24  C   UNL     1       1.405   7.882  19.895  0.00  0.00    +0.000 A 
BRANCH  23  25
ATOM     25  C   UNL     1       0.353   9.870  21.002  0.00  0.00    +0.000 A 
ATOM     26  C   UNL     1      -0.566  10.910  20.796  0.00  0.00    +0.000 A 
ATOM     27  C   UNL     1      -1.234  11.494  21.871  0.00  0.00    +0.000 A 
ATOM     28  C   UNL     1      -0.973  11.017  23.143  0.00  0.00    +0.000 A 
ATOM     29  N   UNL     1      -0.109  10.015  23.398  0.00  0.00    +0.000 NA
ATOM     30  C   UNL     1       0.528   9.473  22.329  0.00  0.00    +0.000 A 
ENDBRANCH  23  25
ENDBRANCH  18  19
ENDBRANCH   5  18
TORSDOF 6
ENDMDL
MODEL 4
REMARK VINA RESULT:      -8.5      2.610      8.330
REMARK  Name = 
REMARK  6 active torsions:
REMARK  status: ('A' for Active; 'I' for Inactive)
REMARK    1  A    between atoms: C_2  and  C_7
REMARK    2  A    between atoms: N_3  and  C_4
REMARK    3  A    between atoms: C_10  and  C_11
REMARK    4  A    between atoms: N_15  and  C_16
REMARK    5  A    between atoms: C_16  and  C_17
REMARK    6  A    between atoms: C_21  and  C_22
REMARK                            x       y       z     vdW  Elec       q    Type
REMARK                         _______ _______ _______ _____ _____    ______ ____
ROOT
ATOM      1  C   UNL     1       2.090   4.024  18.558  0.00  0.00    +0.000 C 
ATOM      2  C   UNL     1       1.324   3.238  19.612  0.00  0.00    +0.000 C 
ATOM      3  C   UNL     1       1.742   1.812  19.337  0.00  0.00    +0.000 C 
ATOM      4  C   UNL     1       3.192   1.930  18.887  0.00  0.00    +0.000 C 
ATOM      5  N   UNL     1       3.400   3.311  18.406  0.00  0.00    +0.000 NA
ENDROOT
BRANCH   1   9
ATOM      6  C   UNL     1       2.023   7.591  18.959  0.00  0.00    +0.000 A 
ATOM      7  N   UNL     1       2.002   7.219  20.249  0.00  0.00    +0.000 NA
ATOM      8  O   UNL     1       2.056   5.828  20.197  0.00  0.00    +0.000 OA
ATOM      9  C   UNL     1       2.118   5.488  18.879  0.00  0.00    +0.000 A 
ATOM     10  N   UNL     1       2.152   6.531  18.074  0.00  0.00    +0.000 NA
BRANCH   6  12
ATOM     11  O   UNL     1       2.219   9.401  17.420  0.00  0.00    +0.000 OA
ATOM     12  C   UNL     1       1.850   8.982  18.513  0.00  0.00    +0.000 C 
ATOM     13  N   UNL     1       1.249   9.790  19.472  0.00  0.00    +0.000 N 
ATOM     14  H   UNL     1       0.994   9.353  20.351  0.00  0.00    +0.000 HD
BRANCH  13  15
ATOM     15  C   UNL     1       1.105  11.200  19.305  0.00  0.00    +0.000 C 
ATOM     16  C   UNL     1       0.103  11.952  20.138  0.00  0.00    +0.000 C 
ATOM     17  C   UNL     1      -0.113  11.801  18.660  0.00  0.00    +0.000 C 
ENDBRANCH  13  15
ENDBRANCH   6  12
ENDBRANCH   1   9
BRANCH   5  18
ATOM     18  C   UNL     1       4.516   3.964  19.109  0.00  0.00    +0.000 C 
BRANCH  18  19
ATOM     19  C   UNL     1       5.458   4.777  18.245  0.00  0.00    +0.000 A 
ATOM     20  C   UNL     1       6.334   5.707  18.812  0.00  0.00    +0.000 A 
ATOM     21  C   UNL     1       7.336   6.287  18.036  0.00  0.00    +0.000 A 
ATOM     22  C   UNL     1       7.459   5.959  16.681  0.00  0.00    +0.000 A 
ATOM     23  C   UNL     1       6.566   5.066  16.065  0.00  0.00    +0.000 A 
ATOM     24  C   UNL     1       5.574   4.483  16.874  0.00  0.00    +0.000 A 
BRANCH  23  25
ATOM     25  C   UNL     1       6.671   4.723  14.633  0.00  0.00    +0.000 A 
ATOM     26  C   UNL     1       5.831   3.771  14.037  0.00  0.00    +0.000 A 
ATOM     27  C   UNL     1       5.967   3.443  12.689  0.00  0.00    +0.000 A 
ATOM     28  C   UNL     1       6.945   4.088  11.954  0.00  0.00    +0.000 A 
ATOM     29  N   UNL     1       7.773   5.017  12.470  0.00  0.00    +0.000 NA
ATOM     30  C   UNL     1       7.617   5.307  13.787  0.00  0.00    +0.000 A 
ENDBRANCH  23  25
ENDBRANCH  18  19
ENDBRANCH   5  18
TORSDOF 6
ENDMDL
MODEL 5
REMARK VINA RESULT:      -8.5      3.406      5.463
REMARK  Name = 
REMARK  6 active torsions:
REMARK  status: ('A' for Active; 'I' for Inactive)
REMARK    1  A    between atoms: C_2  and  C_7
REMARK    2  A    between atoms: N_3  and  C_4
REMARK    3  A    between atoms: C_10  and  C_11
REMARK    4  A    between atoms: N_15  and  C_16
REMARK    5  A    between atoms: C_16  and  C_17
REMARK    6  A    between atoms: C_21  and  C_22
REMARK                            x       y       z     vdW  Elec       q    Type
REMARK                         _______ _______ _______ _____ _____    ______ ____
ROOT
ATOM      1  C   UNL     1       6.778   5.023  16.755  0.00  0.00    +0.000 C 
ATOM      2  C   UNL     1       7.009   5.038  15.251  0.00  0.00    +0.000 C 
ATOM      3  C   UNL     1       5.977   4.059  14.743  0.00  0.00    +0.000 C 
ATOM      4  C   UNL     1       4.791   4.252  15.678  0.00  0.00    +0.000 C 
ATOM      5  N   UNL     1       5.299   4.855  16.927  0.00  0.00    +0.000 NA
ENDROOT
BRANCH   1   9
ATOM      6  C   UNL     1       8.146   8.055  18.105  0.00  0.00    +0.000 A 
ATOM      7  N   UNL     1       8.394   7.222  19.128  0.00  0.00    +0.000 NA
ATOM      8  O   UNL     1       7.917   5.992  18.681  0.00  0.00    +0.000 OA
ATOM      9  C   UNL     1       7.437   6.193  17.422  0.00  0.00    +0.000 A 
ATOM     10  N   UNL     1       7.597   7.430  16.995  0.00  0.00    +0.000 NA
BRANCH   6  12
ATOM     11  O   UNL     1       7.757  10.325  17.484  0.00  0.00    +0.000 OA
ATOM     12  C   UNL     1       8.364   9.508  18.171  0.00  0.00    +0.000 C 
ATOM     13  N   UNL     1       9.356   9.869  19.077  0.00  0.00    +0.000 N 
ATOM     14  H   UNL     1       9.811   9.120  19.588  0.00  0.00    +0.000 HD
BRANCH  13  15
ATOM     15  C   UNL     1       9.824  11.210  19.208  0.00  0.00    +0.000 C 
ATOM     16  C   UNL     1      10.751  11.572  20.337  0.00  0.00    +0.000 C 
ATOM     17  C   UNL     1       9.350  12.110  20.315  0.00  0.00    +0.000 C 
ENDBRANCH  13  15
ENDBRANCH   6  12
ENDBRANCH   1   9
BRANCH   5  18
ATOM     18  C   UNL     1       4.593   6.105  17.248  0.00  0.00    +0.000 C 
BRANCH  18  19
ATOM     19  C   UNL     1       3.519   6.004  18.312  0.00  0.00    +0.000 A 
ATOM     20  C   UNL     1       3.232   4.786  18.935  0.00  0.00    +0.000 A 
ATOM     21  C   UNL     1       2.402   4.750  20.052  0.00  0.00    +0.000 A 
ATOM     22  C   UNL     1       1.831   5.929  20.546  0.00  0.00    +0.000 A 
ATOM     23  C   UNL     1       2.056   7.165  19.918  0.00  0.00    +0.000 A 
ATOM     24  C   UNL     1       2.912   7.175  18.801  0.00  0.00    +0.000 A 
BRANCH  23  25
ATOM     25  C   UNL     1       1.449   8.415  20.415  0.00  0.00    +0.000 A 
ATOM     26  C   UNL     1       1.026   9.429  19.544  0.00  0.00    +0.000 A 
ATOM     27  C   UNL     1       0.480  10.613  20.039  0.00  0.00    +0.000 A 
ATOM     28  C   UNL     1       0.358  10.756  21.409  0.00  0.00    +0.000 A 
ATOM     29  N   UNL     1       0.738   9.811  22.292  0.00  0.00    +0.000 NA
ATOM     30  C   UNL     1       1.271   8.675  21.776  0.00  0.00    +0.000 A 
ENDBRANCH  23  25
ENDBRANCH  18  19
ENDBRANCH   5  18
TORSDOF 6
ENDMDL
MODEL 6
REMARK VINA RESULT:      -8.4      1.230      1.575
REMARK  Name = 
REMARK  6 active torsions:
REMARK  status: ('A' for Active; 'I' for Inactive)
REMARK    1  A    between atoms: C_2  and  C_7
REMARK    2  A    between atoms: N_3  and  C_4
REMARK    3  A    between atoms: C_10  and  C_11
REMARK    4  A    between atoms: N_15  and  C_16
REMARK    5  A    between atoms: C_16  and  C_17
REMARK    6  A    between atoms: C_21  and  C_22
REMARK                            x       y       z     vdW  Elec       q    Type
REMARK                         _______ _______ _______ _____ _____    ______ ____
ROOT
ATOM      1  C   UNL     1       3.291   3.668  18.710  0.00  0.00    +0.000 C 
ATOM      2  C   UNL     1       1.968   3.765  17.964  0.00  0.00    +0.000 C 
ATOM      3  C   UNL     1       0.969   3.975  19.078  0.00  0.00    +0.000 C 
ATOM      4  C   UNL     1       1.724   4.816  20.099  0.00  0.00    +0.000 C 
ATOM      5  N   UNL     1       3.168   4.621  19.860  0.00  0.00    +0.000 NA
ENDROOT
BRANCH   1   9
ATOM      6  C   UNL     1       5.815   4.133  16.200  0.00  0.00    +0.000 A 
ATOM      7  N   UNL     1       6.554   4.341  17.302  0.00  0.00    +0.000 NA
ATOM      8  O   UNL     1       5.654   4.150  18.348  0.00  0.00    +0.000 OA
ATOM      9  C   UNL     1       4.456   3.832  17.781  0.00  0.00    +0.000 A 
ATOM     10  N   UNL     1       4.507   3.757  16.466  0.00  0.00    +0.000 NA
BRANCH   6  12
ATOM     11  O   UNL     1       7.008   5.314  14.505  0.00  0.00    +0.000 OA
ATOM     12  C   UNL     1       6.316   4.354  14.834  0.00  0.00    +0.000 C 
ATOM     13  N   UNL     1       5.902   3.375  13.938  0.00  0.00    +0.000 N 
ATOM     14  H   UNL     1       5.320   2.629  14.303  0.00  0.00    +0.000 HD
BRANCH  13  15
ATOM     15  C   UNL     1       6.160   3.459  12.537  0.00  0.00    +0.000 C 
ATOM     16  C   UNL     1       5.028   3.309  11.558  0.00  0.00    +0.000 C 
ATOM     17  C   UNL     1       6.090   2.252  11.644  0.00  0.00    +0.000 C 
ENDBRANCH  13  15
ENDBRANCH   6  12
ENDBRANCH   1   9
BRANCH   5  18
ATOM     18  C   UNL     1       3.856   5.903  19.645  0.00  0.00    +0.000 C 
BRANCH  18  19
ATOM     19  C   UNL     1       2.974   7.071  19.255  0.00  0.00    +0.000 A 
ATOM     20  C   UNL     1       2.738   7.380  17.912  0.00  0.00    +0.000 A 
ATOM     21  C   UNL     1       1.762   8.313  17.570  0.00  0.00    +0.000 A 
ATOM     22  C   UNL     1       1.026   8.964  18.567  0.00  0.00    +0.000 A 
ATOM     23  C   UNL     1       1.270   8.717  19.929  0.00  0.00    +0.000 A 
ATOM     24  C   UNL     1       2.249   7.758  20.247  0.00  0.00    +0.000 A 
BRANCH  23  25
ATOM     25  C   UNL     1       0.515   9.407  20.993  0.00  0.00    +0.000 A 
ATOM     26  C   UNL     1       0.519   8.948  22.319  0.00  0.00    +0.000 A 
ATOM     27  C   UNL     1      -0.224   9.601  23.302  0.00  0.00    +0.000 A 
ATOM     28  C   UNL     1      -0.955  10.717  22.938  0.00  0.00    +0.000 A 
ATOM     29  N   UNL     1      -0.987  11.208  21.683  0.00  0.00    +0.000 NA
ATOM     30  C   UNL     1      -0.258  10.545  20.750  0.00  0.00    +0.000 A 
ENDBRANCH  23  25
ENDBRANCH  18  19
ENDBRANCH   5  18
TORSDOF 6
ENDMDL
MODEL 7
REMARK VINA RESULT:      -8.3      3.426      6.317
REMARK  Name = 
REMARK  6 active torsions:
REMARK  status: ('A' for Active; 'I' for Inactive)
REMARK    1  A    between atoms: C_2  and  C_7
REMARK    2  A    between atoms: N_3  and  C_4
REMARK    3  A    between atoms: C_10  and  C_11
REMARK    4  A    between atoms: N_15  and  C_16
REMARK    5  A    between atoms: C_16  and  C_17
REMARK    6  A    between atoms: C_21  and  C_22
REMARK                            x       y       z     vdW  Elec       q    Type
REMARK                         _______ _______ _______ _____ _____    ______ ____
ROOT
ATOM      1  C   UNL     1       6.898   5.022  16.177  0.00  0.00    +0.000 C 
ATOM      2  C   UNL     1       7.518   5.009  14.787  0.00  0.00    +0.000 C 
ATOM      3  C   UNL     1       6.571   4.130  14.005  0.00  0.00    +0.000 C 
ATOM      4  C   UNL     1       5.203   4.438  14.598  0.00  0.00    +0.000 C 
ATOM      5  N   UNL     1       5.417   4.995  15.949  0.00  0.00    +0.000 NA
ENDROOT
BRANCH   1   9
ATOM      6  C   UNL     1       8.074   7.921  17.938  0.00  0.00    +0.000 A 
ATOM      7  N   UNL     1       8.185   7.005  18.914  0.00  0.00    +0.000 NA
ATOM      8  O   UNL     1       7.772   5.821  18.308  0.00  0.00    +0.000 OA
ATOM      9  C   UNL     1       7.462   6.128  17.017  0.00  0.00    +0.000 A 
ATOM     10  N   UNL     1       7.676   7.394  16.718  0.00  0.00    +0.000 NA
BRANCH   6  12
ATOM     11  O   UNL     1       7.716  10.238  17.503  0.00  0.00    +0.000 OA
ATOM     12  C   UNL     1       8.280   9.362  18.151  0.00  0.00    +0.000 C 
ATOM     13  N   UNL     1       9.208   9.636  19.149  0.00  0.00    +0.000 N 
ATOM     14  H   UNL     1       9.632   8.843  19.618  0.00  0.00    +0.000 HD
BRANCH  13  15
ATOM     15  C   UNL     1       9.661  10.960  19.433  0.00  0.00    +0.000 C 
ATOM     16  C   UNL     1      10.888  11.493  18.747  0.00  0.00    +0.000 C 
ATOM     17  C   UNL     1      10.915  11.217  20.222  0.00  0.00    +0.000 C 
ENDBRANCH  13  15
ENDBRANCH   6  12
ENDBRANCH   1   9
BRANCH   5  18
ATOM     18  C   UNL     1       4.769   6.308  16.099  0.00  0.00    +0.000 C 
BRANCH  18  19
ATOM     19  C   UNL     1       3.953   6.504  17.360  0.00  0.00    +0.000 A 
ATOM     20  C   UNL     1       3.297   7.713  17.613  0.00  0.00    +0.000 A 
ATOM     21  C   UNL     1       2.383   7.806  18.660  0.00  0.00    +0.000 A 
ATOM     22  C   UNL     1       2.131   6.699  19.479  0.00  0.00    +0.000 A 
ATOM     23  C   UNL     1       2.808   5.482  19.286  0.00  0.00    +0.000 A 
ATOM     24  C   UNL     1       3.714   5.411  18.211  0.00  0.00    +0.000 A 
BRANCH  23  25
ATOM     25  C   UNL     1       2.568   4.311  20.151  0.00  0.00    +0.000 A 
ATOM     26  C   UNL     1       1.310   4.055  20.717  0.00  0.00    +0.000 A 
ATOM     27  C   UNL     1       1.114   2.957  21.553  0.00  0.00    +0.000 A 
ATOM     28  C   UNL     1       2.188   2.123  21.802  0.00  0.00    +0.000 A 
ATOM     29  N   UNL     1       3.415   2.314  21.278  0.00  0.00    +0.000 NA
ATOM     30  C   UNL     1       3.572   3.395  20.473  0.00  0.00    +0.000 A 
ENDBRANCH  23  25
ENDBRANCH  18  19
ENDBRANCH   5  18
TORSDOF 6
ENDMDL
MODEL 8
REMARK VINA RESULT:      -8.2      3.634      5.747
REMARK  Name = 
REMARK  6 active torsions:
REMARK  status: ('A' for Active; 'I' for Inactive)
REMARK    1  A    between atoms: C_2  and  C_7
REMARK    2  A    between atoms: N_3  and  C_4
REMARK    3  A    between atoms: C_10  and  C_11
REMARK    4  A    between atoms: N_15  and  C_16
REMARK    5  A    between atoms: C_16  and  C_17
REMARK    6  A    between atoms: C_21  and  C_22
REMARK                            x       y       z     vdW  Elec       q    Type
REMARK                         _______ _______ _______ _____ _____    ______ ____
ROOT
ATOM      1  C   UNL     1       6.604   5.259  16.779  0.00  0.00    +0.000 C 
ATOM      2  C   UNL     1       5.466   5.764  15.903  0.00  0.00    +0.000 C 
ATOM      3  C   UNL     1       4.624   4.526  15.700  0.00  0.00    +0.000 C 
ATOM      4  C   UNL     1       4.751   3.771  17.015  0.00  0.00    +0.000 C 
ATOM      5  N   UNL     1       5.984   4.236  17.682  0.00  0.00    +0.000 NA
ENDROOT
BRANCH   1   9
ATOM      6  C   UNL     1       8.159   8.219  18.087  0.00  0.00    +0.000 A 
ATOM      7  N   UNL     1       8.546   7.331  19.017  0.00  0.00    +0.000 NA
ATOM      8  O   UNL     1       8.007   6.126  18.574  0.00  0.00    +0.000 OA
ATOM      9  C   UNL     1       7.354   6.394  17.409  0.00  0.00    +0.000 A 
ATOM     10  N   UNL     1       7.456   7.653  17.033  0.00  0.00    +0.000 NA
BRANCH   6  12
ATOM     11  O   UNL     1       7.929  10.498  17.423  0.00  0.00    +0.000 OA
ATOM     12  C   UNL     1       8.389   9.667  18.202  0.00  0.00    +0.000 C 
ATOM     13  N   UNL     1       9.209  10.004  19.273  0.00  0.00    +0.000 N 
ATOM     14  H   UNL     1       9.551   9.244  19.851  0.00  0.00    +0.000 HD
BRANCH  13  15
ATOM     15  C   UNL     1       9.671  11.336  19.496  0.00  0.00    +0.000 C 
ATOM     16  C   UNL     1      11.125  11.582  19.792  0.00  0.00    +0.000 C 
ATOM     17  C   UNL     1      10.093  11.811  20.858  0.00  0.00    +0.000 C 
ENDBRANCH  13  15
ENDBRANCH   6  12
ENDBRANCH   1   9
BRANCH   5  18
ATOM     18  C   UNL     1       5.709   4.732  19.039  0.00  0.00    +0.000 C 
BRANCH  18  19
ATOM     19  C   UNL     1       4.251   4.976  19.372  0.00  0.00    +0.000 A 
ATOM     20  C   UNL     1       3.479   3.992  19.997  0.00  0.00    +0.000 A 
ATOM     21  C   UNL     1       2.213   4.303  20.488  0.00  0.00    +0.000 A 
ATOM     22  C   UNL     1       1.696   5.595  20.341  0.00  0.00    +0.000 A 
ATOM     23  C   UNL     1       2.422   6.598  19.675  0.00  0.00    +0.000 A 
ATOM     24  C   UNL     1       3.705   6.261  19.203  0.00  0.00    +0.000 A 
BRANCH  23  25
ATOM     25  C   UNL     1       1.885   7.961  19.496  0.00  0.00    +0.000 A 
ATOM     26  C   UNL     1       1.239   8.643  20.537  0.00  0.00    +0.000 A 
ATOM     27  C   UNL     1       0.715   9.919  20.336  0.00  0.00    +0.000 A 
ATOM     28  C   UNL     1       0.857  10.497  19.087  0.00  0.00    +0.000 A 
ATOM     29  N   UNL     1       1.475   9.892  18.054  0.00  0.00    +0.000 NA
ATOM     30  C   UNL     1       1.968   8.648  18.283  0.00  0.00    +0.000 A 
ENDBRANCH  23  25
ENDBRANCH  18  19
ENDBRANCH   5  18
TORSDOF 6
ENDMDL
MODEL 9
REMARK VINA RESULT:      -8.2      2.648      3.599
REMARK  Name = 
REMARK  6 active torsions:
REMARK  status: ('A' for Active; 'I' for Inactive)
REMARK    1  A    between atoms: C_2  and  C_7
REMARK    2  A    between atoms: N_3  and  C_4
REMARK    3  A    between atoms: C_10  and  C_11
REMARK    4  A    between atoms: N_15  and  C_16
REMARK    5  A    between atoms: C_16  and  C_17
REMARK    6  A    between atoms: C_21  and  C_22
REMARK                            x       y       z     vdW  Elec       q    Type
REMARK                         _______ _______ _______ _____ _____    ______ ____
ROOT
ATOM      1  C   UNL     1       3.704   4.348  20.065  0.00  0.00    +0.000 C 
ATOM      2  C   UNL     1       3.256   2.918  19.798  0.00  0.00    +0.000 C 
ATOM      3  C   UNL     1       1.868   2.884  20.395  0.00  0.00    +0.000 C 
ATOM      4  C   UNL     1       1.318   4.279  20.133  0.00  0.00    +0.000 C 
ATOM      5  N   UNL     1       2.467   5.183  19.926  0.00  0.00    +0.000 NA
ENDROOT
BRANCH   1   9
ATOM      6  C   UNL     1       6.458   5.598  18.132  0.00  0.00    +0.000 A 
ATOM      7  N   UNL     1       6.923   4.371  18.418  0.00  0.00    +0.000 NA
ATOM      8  O   UNL     1       5.895   3.788  19.154  0.00  0.00    +0.000 OA
ATOM      9  C   UNL     1       4.897   4.712  19.233  0.00  0.00    +0.000 A 
ATOM     10  N   UNL     1       5.166   5.826  18.581  0.00  0.00    +0.000 NA
BRANCH   6  12
ATOM     11  O   UNL     1       7.559   6.619  16.279  0.00  0.00    +0.000 OA
ATOM     12  C   UNL     1       7.264   6.637  17.470  0.00  0.00    +0.000 C 
ATOM     13  N   UNL     1       7.685   7.635  18.341  0.00  0.00    +0.000 N 
ATOM     14  H   UNL     1       7.401   7.554  19.311  0.00  0.00    +0.000 HD
BRANCH  13  15
ATOM     15  C   UNL     1       8.585   8.669  17.944  0.00  0.00    +0.000 C 
ATOM     16  C   UNL     1       8.977   9.737  18.928  0.00  0.00    +0.000 C 
ATOM     17  C   UNL     1       8.125  10.086  17.743  0.00  0.00    +0.000 C 
ENDBRANCH  13  15
ENDBRANCH   6  12
ENDBRANCH   1   9
BRANCH   5  18
ATOM     18  C   UNL     1       2.370   5.891  18.641  0.00  0.00    +0.000 C 
BRANCH  18  19
ATOM     19  C   UNL     1       2.183   7.393  18.724  0.00  0.00    +0.000 A 
ATOM     20  C   UNL     1       2.504   8.221  17.644  0.00  0.00    +0.000 A 
ATOM     21  C   UNL     1       2.128   9.562  17.655  0.00  0.00    +0.000 A 
ATOM     22  C   UNL     1       1.448  10.096  18.756  0.00  0.00    +0.000 A 
ATOM     23  C   UNL     1       1.153   9.307  19.881  0.00  0.00    +0.000 A 
ATOM     24  C   UNL     1       1.529   7.952  19.837  0.00  0.00    +0.000 A 
BRANCH  23  25
ATOM     25  C   UNL     1       0.452   9.859  21.057  0.00  0.00    +0.000 A 
ATOM     26  C   UNL     1      -0.047   9.032  22.075  0.00  0.00    +0.000 A 
ATOM     27  C   UNL     1      -0.730   9.574  23.163  0.00  0.00    +0.000 A 
ATOM     28  C   UNL     1      -0.894  10.946  23.216  0.00  0.00    +0.000 A 
ATOM     29  N   UNL     1      -0.428  11.788  22.273  0.00  0.00    +0.000 NA
ATOM     30  C   UNL     1       0.227  11.227  21.225  0.00  0.00    +0.000 A 
ENDBRANCH  23  25
ENDBRANCH  18  19
ENDBRANCH   5  18
TORSDOF 6
ENDMDL
