MODEL 1
REMARK VINA RESULT:      -8.9      0.000      0.000
REMARK  Name = 
REMARK  5 active torsions:
REMARK  status: ('A' for Active; 'I' for Inactive)
REMARK    1  A    between atoms: C_1  and  C_2
REMARK    2  A    between atoms: C_2  and  C_3
REMARK    3  A    between atoms: C_2  and  C_4
REMARK    4  A    between atoms: C_2  and  C_10
REMARK    5  A    between atoms: C_13  and  C_14
REMARK                            x       y       z     vdW  Elec       q    Type
REMARK                         _______ _______ _______ _____ _____    ______ ____
ROOT
ATOM      1  C   UNL     1       3.041   4.601  19.170  0.00  0.00    +0.000 A 
ATOM      2  N   UNL     1       2.360   4.487  20.341  0.00  0.00    +0.000 NA
ATOM      3  O   UNL     1       1.988   5.794  20.640  0.00  0.00    +0.000 OA
ATOM      4  C   UNL     1       2.486   6.596  19.644  0.00  0.00    +0.000 A 
ATOM      5  N   UNL     1       3.165   5.910  18.735  0.00  0.00    +0.000 NA
ENDROOT
BRANCH   4   6
ATOM      6  C   UNL     1       1.940   7.945  19.549  0.00  0.00    +0.000 A 
ATOM      7  C   UNL     1       2.053   8.628  18.321  0.00  0.00    +0.000 A 
ATOM      8  C   UNL     1       1.281   9.772  18.037  0.00  0.00    +0.000 A 
ATOM      9  C   UNL     1       0.326  10.222  18.945  0.00  0.00    +0.000 A 
ATOM     10  C   UNL     1       0.318   9.606  20.175  0.00  0.00    +0.000 A 
ATOM     11  N   UNL     1      -0.292  10.050  21.329  0.00  0.00    +0.000 N 
ATOM     12  C   UNL     1       0.449   9.494  22.357  0.00  0.00    +0.000 A 
ATOM     13  O   UNL     1       0.444   9.901  23.506  0.00  0.00    +0.000 OA
ATOM     14  O   UNL     1       1.239   8.420  21.891  0.00  0.00    +0.000 OA
ATOM     15  C   UNL     1       1.172   8.574  20.512  0.00  0.00    +0.000 A 
ATOM     16  H   UNL     1      -1.267   9.791  21.427  0.00  0.00    +0.000 HD
ENDBRANCH   4   6
BRANCH   1  18
ATOM     17  C   UNL     1       2.568   2.738  17.496  0.00  0.00    +0.000 C 
ATOM     18  C   UNL     1       3.614   3.409  18.423  0.00  0.00    +0.000 C 
ATOM     19  C   UNL     1       4.058   2.291  19.401  0.00  0.00    +0.000 C 
BRANCH  18  20
ATOM     20  C   UNL     1       4.808   3.985  17.618  0.00  0.00    +0.000 A 
ATOM     21  C   UNL     1       4.759   4.145  16.224  0.00  0.00    +0.000 A 
ATOM     22  C   UNL     1       5.857   4.647  15.496  0.00  0.00    +0.000 A 
ATOM     23  C   UNL     1       7.027   5.001  16.152  0.00  0.00    +0.000 A 
ATOM     24  C   UNL     1       7.108   4.867  17.537  0.00  0.00    +0.000 A 
ATOM     25  C   UNL     1       6.016   4.365  18.248  0.00  0.00    +0.000 A 
ENDBRANCH  18  20
ENDBRANCH   1  18
TORSDOF 3
ENDMDL
MODEL 2
REMARK VINA RESULT:      -8.4      1.636      3.330
REMARK  Name = 
REMARK  5 active torsions:
REMARK  status: ('A' for Active; 'I' for Inactive)
REMARK    1  A    between atoms: C_1  and  C_2
REMARK    2  A    between atoms: C_2  and  C_3
REMARK    3  A    between atoms: C_2  and  C_4
REMARK    4  A    between atoms: C_2  and  C_10
REMARK    5  A    between atoms: C_13  and  C_14
REMARK                            x       y       z     vdW  Elec       q    Type
REMARK                         _______ _______ _______ _____ _____    ______ ____
ROOT
ATOM      1  C   UNL     1       3.485   6.232  18.146  0.00  0.00    +0.000 A 
ATOM      2  N   UNL     1       4.164   7.230  17.522  0.00  0.00    +0.000 NA
ATOM      3  O   UNL     1       3.323   8.332  17.640  0.00  0.00    +0.000 OA
ATOM      4  C   UNL     1       2.198   7.914  18.306  0.00  0.00    +0.000 A 
ATOM      5  N   UNL     1       2.240   6.624  18.610  0.00  0.00    +0.000 NA
ENDROOT
BRANCH   4   6
ATOM      6  C   UNL     1       1.331   8.952  18.852  0.00  0.00    +0.000 A 
ATOM      7  C   UNL     1       0.688   9.828  17.954  0.00  0.00    +0.000 A 
ATOM      8  C   UNL     1      -0.401  10.628  18.352  0.00  0.00    +0.000 A 
ATOM      9  C   UNL     1      -0.921  10.522  19.640  0.00  0.00    +0.000 A 
ATOM     10  C   UNL     1      -0.205   9.746  20.523  0.00  0.00    +0.000 A 
ATOM     11  N   UNL     1      -0.318   9.723  21.896  0.00  0.00    +0.000 N 
ATOM     12  C   UNL     1       0.927   9.318  22.346  0.00  0.00    +0.000 A 
ATOM     13  O   UNL     1       1.336   9.489  23.481  0.00  0.00    +0.000 OA
ATOM     14  O   UNL     1       1.673   8.718  21.307  0.00  0.00    +0.000 OA
ATOM     15  C   UNL     1       0.948   9.071  20.176  0.00  0.00    +0.000 A 
ATOM     16  H   UNL     1      -1.034   9.103  22.258  0.00  0.00    +0.000 HD
ENDBRANCH   4   6
BRANCH   1  18
ATOM     17  C   UNL     1       5.376   4.806  19.088  0.00  0.00    +0.000 C 
ATOM     18  C   UNL     1       4.037   4.826  18.307  0.00  0.00    +0.000 C 
ATOM     19  C   UNL     1       4.365   4.189  16.932  0.00  0.00    +0.000 C 
BRANCH  18  20
ATOM     20  C   UNL     1       2.924   4.049  19.058  0.00  0.00    +0.000 A 
ATOM     21  C   UNL     1       1.928   3.331  18.378  0.00  0.00    +0.000 A 
ATOM     22  C   UNL     1       0.906   2.647  19.067  0.00  0.00    +0.000 A 
ATOM     23  C   UNL     1       0.862   2.668  20.453  0.00  0.00    +0.000 A 
ATOM     24  C   UNL     1       1.841   3.361  21.163  0.00  0.00    +0.000 A 
ATOM     25  C   UNL     1       2.847   4.038  20.470  0.00  0.00    +0.000 A 
ENDBRANCH  18  20
ENDBRANCH   1  18
TORSDOF 3
ENDMDL
MODEL 3
REMARK VINA RESULT:      -8.4      2.945      7.765
REMARK  Name = 
REMARK  5 active torsions:
REMARK  status: ('A' for Active; 'I' for Inactive)
REMARK    1  A    between atoms: C_1  and  C_2
REMARK    2  A    between atoms: C_2  and  C_3
REMARK    3  A    between atoms: C_2  and  C_4
REMARK    4  A    between atoms: C_2  and  C_10
REMARK    5  A    between atoms: C_13  and  C_14
REMARK                            x       y       z     vdW  Elec       q    Type
REMARK                         _______ _______ _______ _____ _____    ______ ____
ROOT
ATOM      1  C   UNL     1       1.281   9.406  18.906  0.00  0.00    +0.000 A 
ATOM      2  N   UNL     1       1.709   9.755  17.665  0.00  0.00    +0.000 NA
ATOM      3  O   UNL     1       2.557   8.716  17.298  0.00  0.00    +0.000 OA
ATOM      4  C   UNL     1       2.593   7.832  18.348  0.00  0.00    +0.000 A 
ATOM      5  N   UNL     1       1.847   8.230  19.369  0.00  0.00    +0.000 NA
ENDROOT
BRANCH   4   6
ATOM      6  C   UNL     1       3.131   6.504  18.073  0.00  0.00    +0.000 A 
ATOM      7  C   UNL     1       2.365   5.381  18.446  0.00  0.00    +0.000 A 
ATOM      8  C   UNL     1       2.637   4.097  17.935  0.00  0.00    +0.000 A 
ATOM      9  C   UNL     1       3.638   3.914  16.983  0.00  0.00    +0.000 A 
ATOM     10  C   UNL     1       4.438   5.002  16.724  0.00  0.00    +0.000 A 
ATOM     11  N   UNL     1       5.658   5.009  16.082  0.00  0.00    +0.000 N 
ATOM     12  C   UNL     1       6.318   6.116  16.588  0.00  0.00    +0.000 A 
ATOM     13  O   UNL     1       7.523   6.283  16.530  0.00  0.00    +0.000 OA
ATOM     14  O   UNL     1       5.415   7.003  17.215  0.00  0.00    +0.000 OA
ATOM     15  C   UNL     1       4.266   6.231  17.331  0.00  0.00    +0.000 A 
ATOM     16  H   UNL     1       5.610   5.068  15.071  0.00  0.00    +0.000 HD
ENDBRANCH   4   6
BRANCH   1  18
ATOM     17  C   UNL     1       0.891  11.579  20.180  0.00  0.00    +0.000 C 
ATOM     18  C   UNL     1       0.288  10.232  19.706  0.00  0.00    +0.000 C 
ATOM     19  C   UNL     1      -0.134   9.502  21.007  0.00  0.00    +0.000 C 
BRANCH  18  20
ATOM     20  C   UNL     1      -0.910  10.447  18.745  0.00  0.00    +0.000 A 
ATOM     21  C   UNL     1      -1.115   9.637  17.617  0.00  0.00    +0.000 A 
ATOM     22  C   UNL     1      -2.193   9.853  16.735  0.00  0.00    +0.000 A 
ATOM     23  C   UNL     1      -3.089  10.886  16.966  0.00  0.00    +0.000 A 
ATOM     24  C   UNL     1      -2.924  11.704  18.082  0.00  0.00    +0.000 A 
ATOM     25  C   UNL     1      -1.851  11.483  18.948  0.00  0.00    +0.000 A 
ENDBRANCH  18  20
ENDBRANCH   1  18
TORSDOF 3
ENDMDL
MODEL 4
REMARK VINA RESULT:      -8.3      1.762      3.628
REMARK  Name = 
REMARK  5 active torsions:
REMARK  status: ('A' for Active; 'I' for Inactive)
REMARK    1  A    between atoms: C_1  and  C_2
REMARK    2  A    between atoms: C_2  and  C_3
REMARK    3  A    between atoms: C_2  and  C_4
REMARK    4  A    between atoms: C_2  and  C_10
REMARK    5  A    between atoms: C_13  and  C_14
REMARK                            x       y       z     vdW  Elec       q    Type
REMARK                         _______ _______ _______ _____ _____    ______ ____
ROOT
ATOM      1  C   UNL     1       3.096   6.797  18.244  0.00  0.00    +0.000 A 
ATOM      2  N   UNL     1       3.397   7.651  17.231  0.00  0.00    +0.000 NA
ATOM      3  O   UNL     1       2.569   8.745  17.458  0.00  0.00    +0.000 OA
ATOM      4  C   UNL     1       1.820   8.463  18.573  0.00  0.00    +0.000 A 
ATOM      5  N   UNL     1       2.089   7.265  19.072  0.00  0.00    +0.000 NA
ENDROOT
BRANCH   4   6
ATOM      6  C   UNL     1       1.135   9.583  19.207  0.00  0.00    +0.000 A 
ATOM      7  C   UNL     1       0.789  10.694  18.411  0.00  0.00    +0.000 A 
ATOM      8  C   UNL     1      -0.146  11.654  18.845  0.00  0.00    +0.000 A 
ATOM      9  C   UNL     1      -0.813  11.491  20.058  0.00  0.00    +0.000 A 
ATOM     10  C   UNL     1      -0.374  10.463  20.860  0.00  0.00    +0.000 A 
ATOM     11  N   UNL     1      -0.637  10.278  22.200  0.00  0.00    +0.000 N 
ATOM     12  C   UNL     1       0.440   9.550  22.675  0.00  0.00    +0.000 A 
ATOM     13  O   UNL     1       0.751   9.470  23.850  0.00  0.00    +0.000 OA
ATOM     14  O   UNL     1       1.153   8.947  21.615  0.00  0.00    +0.000 OA
ATOM     15  C   UNL     1       0.644   9.602  20.500  0.00  0.00    +0.000 A 
ATOM     16  H   UNL     1      -1.501   9.789  22.405  0.00  0.00    +0.000 HD
ENDBRANCH   4   6
BRANCH   1  18
ATOM     17  C   UNL     1       5.070   5.584  19.306  0.00  0.00    +0.000 C 
ATOM     18  C   UNL     1       3.792   5.461  18.439  0.00  0.00    +0.000 C 
ATOM     19  C   UNL     1       4.279   4.877  17.087  0.00  0.00    +0.000 C 
BRANCH  18  20
ATOM     20  C   UNL     1       2.727   4.557  19.112  0.00  0.00    +0.000 A 
ATOM     21  C   UNL     1       2.633   4.427  20.506  0.00  0.00    +0.000 A 
ATOM     22  C   UNL     1       1.678   3.585  21.111  0.00  0.00    +0.000 A 
ATOM     23  C   UNL     1       0.794   2.856  20.328  0.00  0.00    +0.000 A 
ATOM     24  C   UNL     1       0.849   2.968  18.941  0.00  0.00    +0.000 A 
ATOM     25  C   UNL     1       1.802   3.803  18.352  0.00  0.00    +0.000 A 
ENDBRANCH  18  20
ENDBRANCH   1  18
TORSDOF 3
ENDMDL
MODEL 5
REMARK VINA RESULT:      -8.3      2.624      7.346
REMARK  Name = 
REMARK  5 active torsions:
REMARK  status: ('A' for Active; 'I' for Inactive)
REMARK    1  A    between atoms: C_1  and  C_2
REMARK    2  A    between atoms: C_2  and  C_3
REMARK    3  A    between atoms: C_2  and  C_4
REMARK    4  A    between atoms: C_2  and  C_10
REMARK    5  A    between atoms: C_13  and  C_14
REMARK                            x       y       z     vdW  Elec       q    Type
REMARK                         _______ _______ _______ _____ _____    ______ ____
ROOT
ATOM      1  C   UNL     1       1.246   9.019  19.063  0.00  0.00    +0.000 A 
ATOM      2  N   UNL     1       1.783   8.724  17.850  0.00  0.00    +0.000 NA
ATOM      3  O   UNL     1       2.540   7.581  18.089  0.00  0.00    +0.000 OA
ATOM      4  C   UNL     1       2.419   7.286  19.424  0.00  0.00    +0.000 A 
ATOM      5  N   UNL     1       1.657   8.159  20.068  0.00  0.00    +0.000 NA
ENDROOT
BRANCH   4   6
ATOM      6  C   UNL     1       2.832   5.952  19.844  0.00  0.00    +0.000 A 
ATOM      7  C   UNL     1       1.975   5.221  20.690  0.00  0.00    +0.000 A 
ATOM      8  C   UNL     1       2.123   3.832  20.874  0.00  0.00    +0.000 A 
ATOM      9  C   UNL     1       3.090   3.125  20.162  0.00  0.00    +0.000 A 
ATOM     10  C   UNL     1       3.981   3.879  19.434  0.00  0.00    +0.000 A 
ATOM     11  N   UNL     1       5.187   3.470  18.906  0.00  0.00    +0.000 N 
ATOM     12  C   UNL     1       5.951   4.623  18.834  0.00  0.00    +0.000 A 
ATOM     13  O   UNL     1       7.165   4.637  18.740  0.00  0.00    +0.000 OA
ATOM     14  O   UNL     1       5.139   5.776  18.923  0.00  0.00    +0.000 OA
ATOM     15  C   UNL     1       3.928   5.257  19.363  0.00  0.00    +0.000 A 
ATOM     16  H   UNL     1       5.131   3.035  17.993  0.00  0.00    +0.000 HD
ENDBRANCH   4   6
BRANCH   1  18
ATOM     17  C   UNL     1      -0.547  10.011  20.579  0.00  0.00    +0.000 C 
ATOM     18  C   UNL     1       0.296  10.183  19.290  0.00  0.00    +0.000 C 
ATOM     19  C   UNL     1      -0.742  10.295  18.143  0.00  0.00    +0.000 C 
BRANCH  18  20
ATOM     20  C   UNL     1       1.214  11.431  19.367  0.00  0.00    +0.000 A 
ATOM     21  C   UNL     1       1.382  12.161  20.554  0.00  0.00    +0.000 A 
ATOM     22  C   UNL     1       2.199  13.308  20.610  0.00  0.00    +0.000 A 
ATOM     23  C   UNL     1       2.868  13.746  19.477  0.00  0.00    +0.000 A 
ATOM     24  C   UNL     1       2.735  13.040  18.283  0.00  0.00    +0.000 A 
ATOM     25  C   UNL     1       1.920  11.907  18.237  0.00  0.00    +0.000 A 
ENDBRANCH  18  20
ENDBRANCH   1  18
TORSDOF 3
ENDMDL
MODEL 6
REMARK VINA RESULT:      -8.2      0.896      1.341
REMARK  Name = 
REMARK  5 active torsions:
REMARK  status: ('A' for Active; 'I' for Inactive)
REMARK    1  A    between atoms: C_1  and  C_2
REMARK    2  A    between atoms: C_2  and  C_3
REMARK    3  A    between atoms: C_2  and  C_4
REMARK    4  A    between atoms: C_2  and  C_10
REMARK    5  A    between atoms: C_13  and  C_14
REMARK                            x       y       z     vdW  Elec       q    Type
REMARK                         _______ _______ _______ _____ _____    ______ ____
ROOT
ATOM      1  C   UNL     1       3.090   4.537  18.516  0.00  0.00    +0.000 A 
ATOM      2  N   UNL     1       1.812   4.472  18.057  0.00  0.00    +0.000 NA
ATOM      3  O   UNL     1       1.284   5.723  18.358  0.00  0.00    +0.000 OA
ATOM      4  C   UNL     1       2.271   6.438  18.990  0.00  0.00    +0.000 A 
ATOM      5  N   UNL     1       3.388   5.739  19.135  0.00  0.00    +0.000 NA
ENDROOT
BRANCH   4   6
ATOM      6  C   UNL     1       2.077   7.880  19.092  0.00  0.00    +0.000 A 
ATOM      7  C   UNL     1       2.393   8.679  17.974  0.00  0.00    +0.000 A 
ATOM      8  C   UNL     1       1.936  10.006  17.860  0.00  0.00    +0.000 A 
ATOM      9  C   UNL     1       1.093  10.548  18.827  0.00  0.00    +0.000 A 
ATOM     10  C   UNL     1       0.895   9.788  19.956  0.00  0.00    +0.000 A 
ATOM     11  N   UNL     1       0.377  10.204  21.165  0.00  0.00    +0.000 N 
ATOM     12  C   UNL     1       0.926   9.343  22.100  0.00  0.00    +0.000 A 
ATOM     13  O   UNL     1       0.985   9.574  23.294  0.00  0.00    +0.000 OA
ATOM     14  O   UNL     1       1.442   8.182  21.481  0.00  0.00    +0.000 OA
ATOM     15  C   UNL     1       1.458   8.540  20.139  0.00  0.00    +0.000 A 
ATOM     16  H   UNL     1      -0.634  10.184  21.229  0.00  0.00    +0.000 HD
ENDBRANCH   4   6
BRANCH   1  18
ATOM     17  C   UNL     1       3.417   2.099  17.848  0.00  0.00    +0.000 C 
ATOM     18  C   UNL     1       4.084   3.398  18.369  0.00  0.00    +0.000 C 
ATOM     19  C   UNL     1       4.702   3.010  19.737  0.00  0.00    +0.000 C 
BRANCH  18  20
ATOM     20  C   UNL     1       5.152   3.932  17.379  0.00  0.00    +0.000 A 
ATOM     21  C   UNL     1       6.417   4.362  17.807  0.00  0.00    +0.000 A 
ATOM     22  C   UNL     1       7.374   4.869  16.904  0.00  0.00    +0.000 A 
ATOM     23  C   UNL     1       7.081   4.952  15.551  0.00  0.00    +0.000 A 
ATOM     24  C   UNL     1       5.839   4.525  15.087  0.00  0.00    +0.000 A 
ATOM     25  C   UNL     1       4.898   4.027  15.991  0.00  0.00    +0.000 A 
ENDBRANCH  18  20
ENDBRANCH   1  18
TORSDOF 3
ENDMDL
MODEL 7
REMARK VINA RESULT:      -8.2      2.527      7.548
REMARK  Name = 
REMARK  5 active torsions:
REMARK  status: ('A' for Active; 'I' for Inactive)
REMARK    1  A    between atoms: C_1  and  C_2
REMARK    2  A    between atoms: C_2  and  C_3
REMARK    3  A    between atoms: C_2  and  C_4
REMARK    4  A    between atoms: C_2  and  C_10
REMARK    5  A    between atoms: C_13  and  C_14
REMARK                            x       y       z     vdW  Elec       q    Type
REMARK                         _______ _______ _______ _____ _____    ______ ____
ROOT
ATOM      1  C   UNL     1       1.388   9.077  18.789  0.00  0.00    +0.000 A 
ATOM      2  N   UNL     1       1.916   8.717  17.590  0.00  0.00    +0.000 NA
ATOM      3  O   UNL     1       2.641   7.565  17.877  0.00  0.00    +0.000 OA
ATOM      4  C   UNL     1       2.513   7.329  19.224  0.00  0.00    +0.000 A 
ATOM      5  N   UNL     1       1.776   8.249  19.829  0.00  0.00    +0.000 NA
ENDROOT
BRANCH   4   6
ATOM      6  C   UNL     1       2.890   6.003  19.699  0.00  0.00    +0.000 A 
ATOM      7  C   UNL     1       2.014   5.333  20.578  0.00  0.00    +0.000 A 
ATOM      8  C   UNL     1       2.124   3.950  20.821  0.00  0.00    +0.000 A 
ATOM      9  C   UNL     1       3.067   3.186  20.137  0.00  0.00    +0.000 A 
ATOM     10  C   UNL     1       3.977   3.882  19.375  0.00  0.00    +0.000 A 
ATOM     11  N   UNL     1       5.169   3.416  18.863  0.00  0.00    +0.000 N 
ATOM     12  C   UNL     1       5.965   4.543  18.739  0.00  0.00    +0.000 A 
ATOM     13  O   UNL     1       7.179   4.518  18.641  0.00  0.00    +0.000 OA
ATOM     14  O   UNL     1       5.187   5.721  18.781  0.00  0.00    +0.000 OA
ATOM     15  C   UNL     1       3.963   5.257  19.246  0.00  0.00    +0.000 A 
ATOM     16  H   UNL     1       5.097   2.945  17.969  0.00  0.00    +0.000 HD
ENDBRANCH   4   6
BRANCH   1  18
ATOM     17  C   UNL     1      -0.752  10.225  18.015  0.00  0.00    +0.000 C 
ATOM     18  C   UNL     1       0.471  10.276  18.966  0.00  0.00    +0.000 C 
ATOM     19  C   UNL     1       1.198  11.599  18.613  0.00  0.00    +0.000 C 
BRANCH  18  20
ATOM     20  C   UNL     1       0.042  10.227  20.456  0.00  0.00    +0.000 A 
ATOM     21  C   UNL     1      -0.165   9.015  21.133  0.00  0.00    +0.000 A 
ATOM     22  C   UNL     1      -0.578   8.979  22.480  0.00  0.00    +0.000 A 
ATOM     23  C   UNL     1      -0.791  10.158  23.177  0.00  0.00    +0.000 A 
ATOM     24  C   UNL     1      -0.585  11.381  22.542  0.00  0.00    +0.000 A 
ATOM     25  C   UNL     1      -0.179  11.406  21.206  0.00  0.00    +0.000 A 
ENDBRANCH  18  20
ENDBRANCH   1  18
TORSDOF 3
ENDMDL
MODEL 8
REMARK VINA RESULT:      -8.2      2.612      7.693
REMARK  Name = 
REMARK  5 active torsions:
REMARK  status: ('A' for Active; 'I' for Inactive)
REMARK    1  A    between atoms: C_1  and  C_2
REMARK    2  A    between atoms: C_2  and  C_3
REMARK    3  A    between atoms: C_2  and  C_4
REMARK    4  A    between atoms: C_2  and  C_10
REMARK    5  A    between atoms: C_13  and  C_14
REMARK                            x       y       z     vdW  Elec       q    Type
REMARK                         _______ _______ _______ _____ _____    ______ ____
ROOT
ATOM      1  C   UNL     1       1.471   9.666  18.872  0.00  0.00    +0.000 A 
ATOM      2  N   UNL     1       2.017   9.409  17.655  0.00  0.00    +0.000 NA
ATOM      3  O   UNL     1       2.476   8.100  17.764  0.00  0.00    +0.000 OA
ATOM      4  C   UNL     1       2.191   7.675  19.037  0.00  0.00    +0.000 A 
ATOM      5  N   UNL     1       1.600   8.614  19.763  0.00  0.00    +0.000 NA
ENDROOT
BRANCH   4   6
ATOM      6  C   UNL     1       2.259   6.239  19.283  0.00  0.00    +0.000 A 
ATOM      7  C   UNL     1       1.653   5.730  20.449  0.00  0.00    +0.000 A 
ATOM      8  C   UNL     1       1.380   4.357  20.603  0.00  0.00    +0.000 A 
ATOM      9  C   UNL     1       1.641   3.465  19.565  0.00  0.00    +0.000 A 
ATOM     10  C   UNL     1       2.333   3.970  18.488  0.00  0.00    +0.000 A 
ATOM     11  N   UNL     1       2.975   3.258  17.498  0.00  0.00    +0.000 N 
ATOM     12  C   UNL     1       3.978   4.101  17.050  0.00  0.00    +0.000 A 
ATOM     13  O   UNL     1       4.958   3.732  16.428  0.00  0.00    +0.000 OA
ATOM     14  O   UNL     1       3.733   5.436  17.444  0.00  0.00    +0.000 OA
ATOM     15  C   UNL     1       2.731   5.289  18.395  0.00  0.00    +0.000 A 
ATOM     16  H   UNL     1       2.388   2.977  16.722  0.00  0.00    +0.000 HD
ENDBRANCH   4   6
BRANCH   1  18
ATOM     17  C   UNL     1       1.544  12.202  18.621  0.00  0.00    +0.000 C 
ATOM     18  C   UNL     1       0.795  10.983  19.218  0.00  0.00    +0.000 C 
ATOM     19  C   UNL     1       0.789  11.227  20.749  0.00  0.00    +0.000 C 
BRANCH  18  20
ATOM     20  C   UNL     1      -0.639  10.852  18.644  0.00  0.00    +0.000 A 
ATOM     21  C   UNL     1      -0.960   9.921  17.644  0.00  0.00    +0.000 A 
ATOM     22  C   UNL     1      -2.261   9.825  17.109  0.00  0.00    +0.000 A 
ATOM     23  C   UNL     1      -3.268  10.659  17.569  0.00  0.00    +0.000 A 
ATOM     24  C   UNL     1      -2.991  11.588  18.569  0.00  0.00    +0.000 A 
ATOM     25  C   UNL     1      -1.698  11.678  19.090  0.00  0.00    +0.000 A 
ENDBRANCH  18  20
ENDBRANCH   1  18
TORSDOF 3
ENDMDL
MODEL 9
REMARK VINA RESULT:      -8.1      2.481      7.455
REMARK  Name = 
REMARK  5 active torsions:
REMARK  status: ('A' for Active; 'I' for Inactive)
REMARK    1  A    between atoms: C_1  and  C_2
REMARK    2  A    between atoms: C_2  and  C_3
REMARK    3  A    between atoms: C_2  and  C_4
REMARK    4  A    between atoms: C_2  and  C_10
REMARK    5  A    between atoms: C_13  and  C_14
REMARK                            x       y       z     vdW  Elec       q    Type
REMARK                         _______ _______ _______ _____ _____    ______ ____
ROOT
ATOM      1  C   UNL     1       1.329   9.301  19.050  0.00  0.00    +0.000 A 
ATOM      2  N   UNL     1       1.730   9.886  17.891  0.00  0.00    +0.000 NA
ATOM      3  O   UNL     1       2.623   8.970  17.344  0.00  0.00    +0.000 OA
ATOM      4  C   UNL     1       2.708   7.916  18.219  0.00  0.00    +0.000 A 
ATOM      5  N   UNL     1       1.953   8.089  19.294  0.00  0.00    +0.000 NA
ENDROOT
BRANCH   4   6
ATOM      6  C   UNL     1       3.305   6.685  17.711  0.00  0.00    +0.000 A 
ATOM      7  C   UNL     1       4.494   6.779  16.961  0.00  0.00    +0.000 A 
ATOM      8  C   UNL     1       5.307   5.654  16.719  0.00  0.00    +0.000 A 
ATOM      9  C   UNL     1       4.989   4.419  17.280  0.00  0.00    +0.000 A 
ATOM     10  C   UNL     1       3.769   4.334  17.910  0.00  0.00    +0.000 A 
ATOM     11  N   UNL     1       3.090   3.188  18.266  0.00  0.00    +0.000 N 
ATOM     12  C   UNL     1       1.755   3.556  18.274  0.00  0.00    +0.000 A 
ATOM     13  O   UNL     1       0.826   2.771  18.212  0.00  0.00    +0.000 OA
ATOM     14  O   UNL     1       1.616   4.961  18.323  0.00  0.00    +0.000 OA
ATOM     15  C   UNL     1       2.899   5.401  18.027  0.00  0.00    +0.000 A 
ATOM     16  H   UNL     1       3.346   2.800  19.167  0.00  0.00    +0.000 HD
ENDBRANCH   4   6
BRANCH   1  18
ATOM     17  C   UNL     1       0.878  11.136  20.761  0.00  0.00    +0.000 C 
ATOM     18  C   UNL     1       0.304   9.923  19.984  0.00  0.00    +0.000 C 
ATOM     19  C   UNL     1      -0.142   8.920  21.079  0.00  0.00    +0.000 C 
BRANCH  18  20
ATOM     20  C   UNL     1      -0.871  10.337  19.060  0.00  0.00    +0.000 A 
ATOM     21  C   UNL     1      -1.177   9.636  17.883  0.00  0.00    +0.000 A 
ATOM     22  C   UNL     1      -2.231  10.033  17.036  0.00  0.00    +0.000 A 
ATOM     23  C   UNL     1      -3.003  11.141  17.353  0.00  0.00    +0.000 A 
ATOM     24  C   UNL     1      -2.736  11.856  18.519  0.00  0.00    +0.000 A 
ATOM     25  C   UNL     1      -1.687  11.456  19.350  0.00  0.00    +0.000 A 
ENDBRANCH  18  20
ENDBRANCH   1  18
TORSDOF 3
ENDMDL
