MODEL 1
REMARK VINA RESULT:      -9.2      0.000      0.000
REMARK  Name = 
REMARK  5 active torsions:
REMARK  status: ('A' for Active; 'I' for Inactive)
REMARK    1  A    between atoms: C_1  and  C_2
REMARK    2  A    between atoms: C_7  and  N_8
REMARK    3  A    between atoms: C_9  and  C_11
REMARK    4  A    between atoms: C_13  and  C_14
REMARK    5  A    between atoms: N_18  and  C_19
REMARK                            x       y       z     vdW  Elec       q    Type
REMARK                         _______ _______ _______ _____ _____    ______ ____
ROOT
ATOM      1  N   UNL     1       2.665   7.072  17.677  0.00  0.00    +0.000 N 
ATOM      2  C   UNL     1       4.040   6.968  17.513  0.00  0.00    +0.000 C 
ATOM      3  O   UNL     1       4.840   7.763  17.991  0.00  0.00    +0.000 OA
ATOM      4  H   UNL     1       2.098   6.302  17.351  0.00  0.00    +0.000 HD
ENDROOT
BRANCH   1  11
ATOM      5  C   UNL     1      -0.792  11.953  22.648  0.00  0.00    +0.000 C 
ATOM      6  C   UNL     1      -0.436  10.719  21.832  0.00  0.00    +0.000 C 
ATOM      7  O   UNL     1       0.218  11.147  20.640  0.00  0.00    +0.000 OA
ATOM      8  C   UNL     1       0.772  10.107  19.942  0.00  0.00    +0.000 A 
ATOM      9  C   UNL     1       1.057  10.339  18.607  0.00  0.00    +0.000 A 
ATOM     10  C   UNL     1       1.664   9.337  17.846  0.00  0.00    +0.000 A 
ATOM     11  C   UNL     1       2.007   8.099  18.407  0.00  0.00    +0.000 A 
ATOM     12  C   UNL     1       1.710   7.870  19.758  0.00  0.00    +0.000 A 
ATOM     13  C   UNL     1       1.117   8.883  20.524  0.00  0.00    +0.000 A 
ATOM     14  N   UNL     1       0.946   8.713  21.902  0.00  0.00    +0.000 N 
ATOM     15  C   UNL     1       0.345   9.689  22.664  0.00  0.00    +0.000 C 
ATOM     16  O   UNL     1       0.366   9.643  23.890  0.00  0.00    +0.000 OA
ATOM     17  H   UNL     1       1.376   7.942  22.394  0.00  0.00    +0.000 HD
ENDBRANCH   1  11
BRANCH   2  18
ATOM     18  C   UNL     1       4.503   5.837  16.743  0.00  0.00    +0.000 A 
ATOM     19  C   UNL     1       5.306   5.783  15.612  0.00  0.00    +0.000 A 
ATOM     20  C   UNL     1       5.696   4.434  15.515  0.00  0.00    +0.000 A 
ATOM     21  N   UNL     1       5.169   3.680  16.473  0.00  0.00    +0.000 NA
ATOM     22  N   UNL     1       4.341   4.515  17.150  0.00  0.00    +0.000 N 
BRANCH  22  23
ATOM     23  C   UNL     1       3.429   3.961  18.094  0.00  0.00    +0.000 A 
ATOM     24  C   UNL     1       2.123   3.662  17.683  0.00  0.00    +0.000 A 
ATOM     25  C   UNL     1       1.214   3.114  18.589  0.00  0.00    +0.000 A 
ATOM     26  C   UNL     1       1.590   2.901  19.914  0.00  0.00    +0.000 A 
ATOM     27  C   UNL     1       2.880   3.223  20.334  0.00  0.00    +0.000 A 
ATOM     28  C   UNL     1       3.806   3.745  19.427  0.00  0.00    +0.000 A 
ENDBRANCH  22  23
BRANCH  20  29
ATOM     29  C   UNL     1       6.661   3.895  14.467  0.00  0.00    +0.000 C 
ATOM     30  C   UNL     1       7.082   4.805  13.328  0.00  0.00    +0.000 C 
ATOM     31  C   UNL     1       6.139   3.684  13.057  0.00  0.00    +0.000 C 
ENDBRANCH  20  29
ENDBRANCH   2  18
TORSDOF 4
ENDMDL
MODEL 2
REMARK VINA RESULT:      -9.0      1.348      2.016
REMARK  Name = 
REMARK  5 active torsions:
REMARK  status: ('A' for Active; 'I' for Inactive)
REMARK    1  A    between atoms: C_1  and  C_2
REMARK    2  A    between atoms: C_7  and  N_8
REMARK    3  A    between atoms: C_9  and  C_11
REMARK    4  A    between atoms: C_13  and  C_14
REMARK    5  A    between atoms: N_18  and  C_19
REMARK                            x       y       z     vdW  Elec       q    Type
REMARK                         _______ _______ _______ _____ _____    ______ ____
ROOT
ATOM      1  N   UNL     1       2.994   6.596  17.607  0.00  0.00    +0.000 N 
ATOM      2  C   UNL     1       4.349   6.587  17.302  0.00  0.00    +0.000 C 
ATOM      3  O   UNL     1       5.148   7.400  17.749  0.00  0.00    +0.000 OA
ATOM      4  H   UNL     1       2.440   5.813  17.289  0.00  0.00    +0.000 HD
ENDROOT
BRANCH   1  11
ATOM      5  C   UNL     1      -0.703  12.377  21.268  0.00  0.00    +0.000 C 
ATOM      6  C   UNL     1       0.276  11.592  20.407  0.00  0.00    +0.000 C 
ATOM      7  O   UNL     1       0.339  10.259  20.910  0.00  0.00    +0.000 OA
ATOM      8  C   UNL     1       1.024   9.415  20.077  0.00  0.00    +0.000 A 
ATOM      9  C   UNL     1       1.497   8.239  20.636  0.00  0.00    +0.000 A 
ATOM     10  C   UNL     1       2.165   7.312  19.834  0.00  0.00    +0.000 A 
ATOM     11  C   UNL     1       2.359   7.535  18.463  0.00  0.00    +0.000 A 
ATOM     12  C   UNL     1       1.882   8.730  17.906  0.00  0.00    +0.000 A 
ATOM     13  C   UNL     1       1.196   9.651  18.709  0.00  0.00    +0.000 A 
ATOM     14  N   UNL     1       0.597  10.777  18.133  0.00  0.00    +0.000 N 
ATOM     15  C   UNL     1      -0.060  11.702  18.911  0.00  0.00    +0.000 C 
ATOM     16  O   UNL     1      -0.754  12.581  18.408  0.00  0.00    +0.000 OA
ATOM     17  H   UNL     1       0.511  10.872  17.131  0.00  0.00    +0.000 HD
ENDBRANCH   1  11
BRANCH   2  18
ATOM     18  C   UNL     1       4.793   5.534  16.418  0.00  0.00    +0.000 A 
ATOM     19  C   UNL     1       5.499   5.595  15.225  0.00  0.00    +0.000 A 
ATOM     20  C   UNL     1       5.936   4.276  15.000  0.00  0.00    +0.000 A 
ATOM     21  N   UNL     1       5.525   3.435  15.942  0.00  0.00    +0.000 NA
ATOM     22  N   UNL     1       4.722   4.181  16.742  0.00  0.00    +0.000 N 
BRANCH  22  23
ATOM     23  C   UNL     1       3.919   3.521  17.716  0.00  0.00    +0.000 A 
ATOM     24  C   UNL     1       2.636   3.087  17.357  0.00  0.00    +0.000 A 
ATOM     25  C   UNL     1       1.832   2.434  18.293  0.00  0.00    +0.000 A 
ATOM     26  C   UNL     1       2.287   2.249  19.597  0.00  0.00    +0.000 A 
ATOM     27  C   UNL     1       3.552   2.704  19.966  0.00  0.00    +0.000 A 
ATOM     28  C   UNL     1       4.375   3.334  19.028  0.00  0.00    +0.000 A 
ENDBRANCH  22  23
BRANCH  20  29
ATOM     29  C   UNL     1       6.830   3.856  13.841  0.00  0.00    +0.000 C 
ATOM     30  C   UNL     1       6.962   4.786  12.649  0.00  0.00    +0.000 C 
ATOM     31  C   UNL     1       6.172   3.531  12.512  0.00  0.00    +0.000 C 
ENDBRANCH  20  29
ENDBRANCH   2  18
TORSDOF 4
ENDMDL
MODEL 3
REMARK VINA RESULT:      -8.9      0.786      1.204
REMARK  Name = 
REMARK  5 active torsions:
REMARK  status: ('A' for Active; 'I' for Inactive)
REMARK    1  A    between atoms: C_1  and  C_2
REMARK    2  A    between atoms: C_7  and  N_8
REMARK    3  A    between atoms: C_9  and  C_11
REMARK    4  A    between atoms: C_13  and  C_14
REMARK    5  A    between atoms: N_18  and  C_19
REMARK                            x       y       z     vdW  Elec       q    Type
REMARK                         _______ _______ _______ _____ _____    ______ ____
ROOT
ATOM      1  N   UNL     1       2.607   7.456  17.745  0.00  0.00    +0.000 N 
ATOM      2  C   UNL     1       3.557   6.602  18.292  0.00  0.00    +0.000 C 
ATOM      3  O   UNL     1       3.966   6.694  19.442  0.00  0.00    +0.000 OA
ATOM      4  H   UNL     1       2.244   7.224  16.831  0.00  0.00    +0.000 HD
ENDROOT
BRANCH   1  11
ATOM      5  C   UNL     1      -0.900  12.569  22.440  0.00  0.00    +0.000 C 
ATOM      6  C   UNL     1      -0.594  11.336  21.603  0.00  0.00    +0.000 C 
ATOM      7  O   UNL     1       0.311  11.714  20.568  0.00  0.00    +0.000 OA
ATOM      8  C   UNL     1       0.819  10.636  19.893  0.00  0.00    +0.000 A 
ATOM      9  C   UNL     1       1.359  10.884  18.643  0.00  0.00    +0.000 A 
ATOM     10  C   UNL     1       1.934   9.839  17.918  0.00  0.00    +0.000 A 
ATOM     11  C   UNL     1       1.992   8.536  18.433  0.00  0.00    +0.000 A 
ATOM     12  C   UNL     1       1.437   8.291  19.698  0.00  0.00    +0.000 A 
ATOM     13  C   UNL     1       0.876   9.346  20.431  0.00  0.00    +0.000 A 
ATOM     14  N   UNL     1       0.448   9.138  21.747  0.00  0.00    +0.000 N 
ATOM     15  C   UNL     1      -0.125  10.157  22.471  0.00  0.00    +0.000 C 
ATOM     16  O   UNL     1      -0.322  10.049  23.678  0.00  0.00    +0.000 OA
ATOM     17  H   UNL     1       0.670   8.286  22.243  0.00  0.00    +0.000 HD
ENDBRANCH   1  11
BRANCH   2  18
ATOM     18  C   UNL     1       4.047   5.558  17.421  0.00  0.00    +0.000 A 
ATOM     19  C   UNL     1       4.919   5.617  16.343  0.00  0.00    +0.000 A 
ATOM     20  C   UNL     1       5.290   4.279  16.109  0.00  0.00    +0.000 A 
ATOM     21  N   UNL     1       4.690   3.432  16.938  0.00  0.00    +0.000 NA
ATOM     22  N   UNL     1       3.835   4.202  17.658  0.00  0.00    +0.000 N 
BRANCH  22  23
ATOM     23  C   UNL     1       2.856   3.564  18.472  0.00  0.00    +0.000 A 
ATOM     24  C   UNL     1       3.192   3.208  19.786  0.00  0.00    +0.000 A 
ATOM     25  C   UNL     1       2.248   2.586  20.604  0.00  0.00    +0.000 A 
ATOM     26  C   UNL     1       0.984   2.280  20.104  0.00  0.00    +0.000 A 
ATOM     27  C   UNL     1       0.654   2.607  18.790  0.00  0.00    +0.000 A 
ATOM     28  C   UNL     1       1.584   3.256  17.972  0.00  0.00    +0.000 A 
ENDBRANCH  22  23
BRANCH  20  29
ATOM     29  C   UNL     1       6.308   3.843  15.065  0.00  0.00    +0.000 C 
ATOM     30  C   UNL     1       6.881   4.888  14.125  0.00  0.00    +0.000 C 
ATOM     31  C   UNL     1       5.901   3.896  13.604  0.00  0.00    +0.000 C 
ENDBRANCH  20  29
ENDBRANCH   2  18
TORSDOF 4
ENDMDL
MODEL 4
REMARK VINA RESULT:      -8.7      1.241      2.204
REMARK  Name = 
REMARK  5 active torsions:
REMARK  status: ('A' for Active; 'I' for Inactive)
REMARK    1  A    between atoms: C_1  and  C_2
REMARK    2  A    between atoms: C_7  and  N_8
REMARK    3  A    between atoms: C_9  and  C_11
REMARK    4  A    between atoms: C_13  and  C_14
REMARK    5  A    between atoms: N_18  and  C_19
REMARK                            x       y       z     vdW  Elec       q    Type
REMARK                         _______ _______ _______ _____ _____    ______ ____
ROOT
ATOM      1  N   UNL     1       2.688   6.896  17.891  0.00  0.00    +0.000 N 
ATOM      2  C   UNL     1       4.046   6.809  17.613  0.00  0.00    +0.000 C 
ATOM      3  O   UNL     1       4.875   7.606  18.035  0.00  0.00    +0.000 OA
ATOM      4  H   UNL     1       2.103   6.125  17.601  0.00  0.00    +0.000 HD
ENDROOT
BRANCH   1  11
ATOM      5  C   UNL     1      -0.779  13.019  21.204  0.00  0.00    +0.000 C 
ATOM      6  C   UNL     1       0.176  12.146  20.404  0.00  0.00    +0.000 C 
ATOM      7  O   UNL     1       0.156  10.835  20.964  0.00  0.00    +0.000 OA
ATOM      8  C   UNL     1       0.814   9.921  20.186  0.00  0.00    +0.000 A 
ATOM      9  C   UNL     1       1.209   8.748  20.807  0.00  0.00    +0.000 A 
ATOM     10  C   UNL     1       1.846   7.752  20.063  0.00  0.00    +0.000 A 
ATOM     11  C   UNL     1       2.084   7.904  18.690  0.00  0.00    +0.000 A 
ATOM     12  C   UNL     1       1.685   9.097  18.069  0.00  0.00    +0.000 A 
ATOM     13  C   UNL     1       1.031  10.087  18.814  0.00  0.00    +0.000 A 
ATOM     14  N   UNL     1       0.508  11.217  18.176  0.00  0.00    +0.000 N 
ATOM     15  C   UNL     1      -0.117  12.208  18.896  0.00  0.00    +0.000 C 
ATOM     16  O   UNL     1      -0.750  13.100  18.338  0.00  0.00    +0.000 OA
ATOM     17  H   UNL     1       0.450  11.271  17.168  0.00  0.00    +0.000 HD
ENDBRANCH   1  11
BRANCH   2  18
ATOM     18  C   UNL     1       4.454   5.695  16.788  0.00  0.00    +0.000 A 
ATOM     19  C   UNL     1       5.231   5.659  15.639  0.00  0.00    +0.000 A 
ATOM     20  C   UNL     1       5.572   4.303  15.479  0.00  0.00    +0.000 A 
ATOM     21  N   UNL     1       5.040   3.530  16.419  0.00  0.00    +0.000 NA
ATOM     22  N   UNL     1       4.254   4.364  17.146  0.00  0.00    +0.000 N 
BRANCH  22  23
ATOM     23  C   UNL     1       3.344   3.803  18.088  0.00  0.00    +0.000 A 
ATOM     24  C   UNL     1       3.776   3.583  19.403  0.00  0.00    +0.000 A 
ATOM     25  C   UNL     1       2.901   3.039  20.344  0.00  0.00    +0.000 A 
ATOM     26  C   UNL     1       1.609   2.675  19.968  0.00  0.00    +0.000 A 
ATOM     27  C   UNL     1       1.184   2.866  18.654  0.00  0.00    +0.000 A 
ATOM     28  C   UNL     1       2.045   3.437  17.712  0.00  0.00    +0.000 A 
ENDBRANCH  22  23
BRANCH  20  29
ATOM     29  C   UNL     1       6.496   3.775  14.390  0.00  0.00    +0.000 C 
ATOM     30  C   UNL     1       6.942   4.721  13.291  0.00  0.00    +0.000 C 
ATOM     31  C   UNL     1       5.945   3.659  12.980  0.00  0.00    +0.000 C 
ENDBRANCH  20  29
ENDBRANCH   2  18
TORSDOF 4
ENDMDL
MODEL 5
REMARK VINA RESULT:      -8.5      2.252      3.020
REMARK  Name = 
REMARK  5 active torsions:
REMARK  status: ('A' for Active; 'I' for Inactive)
REMARK    1  A    between atoms: C_1  and  C_2
REMARK    2  A    between atoms: C_7  and  N_8
REMARK    3  A    between atoms: C_9  and  C_11
REMARK    4  A    between atoms: C_13  and  C_14
REMARK    5  A    between atoms: N_18  and  C_19
REMARK                            x       y       z     vdW  Elec       q    Type
REMARK                         _______ _______ _______ _____ _____    ______ ____
ROOT
ATOM      1  N   UNL     1       2.503   8.208  17.550  0.00  0.00    +0.000 N 
ATOM      2  C   UNL     1       2.888   7.182  18.402  0.00  0.00    +0.000 C 
ATOM      3  O   UNL     1       2.612   7.154  19.595  0.00  0.00    +0.000 OA
ATOM      4  H   UNL     1       2.671   8.080  16.561  0.00  0.00    +0.000 HD
ENDROOT
BRANCH   1  11
ATOM      5  C   UNL     1      -0.558  15.070  19.559  0.00  0.00    +0.000 C 
ATOM      6  C   UNL     1       0.317  13.826  19.512  0.00  0.00    +0.000 C 
ATOM      7  O   UNL     1      -0.440  12.772  18.921  0.00  0.00    +0.000 OA
ATOM      8  C   UNL     1       0.324  11.672  18.634  0.00  0.00    +0.000 A 
ATOM      9  C   UNL     1      -0.352  10.477  18.453  0.00  0.00    +0.000 A 
ATOM     10  C   UNL     1       0.359   9.325  18.115  0.00  0.00    +0.000 A 
ATOM     11  C   UNL     1       1.751   9.349  17.937  0.00  0.00    +0.000 A 
ATOM     12  C   UNL     1       2.428  10.562  18.127  0.00  0.00    +0.000 A 
ATOM     13  C   UNL     1       1.709  11.721  18.450  0.00  0.00    +0.000 A 
ATOM     14  N   UNL     1       2.359  12.960  18.503  0.00  0.00    +0.000 N 
ATOM     15  C   UNL     1       1.672  14.102  18.840  0.00  0.00    +0.000 C 
ATOM     16  O   UNL     1       2.175  15.213  18.700  0.00  0.00    +0.000 OA
ATOM     17  H   UNL     1       3.305  13.071  18.166  0.00  0.00    +0.000 HD
ENDBRANCH   1  11
BRANCH   2  18
ATOM     18  C   UNL     1       3.640   6.105  17.800  0.00  0.00    +0.000 A 
ATOM     19  C   UNL     1       4.572   6.120  16.772  0.00  0.00    +0.000 A 
ATOM     20  C   UNL     1       5.210   4.867  16.849  0.00  0.00    +0.000 A 
ATOM     21  N   UNL     1       4.715   4.102  17.816  0.00  0.00    +0.000 NA
ATOM     22  N   UNL     1       3.672   4.812  18.316  0.00  0.00    +0.000 N 
BRANCH  22  23
ATOM     23  C   UNL     1       2.768   4.166  19.208  0.00  0.00    +0.000 A 
ATOM     24  C   UNL     1       3.153   3.969  20.541  0.00  0.00    +0.000 A 
ATOM     25  C   UNL     1       2.283   3.343  21.434  0.00  0.00    +0.000 A 
ATOM     26  C   UNL     1       1.045   2.877  20.993  0.00  0.00    +0.000 A 
ATOM     27  C   UNL     1       0.669   3.047  19.662  0.00  0.00    +0.000 A 
ATOM     28  C   UNL     1       1.523   3.697  18.767  0.00  0.00    +0.000 A 
ENDBRANCH  22  23
BRANCH  20  29
ATOM     29  C   UNL     1       6.378   4.446  15.968  0.00  0.00    +0.000 C 
ATOM     30  C   UNL     1       6.645   5.222  14.692  0.00  0.00    +0.000 C 
ATOM     31  C   UNL     1       6.066   3.852  14.605  0.00  0.00    +0.000 C 
ENDBRANCH  20  29
ENDBRANCH   2  18
TORSDOF 4
ENDMDL
MODEL 6
REMARK VINA RESULT:      -8.4      1.808      2.937
REMARK  Name = 
REMARK  5 active torsions:
REMARK  status: ('A' for Active; 'I' for Inactive)
REMARK    1  A    between atoms: C_1  and  C_2
REMARK    2  A    between atoms: C_7  and  N_8
REMARK    3  A    between atoms: C_9  and  C_11
REMARK    4  A    between atoms: C_13  and  C_14
REMARK    5  A    between atoms: N_18  and  C_19
REMARK                            x       y       z     vdW  Elec       q    Type
REMARK                         _______ _______ _______ _____ _____    ______ ____
ROOT
ATOM      1  N   UNL     1       2.302   7.828  19.939  0.00  0.00    +0.000 N 
ATOM      2  C   UNL     1       2.338   7.676  18.559  0.00  0.00    +0.000 C 
ATOM      3  O   UNL     1       1.580   8.260  17.795  0.00  0.00    +0.000 OA
ATOM      4  H   UNL     1       3.046   7.401  20.474  0.00  0.00    +0.000 HD
ENDROOT
BRANCH   1  11
ATOM      5  C   UNL     1      -2.961  12.855  22.679  0.00  0.00    +0.000 C 
ATOM      6  C   UNL     1      -1.761  12.252  21.965  0.00  0.00    +0.000 C 
ATOM      7  O   UNL     1      -1.403  11.047  22.638  0.00  0.00    +0.000 OA
ATOM      8  C   UNL     1      -0.474  10.315  21.947  0.00  0.00    +0.000 A 
ATOM      9  C   UNL     1       0.236   9.372  22.671  0.00  0.00    +0.000 A 
ATOM     10  C   UNL     1       1.168   8.560  22.022  0.00  0.00    +0.000 A 
ATOM     11  C   UNL     1       1.395   8.666  20.642  0.00  0.00    +0.000 A 
ATOM     12  C   UNL     1       0.676   9.627  19.917  0.00  0.00    +0.000 A 
ATOM     13  C   UNL     1      -0.271  10.429  20.568  0.00  0.00    +0.000 A 
ATOM     14  N   UNL     1      -1.090  11.290  19.829  0.00  0.00    +0.000 N 
ATOM     15  C   UNL     1      -2.008  12.100  20.456  0.00  0.00    +0.000 C 
ATOM     16  O   UNL     1      -2.862  12.709  19.817  0.00  0.00    +0.000 OA
ATOM     17  H   UNL     1      -1.127  11.243  18.820  0.00  0.00    +0.000 HD
ENDBRANCH   1  11
BRANCH   2  18
ATOM     18  C   UNL     1       3.350   6.781  18.046  0.00  0.00    +0.000 A 
ATOM     19  C   UNL     1       4.428   7.024  17.207  0.00  0.00    +0.000 A 
ATOM     20  C   UNL     1       5.242   5.883  17.331  0.00  0.00    +0.000 A 
ATOM     21  N   UNL     1       4.724   4.973  18.148  0.00  0.00    +0.000 NA
ATOM     22  N   UNL     1       3.508   5.470  18.488  0.00  0.00    +0.000 N 
BRANCH  22  23
ATOM     23  C   UNL     1       2.585   4.622  19.165  0.00  0.00    +0.000 A 
ATOM     24  C   UNL     1       2.676   4.491  20.557  0.00  0.00    +0.000 A 
ATOM     25  C   UNL     1       1.780   3.670  21.243  0.00  0.00    +0.000 A 
ATOM     26  C   UNL     1       0.819   2.946  20.540  0.00  0.00    +0.000 A 
ATOM     27  C   UNL     1       0.741   3.051  19.152  0.00  0.00    +0.000 A 
ATOM     28  C   UNL     1       1.616   3.893  18.460  0.00  0.00    +0.000 A 
ENDBRANCH  22  23
BRANCH  20  29
ATOM     29  C   UNL     1       6.597   5.720  16.654  0.00  0.00    +0.000 C 
ATOM     30  C   UNL     1       6.862   4.462  15.847  0.00  0.00    +0.000 C 
ATOM     31  C   UNL     1       7.526   4.634  17.169  0.00  0.00    +0.000 C 
ENDBRANCH  20  29
ENDBRANCH   2  18
TORSDOF 4
ENDMDL
MODEL 7
REMARK VINA RESULT:      -8.4      1.705      2.713
REMARK  Name = 
REMARK  5 active torsions:
REMARK  status: ('A' for Active; 'I' for Inactive)
REMARK    1  A    between atoms: C_1  and  C_2
REMARK    2  A    between atoms: C_7  and  N_8
REMARK    3  A    between atoms: C_9  and  C_11
REMARK    4  A    between atoms: C_13  and  C_14
REMARK    5  A    between atoms: N_18  and  C_19
REMARK                            x       y       z     vdW  Elec       q    Type
REMARK                         _______ _______ _______ _____ _____    ______ ____
ROOT
ATOM      1  N   UNL     1       2.271   7.745  19.985  0.00  0.00    +0.000 N 
ATOM      2  C   UNL     1       2.316   7.641  18.601  0.00  0.00    +0.000 C 
ATOM      3  O   UNL     1       1.563   8.251  17.853  0.00  0.00    +0.000 OA
ATOM      4  H   UNL     1       3.012   7.300  20.510  0.00  0.00    +0.000 HD
ENDROOT
BRANCH   1  11
ATOM      5  C   UNL     1      -2.244  13.138  23.304  0.00  0.00    +0.000 C 
ATOM      6  C   UNL     1      -1.035  12.361  22.804  0.00  0.00    +0.000 C 
ATOM      7  O   UNL     1      -1.401  10.987  22.701  0.00  0.00    +0.000 OA
ATOM      8  C   UNL     1      -0.455  10.238  22.055  0.00  0.00    +0.000 A 
ATOM      9  C   UNL     1      -0.502   8.869  22.258  0.00  0.00    +0.000 A 
ATOM     10  C   UNL     1       0.405   8.040  21.595  0.00  0.00    +0.000 A 
ATOM     11  C   UNL     1       1.361   8.560  20.711  0.00  0.00    +0.000 A 
ATOM     12  C   UNL     1       1.406   9.948  20.515  0.00  0.00    +0.000 A 
ATOM     13  C   UNL     1       0.484  10.776  21.168  0.00  0.00    +0.000 A 
ATOM     14  N   UNL     1       0.432  12.143  20.871  0.00  0.00    +0.000 N 
ATOM     15  C   UNL     1      -0.453  12.972  21.519  0.00  0.00    +0.000 C 
ATOM     16  O   UNL     1      -0.648  14.122  21.135  0.00  0.00    +0.000 OA
ATOM     17  H   UNL     1       0.937  12.529  20.085  0.00  0.00    +0.000 HD
ENDBRANCH   1  11
BRANCH   2  18
ATOM     18  C   UNL     1       3.330   6.763  18.064  0.00  0.00    +0.000 A 
ATOM     19  C   UNL     1       4.396   7.027  17.217  0.00  0.00    +0.000 A 
ATOM     20  C   UNL     1       5.222   5.891  17.315  0.00  0.00    +0.000 A 
ATOM     21  N   UNL     1       4.721   4.965  18.125  0.00  0.00    +0.000 NA
ATOM     22  N   UNL     1       3.504   5.446  18.485  0.00  0.00    +0.000 N 
BRANCH  22  23
ATOM     23  C   UNL     1       2.596   4.580  19.159  0.00  0.00    +0.000 A 
ATOM     24  C   UNL     1       1.665   3.852  18.406  0.00  0.00    +0.000 A 
ATOM     25  C   UNL     1       0.768   2.994  19.044  0.00  0.00    +0.000 A 
ATOM     26  C   UNL     1       0.769   2.891  20.434  0.00  0.00    +0.000 A 
ATOM     27  C   UNL     1       1.675   3.634  21.189  0.00  0.00    +0.000 A 
ATOM     28  C   UNL     1       2.595   4.474  20.557  0.00  0.00    +0.000 A 
ENDBRANCH  22  23
BRANCH  20  29
ATOM     29  C   UNL     1       6.570   5.750  16.621  0.00  0.00    +0.000 C 
ATOM     30  C   UNL     1       6.835   4.509  15.790  0.00  0.00    +0.000 C 
ATOM     31  C   UNL     1       7.513   4.664  17.107  0.00  0.00    +0.000 C 
ENDBRANCH  20  29
ENDBRANCH   2  18
TORSDOF 4
ENDMDL
MODEL 8
REMARK VINA RESULT:      -8.3      2.289      3.838
REMARK  Name = 
REMARK  5 active torsions:
REMARK  status: ('A' for Active; 'I' for Inactive)
REMARK    1  A    between atoms: C_1  and  C_2
REMARK    2  A    between atoms: C_7  and  N_8
REMARK    3  A    between atoms: C_9  and  C_11
REMARK    4  A    between atoms: C_13  and  C_14
REMARK    5  A    between atoms: N_18  and  C_19
REMARK                            x       y       z     vdW  Elec       q    Type
REMARK                         _______ _______ _______ _____ _____    ______ ____
ROOT
ATOM      1  N   UNL     1       3.815   6.768  17.392  0.00  0.00    +0.000 N 
ATOM      2  C   UNL     1       3.968   5.388  17.400  0.00  0.00    +0.000 C 
ATOM      3  O   UNL     1       3.343   4.643  18.144  0.00  0.00    +0.000 OA
ATOM      4  H   UNL     1       4.282   7.284  16.659  0.00  0.00    +0.000 HD
ENDROOT
BRANCH   1  11
ATOM      5  C   UNL     1      -1.215  11.464  21.017  0.00  0.00    +0.000 C 
ATOM      6  C   UNL     1      -0.017  10.939  20.240  0.00  0.00    +0.000 C 
ATOM      7  O   UNL     1       0.190   9.577  20.608  0.00  0.00    +0.000 OA
ATOM      8  C   UNL     1       1.107   8.949  19.808  0.00  0.00    +0.000 A 
ATOM      9  C   UNL     1       1.681   7.794  20.310  0.00  0.00    +0.000 A 
ATOM     10  C   UNL     1       2.590   7.078  19.529  0.00  0.00    +0.000 A 
ATOM     11  C   UNL     1       2.929   7.494  18.233  0.00  0.00    +0.000 A 
ATOM     12  C   UNL     1       2.346   8.667  17.734  0.00  0.00    +0.000 A 
ATOM     13  C   UNL     1       1.421   9.375  18.513  0.00  0.00    +0.000 A 
ATOM     14  N   UNL     1       0.733  10.466  17.970  0.00  0.00    +0.000 N 
ATOM     15  C   UNL     1      -0.162  11.184  18.729  0.00  0.00    +0.000 C 
ATOM     16  O   UNL     1      -0.913  12.009  18.218  0.00  0.00    +0.000 OA
ATOM     17  H   UNL     1       0.768  10.669  16.981  0.00  0.00    +0.000 HD
ENDBRANCH   1  11
BRANCH   2  18
ATOM     18  C   UNL     1       4.916   4.849  16.452  0.00  0.00    +0.000 A 
ATOM     19  C   UNL     1       4.751   3.913  15.442  0.00  0.00    +0.000 A 
ATOM     20  C   UNL     1       5.903   4.039  14.644  0.00  0.00    +0.000 A 
ATOM     21  N   UNL     1       6.750   4.950  15.112  0.00  0.00    +0.000 NA
ATOM     22  N   UNL     1       6.203   5.356  16.285  0.00  0.00    +0.000 N 
BRANCH  22  23
ATOM     23  C   UNL     1       6.986   6.155  17.167  0.00  0.00    +0.000 A 
ATOM     24  C   UNL     1       7.473   5.584  18.351  0.00  0.00    +0.000 A 
ATOM     25  C   UNL     1       8.246   6.346  19.228  0.00  0.00    +0.000 A 
ATOM     26  C   UNL     1       8.501   7.688  18.949  0.00  0.00    +0.000 A 
ATOM     27  C   UNL     1       7.996   8.267  17.786  0.00  0.00    +0.000 A 
ATOM     28  C   UNL     1       7.245   7.504  16.888  0.00  0.00    +0.000 A 
ENDBRANCH  22  23
BRANCH  20  29
ATOM     29  C   UNL     1       6.140   3.267  13.353  0.00  0.00    +0.000 C 
ATOM     30  C   UNL     1       6.738   3.998  12.166  0.00  0.00    +0.000 C 
ATOM     31  C   UNL     1       5.297   3.624  12.142  0.00  0.00    +0.000 C 
ENDBRANCH  20  29
ENDBRANCH   2  18
TORSDOF 4
ENDMDL
MODEL 9
REMARK VINA RESULT:      -8.3      2.450      3.431
REMARK  Name = 
REMARK  5 active torsions:
REMARK  status: ('A' for Active; 'I' for Inactive)
REMARK    1  A    between atoms: C_1  and  C_2
REMARK    2  A    between atoms: C_7  and  N_8
REMARK    3  A    between atoms: C_9  and  C_11
REMARK    4  A    between atoms: C_13  and  C_14
REMARK    5  A    between atoms: N_18  and  C_19
REMARK                            x       y       z     vdW  Elec       q    Type
REMARK                         _______ _______ _______ _____ _____    ______ ____
ROOT
ATOM      1  N   UNL     1       1.716   8.755  18.589  0.00  0.00    +0.000 N 
ATOM      2  C   UNL     1       2.173   7.599  19.209  0.00  0.00    +0.000 C 
ATOM      3  O   UNL     1       1.829   7.253  20.332  0.00  0.00    +0.000 OA
ATOM      4  H   UNL     1       1.960   8.890  17.617  0.00  0.00    +0.000 HD
ENDROOT
BRANCH   1  11
ATOM      5  C   UNL     1      -4.004  13.548  20.779  0.00  0.00    +0.000 C 
ATOM      6  C   UNL     1      -2.913  12.859  19.973  0.00  0.00    +0.000 C 
ATOM      7  O   UNL     1      -1.987  12.273  20.886  0.00  0.00    +0.000 OA
ATOM      8  C   UNL     1      -1.089  11.447  20.266  0.00  0.00    +0.000 A 
ATOM      9  C   UNL     1       0.075  11.163  20.961  0.00  0.00    +0.000 A 
ATOM     10  C   UNL     1       1.015  10.291  20.408  0.00  0.00    +0.000 A 
ATOM     11  C   UNL     1       0.804   9.680  19.164  0.00  0.00    +0.000 A 
ATOM     12  C   UNL     1      -0.374   9.977  18.464  0.00  0.00    +0.000 A 
ATOM     13  C   UNL     1      -1.325  10.838  19.029  0.00  0.00    +0.000 A 
ATOM     14  N   UNL     1      -2.561  11.029  18.402  0.00  0.00    +0.000 N 
ATOM     15  C   UNL     1      -3.496  11.888  18.933  0.00  0.00    +0.000 C 
ATOM     16  O   UNL     1      -4.648  11.916  18.511  0.00  0.00    +0.000 OA
ATOM     17  H   UNL     1      -2.855  10.446  17.631  0.00  0.00    +0.000 HD
ENDBRANCH   1  11
BRANCH   2  18
ATOM     18  C   UNL     1       3.090   6.788  18.441  0.00  0.00    +0.000 A 
ATOM     19  C   UNL     1       3.998   7.141  17.454  0.00  0.00    +0.000 A 
ATOM     20  C   UNL     1       4.837   6.019  17.321  0.00  0.00    +0.000 A 
ATOM     21  N   UNL     1       4.485   5.021  18.125  0.00  0.00    +0.000 NA
ATOM     22  N   UNL     1       3.342   5.446  18.719  0.00  0.00    +0.000 N 
BRANCH  22  23
ATOM     23  C   UNL     1       2.566   4.511  19.462  0.00  0.00    +0.000 A 
ATOM     24  C   UNL     1       2.970   4.172  20.761  0.00  0.00    +0.000 A 
ATOM     25  C   UNL     1       2.223   3.261  21.509  0.00  0.00    +0.000 A 
ATOM     26  C   UNL     1       1.097   2.656  20.952  0.00  0.00    +0.000 A 
ATOM     27  C   UNL     1       0.707   2.970  19.651  0.00  0.00    +0.000 A 
ATOM     28  C   UNL     1       1.433   3.902  18.904  0.00  0.00    +0.000 A 
ENDBRANCH  22  23
BRANCH  20  29
ATOM     29  C   UNL     1       6.052   5.961  16.405  0.00  0.00    +0.000 C 
ATOM     30  C   UNL     1       7.170   4.991  16.737  0.00  0.00    +0.000 C 
ATOM     31  C   UNL     1       7.382   6.449  16.951  0.00  0.00    +0.000 C 
ENDBRANCH  20  29
ENDBRANCH   2  18
TORSDOF 4
ENDMDL
