MODEL 1
REMARK VINA RESULT:      -9.0      0.000      0.000
REMARK  Name = 
REMARK  5 active torsions:
REMARK  status: ('A' for Active; 'I' for Inactive)
REMARK    1  A    between atoms: C_1  and  N_2
REMARK    2  A    between atoms: C_6  and  C_7
REMARK    3  A    between atoms: C_7  and  C_8
REMARK    4  A    between atoms: C_8  and  C_9
REMARK    5  A    between atoms: C_13  and  N_14
REMARK                            x       y       z     vdW  Elec       q    Type
REMARK                         _______ _______ _______ _____ _____    ______ ____
ROOT
ATOM      1  C   UNL     1       4.290   4.729  16.849  0.00  0.00    +0.000 A 
ATOM      2  C   UNL     1       3.316   3.728  17.023  0.00  0.00    +0.000 A 
ATOM      3  C   UNL     1       2.166   3.940  17.778  0.00  0.00    +0.000 A 
ATOM      4  C   UNL     1       1.955   5.175  18.385  0.00  0.00    +0.000 A 
ATOM      5  C   UNL     1       2.861   6.224  18.210  0.00  0.00    +0.000 A 
ATOM      6  C   UNL     1       4.008   5.987  17.431  0.00  0.00    +0.000 A 
ENDROOT
BRANCH   5   7
ATOM      7  N   UNL     1       2.593   7.498  18.772  0.00  0.00    +0.000 N 
ATOM      8  N   UNL     1       2.814   8.674  17.996  0.00  0.00    +0.000 NA
ATOM      9  C   UNL     1       1.552   9.385  17.786  0.00  0.00    +0.000 C 
ATOM     10  C   UNL     1       0.864   9.639  19.086  0.00  0.00    +0.000 A 
ATOM     11  C   UNL     1      -0.130  10.595  19.225  0.00  0.00    +0.000 A 
ATOM     12  F   UNL     1      -0.473  11.354  18.174  0.00  0.00    +0.000 F 
ATOM     13  C   UNL     1      -0.813  10.760  20.422  0.00  0.00    +0.000 A 
ATOM     14  C   UNL     1      -0.465   9.939  21.474  0.00  0.00    +0.000 A 
ATOM     15  N   UNL     1       0.477   8.982  21.386  0.00  0.00    +0.000 NA
ATOM     16  C   UNL     1       1.118   8.841  20.193  0.00  0.00    +0.000 A 
ATOM     17  C   UNL     1       1.977   7.626  20.033  0.00  0.00    +0.000 C 
ATOM     18  O   UNL     1       2.032   6.786  20.929  0.00  0.00    +0.000 OA
ATOM     19  H   UNL     1       3.196   8.423  17.081  0.00  0.00    +0.000 HD
ENDBRANCH   5   7
BRANCH   1  20
ATOM     20  C   UNL     1       5.686   4.438  16.100  0.00  0.00    +0.000 C 
ATOM     21  C   UNL     1       5.725   3.265  15.079  0.00  0.00    +0.000 C 
ATOM     22  O   UNL     1       6.137   4.137  14.003  0.00  0.00    +0.000 OA
ATOM     23  C   UNL     1       5.944   5.301  14.831  0.00  0.00    +0.000 C 
BRANCH  20  24
ATOM     24  C   UNL     1       6.881   4.483  17.071  0.00  0.00    +0.000 C 
BRANCH  24  30
ATOM     25  C   UNL     1       7.875   5.557  19.857  0.00  0.00    +0.000 C 
ATOM     26  N   UNL     1       7.785   6.298  18.625  0.00  0.00    +0.000 N 
ATOM     27  C   UNL     1       8.103   7.615  18.477  0.00  0.00    +0.000 A 
ATOM     28  N   UNL     1       7.909   7.975  17.232  0.00  0.00    +0.000 NA
ATOM     29  N   UNL     1       7.431   6.879  16.554  0.00  0.00    +0.000 NA
ATOM     30  C   UNL     1       7.369   5.865  17.393  0.00  0.00    +0.000 A 
ENDBRANCH  24  30
ENDBRANCH  20  24
ENDBRANCH   1  20
TORSDOF 4
ENDMDL
MODEL 2
REMARK VINA RESULT:      -8.7      1.689      2.863
REMARK  Name = 
REMARK  5 active torsions:
REMARK  status: ('A' for Active; 'I' for Inactive)
REMARK    1  A    between atoms: C_1  and  N_2
REMARK    2  A    between atoms: C_6  and  C_7
REMARK    3  A    between atoms: C_7  and  C_8
REMARK    4  A    between atoms: C_8  and  C_9
REMARK    5  A    between atoms: C_13  and  N_14
REMARK                            x       y       z     vdW  Elec       q    Type
REMARK                         _______ _______ _______ _____ _____    ______ ____
ROOT
ATOM      1  C   UNL     1       4.385   5.151  17.186  0.00  0.00    +0.000 A 
ATOM      2  C   UNL     1       3.380   4.167  17.184  0.00  0.00    +0.000 A 
ATOM      3  C   UNL     1       2.116   4.403  17.719  0.00  0.00    +0.000 A 
ATOM      4  C   UNL     1       1.820   5.644  18.274  0.00  0.00    +0.000 A 
ATOM      5  C   UNL     1       2.760   6.677  18.262  0.00  0.00    +0.000 A 
ATOM      6  C   UNL     1       4.024   6.417  17.704  0.00  0.00    +0.000 A 
ENDROOT
BRANCH   5   7
ATOM      7  N   UNL     1       2.416   7.959  18.763  0.00  0.00    +0.000 N 
ATOM      8  N   UNL     1       2.547   9.104  17.924  0.00  0.00    +0.000 NA
ATOM      9  C   UNL     1       1.237   9.719  17.700  0.00  0.00    +0.000 C 
ATOM     10  C   UNL     1       0.554   9.995  18.999  0.00  0.00    +0.000 A 
ATOM     11  C   UNL     1      -0.500  10.890  19.107  0.00  0.00    +0.000 A 
ATOM     12  F   UNL     1      -0.907  11.569  18.025  0.00  0.00    +0.000 F 
ATOM     13  C   UNL     1      -1.173  11.073  20.306  0.00  0.00    +0.000 A 
ATOM     14  C   UNL     1      -0.756  10.332  21.393  0.00  0.00    +0.000 A 
ATOM     15  N   UNL     1       0.246   9.436  21.336  0.00  0.00    +0.000 NA
ATOM     16  C   UNL     1       0.877   9.275  20.140  0.00  0.00    +0.000 A 
ATOM     17  C   UNL     1       1.812   8.112  20.027  0.00  0.00    +0.000 C 
ATOM     18  O   UNL     1       1.936   7.326  20.963  0.00  0.00    +0.000 OA
ATOM     19  H   UNL     1       2.931   8.831  17.016  0.00  0.00    +0.000 HD
ENDBRANCH   5   7
BRANCH   1  20
ATOM     20  C   UNL     1       5.889   4.834  16.702  0.00  0.00    +0.000 C 
ATOM     21  C   UNL     1       6.910   6.007  16.708  0.00  0.00    +0.000 C 
ATOM     22  O   UNL     1       7.801   5.306  17.603  0.00  0.00    +0.000 OA
ATOM     23  C   UNL     1       6.827   4.261  17.802  0.00  0.00    +0.000 C 
BRANCH  20  24
ATOM     24  C   UNL     1       5.912   3.971  15.426  0.00  0.00    +0.000 C 
BRANCH  24  30
ATOM     25  C   UNL     1       5.722   3.250  12.369  0.00  0.00    +0.000 C 
ATOM     26  N   UNL     1       6.617   4.197  12.981  0.00  0.00    +0.000 N 
ATOM     27  C   UNL     1       7.558   4.928  12.319  0.00  0.00    +0.000 A 
ATOM     28  N   UNL     1       8.199   5.690  13.169  0.00  0.00    +0.000 NA
ATOM     29  N   UNL     1       7.687   5.437  14.420  0.00  0.00    +0.000 NA
ATOM     30  C   UNL     1       6.724   4.546  14.302  0.00  0.00    +0.000 A 
ENDBRANCH  24  30
ENDBRANCH  20  24
ENDBRANCH   1  20
TORSDOF 4
ENDMDL
MODEL 3
REMARK VINA RESULT:      -8.7      2.995      4.222
REMARK  Name = 
REMARK  5 active torsions:
REMARK  status: ('A' for Active; 'I' for Inactive)
REMARK    1  A    between atoms: C_1  and  N_2
REMARK    2  A    between atoms: C_6  and  C_7
REMARK    3  A    between atoms: C_7  and  C_8
REMARK    4  A    between atoms: C_8  and  C_9
REMARK    5  A    between atoms: C_13  and  N_14
REMARK                            x       y       z     vdW  Elec       q    Type
REMARK                         _______ _______ _______ _____ _____    ______ ____
ROOT
ATOM      1  C   UNL     1       3.119   6.321  18.954  0.00  0.00    +0.000 A 
ATOM      2  C   UNL     1       2.670   5.638  20.100  0.00  0.00    +0.000 A 
ATOM      3  C   UNL     1       1.760   6.207  20.987  0.00  0.00    +0.000 A 
ATOM      4  C   UNL     1       1.266   7.485  20.748  0.00  0.00    +0.000 A 
ATOM      5  C   UNL     1       1.636   8.194  19.602  0.00  0.00    +0.000 A 
ATOM      6  C   UNL     1       2.547   7.592  18.715  0.00  0.00    +0.000 A 
ENDROOT
BRANCH   5   7
ATOM      7  N   UNL     1       1.065   9.464  19.333  0.00  0.00    +0.000 N 
ATOM      8  N   UNL     1       0.714   9.813  17.997  0.00  0.00    +0.000 NA
ATOM      9  C   UNL     1      -0.730  10.028  17.893  0.00  0.00    +0.000 C 
ATOM     10  C   UNL     1      -1.194  11.012  18.916  0.00  0.00    +0.000 A 
ATOM     11  C   UNL     1      -2.407  11.675  18.813  0.00  0.00    +0.000 A 
ATOM     12  F   UNL     1      -3.187  11.467  17.742  0.00  0.00    +0.000 F 
ATOM     13  C   UNL     1      -2.855  12.524  19.814  0.00  0.00    +0.000 A 
ATOM     14  C   UNL     1      -2.049  12.689  20.921  0.00  0.00    +0.000 A 
ATOM     15  N   UNL     1      -0.873  12.054  21.081  0.00  0.00    +0.000 NA
ATOM     16  C   UNL     1      -0.470  11.219  20.083  0.00  0.00    +0.000 A 
ATOM     17  C   UNL     1       0.702  10.338  20.378  0.00  0.00    +0.000 C 
ATOM     18  O   UNL     1       1.216  10.347  21.495  0.00  0.00    +0.000 OA
ATOM     19  H   UNL     1       0.971   9.057  17.357  0.00  0.00    +0.000 HD
ENDBRANCH   5   7
BRANCH   1  20
ATOM     20  C   UNL     1       4.279   5.725  18.008  0.00  0.00    +0.000 C 
ATOM     21  C   UNL     1       5.215   6.739  17.290  0.00  0.00    +0.000 C 
ATOM     22  O   UNL     1       6.395   6.175  17.901  0.00  0.00    +0.000 OA
ATOM     23  C   UNL     1       5.590   5.328  18.746  0.00  0.00    +0.000 C 
BRANCH  20  24
ATOM     24  C   UNL     1       3.762   4.584  17.111  0.00  0.00    +0.000 C 
BRANCH  24  30
ATOM     25  C   UNL     1       4.058   2.163  19.099  0.00  0.00    +0.000 C 
ATOM     26  N   UNL     1       2.833   2.709  18.577  0.00  0.00    +0.000 N 
ATOM     27  C   UNL     1       1.584   2.237  18.851  0.00  0.00    +0.000 A 
ATOM     28  N   UNL     1       0.694   2.960  18.218  0.00  0.00    +0.000 NA
ATOM     29  N   UNL     1       1.372   3.910  17.492  0.00  0.00    +0.000 NA
ATOM     30  C   UNL     1       2.661   3.766  17.721  0.00  0.00    +0.000 A 
ENDBRANCH  24  30
ENDBRANCH  20  24
ENDBRANCH   1  20
TORSDOF 4
ENDMDL
MODEL 4
REMARK VINA RESULT:      -8.6      2.319      3.390
REMARK  Name = 
REMARK  5 active torsions:
REMARK  status: ('A' for Active; 'I' for Inactive)
REMARK    1  A    between atoms: C_1  and  N_2
REMARK    2  A    between atoms: C_6  and  C_7
REMARK    3  A    between atoms: C_7  and  C_8
REMARK    4  A    between atoms: C_8  and  C_9
REMARK    5  A    between atoms: C_13  and  N_14
REMARK                            x       y       z     vdW  Elec       q    Type
REMARK                         _______ _______ _______ _____ _____    ______ ____
ROOT
ATOM      1  C   UNL     1       5.457   5.181  18.796  0.00  0.00    +0.000 A 
ATOM      2  C   UNL     1       5.168   3.910  19.329  0.00  0.00    +0.000 A 
ATOM      3  C   UNL     1       3.944   3.624  19.928  0.00  0.00    +0.000 A 
ATOM      4  C   UNL     1       2.965   4.610  20.009  0.00  0.00    +0.000 A 
ATOM      5  C   UNL     1       3.175   5.876  19.455  0.00  0.00    +0.000 A 
ATOM      6  C   UNL     1       4.415   6.135  18.844  0.00  0.00    +0.000 A 
ENDROOT
BRANCH   5   7
ATOM      7  N   UNL     1       2.140   6.844  19.479  0.00  0.00    +0.000 N 
ATOM      8  N   UNL     1       1.154   6.802  20.507  0.00  0.00    +0.000 NA
ATOM      9  C   UNL     1       1.221   8.015  21.323  0.00  0.00    +0.000 C 
ATOM     10  C   UNL     1       1.146   9.235  20.465  0.00  0.00    +0.000 A 
ATOM     11  C   UNL     1       0.815  10.481  20.973  0.00  0.00    +0.000 A 
ATOM     12  F   UNL     1       0.510  10.608  22.273  0.00  0.00    +0.000 F 
ATOM     13  C   UNL     1       0.830  11.616  20.175  0.00  0.00    +0.000 A 
ATOM     14  C   UNL     1       1.185  11.461  18.851  0.00  0.00    +0.000 A 
ATOM     15  N   UNL     1       1.534  10.278  18.312  0.00  0.00    +0.000 NA
ATOM     16  C   UNL     1       1.519   9.188  19.129  0.00  0.00    +0.000 A 
ATOM     17  C   UNL     1       2.142   7.939  18.590  0.00  0.00    +0.000 C 
ATOM     18  O   UNL     1       2.685   7.945  17.487  0.00  0.00    +0.000 OA
ATOM     19  H   UNL     1       1.319   5.997  21.118  0.00  0.00    +0.000 HD
ENDBRANCH   5   7
BRANCH   1  20
ATOM     20  C   UNL     1       6.921   5.555  18.236  0.00  0.00    +0.000 C 
ATOM     21  C   UNL     1       7.154   7.014  17.749  0.00  0.00    +0.000 C 
ATOM     22  O   UNL     1       8.232   7.219  18.688  0.00  0.00    +0.000 OA
ATOM     23  C   UNL     1       7.960   5.954  19.324  0.00  0.00    +0.000 C 
BRANCH  20  24
ATOM     24  C   UNL     1       7.471   4.469  17.293  0.00  0.00    +0.000 C 
BRANCH  24  30
ATOM     25  C   UNL     1       4.836   3.361  15.978  0.00  0.00    +0.000 C 
ATOM     26  N   UNL     1       5.883   4.102  15.325  0.00  0.00    +0.000 N 
ATOM     27  C   UNL     1       5.906   4.427  14.002  0.00  0.00    +0.000 A 
ATOM     28  N   UNL     1       6.996   5.103  13.736  0.00  0.00    +0.000 NA
ATOM     29  N   UNL     1       7.717   5.203  14.902  0.00  0.00    +0.000 NA
ATOM     30  C   UNL     1       7.037   4.610  15.863  0.00  0.00    +0.000 A 
ENDBRANCH  24  30
ENDBRANCH  20  24
ENDBRANCH   1  20
TORSDOF 4
ENDMDL
MODEL 5
REMARK VINA RESULT:      -8.5      2.054      3.064
REMARK  Name = 
REMARK  5 active torsions:
REMARK  status: ('A' for Active; 'I' for Inactive)
REMARK    1  A    between atoms: C_1  and  N_2
REMARK    2  A    between atoms: C_6  and  C_7
REMARK    3  A    between atoms: C_7  and  C_8
REMARK    4  A    between atoms: C_8  and  C_9
REMARK    5  A    between atoms: C_13  and  N_14
REMARK                            x       y       z     vdW  Elec       q    Type
REMARK                         _______ _______ _______ _____ _____    ______ ____
ROOT
ATOM      1  C   UNL     1       2.894   6.011  19.140  0.00  0.00    +0.000 A 
ATOM      2  C   UNL     1       2.310   5.378  20.253  0.00  0.00    +0.000 A 
ATOM      3  C   UNL     1       1.424   6.042  21.097  0.00  0.00    +0.000 A 
ATOM      4  C   UNL     1       1.091   7.369  20.846  0.00  0.00    +0.000 A 
ATOM      5  C   UNL     1       1.600   8.037  19.729  0.00  0.00    +0.000 A 
ATOM      6  C   UNL     1       2.484   7.341  18.885  0.00  0.00    +0.000 A 
ENDROOT
BRANCH   5   7
ATOM      7  N   UNL     1       1.192   9.365  19.445  0.00  0.00    +0.000 N 
ATOM      8  N   UNL     1       0.907   9.746  18.101  0.00  0.00    +0.000 NA
ATOM      9  C   UNL     1      -0.499  10.134  17.973  0.00  0.00    +0.000 C 
ATOM     10  C   UNL     1      -0.855  11.174  18.984  0.00  0.00    +0.000 A 
ATOM     11  C   UNL     1      -1.977  11.978  18.858  0.00  0.00    +0.000 A 
ATOM     12  F   UNL     1      -2.760  11.859  17.776  0.00  0.00    +0.000 F 
ATOM     13  C   UNL     1      -2.334  12.882  19.847  0.00  0.00    +0.000 A 
ATOM     14  C   UNL     1      -1.531  12.955  20.967  0.00  0.00    +0.000 A 
ATOM     15  N   UNL     1      -0.444  12.183  21.149  0.00  0.00    +0.000 NA
ATOM     16  C   UNL     1      -0.130  11.299  20.161  0.00  0.00    +0.000 A 
ATOM     17  C   UNL     1       0.922  10.284  20.480  0.00  0.00    +0.000 C 
ATOM     18  O   UNL     1       1.415  10.238  21.605  0.00  0.00    +0.000 OA
ATOM     19  H   UNL     1       1.080   8.960  17.470  0.00  0.00    +0.000 HD
ENDBRANCH   5   7
BRANCH   1  20
ATOM     20  C   UNL     1       4.029   5.292  18.250  0.00  0.00    +0.000 C 
ATOM     21  C   UNL     1       4.669   3.991  18.813  0.00  0.00    +0.000 C 
ATOM     22  O   UNL     1       4.270   3.223  17.656  0.00  0.00    +0.000 OA
ATOM     23  C   UNL     1       3.492   4.328  17.153  0.00  0.00    +0.000 C 
BRANCH  20  24
ATOM     24  C   UNL     1       5.037   6.305  17.675  0.00  0.00    +0.000 C 
BRANCH  24  30
ATOM     25  C   UNL     1       7.684   4.605  17.612  0.00  0.00    +0.000 C 
ATOM     26  N   UNL     1       6.940   5.090  16.479  0.00  0.00    +0.000 N 
ATOM     27  C   UNL     1       7.287   4.904  15.174  0.00  0.00    +0.000 A 
ATOM     28  N   UNL     1       6.397   5.471  14.398  0.00  0.00    +0.000 NA
ATOM     29  N   UNL     1       5.459   6.064  15.210  0.00  0.00    +0.000 NA
ATOM     30  C   UNL     1       5.781   5.822  16.464  0.00  0.00    +0.000 A 
ENDBRANCH  24  30
ENDBRANCH  20  24
ENDBRANCH   1  20
TORSDOF 4
ENDMDL
MODEL 6
REMARK VINA RESULT:      -8.5      3.377      5.351
REMARK  Name = 
REMARK  5 active torsions:
REMARK  status: ('A' for Active; 'I' for Inactive)
REMARK    1  A    between atoms: C_1  and  N_2
REMARK    2  A    between atoms: C_6  and  C_7
REMARK    3  A    between atoms: C_7  and  C_8
REMARK    4  A    between atoms: C_8  and  C_9
REMARK    5  A    between atoms: C_13  and  N_14
REMARK                            x       y       z     vdW  Elec       q    Type
REMARK                         _______ _______ _______ _____ _____    ______ ____
ROOT
ATOM      1  C   UNL     1       2.123   7.500  19.144  0.00  0.00    +0.000 A 
ATOM      2  C   UNL     1       1.775   7.332  20.497  0.00  0.00    +0.000 A 
ATOM      3  C   UNL     1       1.179   8.351  21.236  0.00  0.00    +0.000 A 
ATOM      4  C   UNL     1       0.909   9.576  20.635  0.00  0.00    +0.000 A 
ATOM      5  C   UNL     1       1.186   9.787  19.282  0.00  0.00    +0.000 A 
ATOM      6  C   UNL     1       1.776   8.738  18.554  0.00  0.00    +0.000 A 
ENDROOT
BRANCH   5   7
ATOM      7  N   UNL     1       0.835  11.014  18.665  0.00  0.00    +0.000 N 
ATOM      8  N   UNL     1      -0.539  11.339  18.467  0.00  0.00    +0.000 NA
ATOM      9  C   UNL     1      -0.890  12.539  19.230  0.00  0.00    +0.000 C 
ATOM     10  C   UNL     1       0.047  13.658  18.916  0.00  0.00    +0.000 A 
ATOM     11  C   UNL     1      -0.259  14.982  19.192  0.00  0.00    +0.000 A 
ATOM     12  F   UNL     1      -1.451  15.290  19.724  0.00  0.00    +0.000 F 
ATOM     13  C   UNL     1       0.657  15.998  18.966  0.00  0.00    +0.000 A 
ATOM     14  C   UNL     1       1.889  15.647  18.454  0.00  0.00    +0.000 A 
ATOM     15  N   UNL     1       2.244  14.376  18.188  0.00  0.00    +0.000 NA
ATOM     16  C   UNL     1       1.323  13.404  18.433  0.00  0.00    +0.000 A 
ATOM     17  C   UNL     1       1.808  11.989  18.370  0.00  0.00    +0.000 C 
ATOM     18  O   UNL     1       2.998  11.754  18.167  0.00  0.00    +0.000 OA
ATOM     19  H   UNL     1      -1.131  10.570  18.792  0.00  0.00    +0.000 HD
ENDBRANCH   5   7
BRANCH   1  20
ATOM     20  C   UNL     1       2.943   6.376  18.330  0.00  0.00    +0.000 C 
ATOM     21  C   UNL     1       4.110   6.855  17.419  0.00  0.00    +0.000 C 
ATOM     22  O   UNL     1       5.074   6.044  18.125  0.00  0.00    +0.000 OA
ATOM     23  C   UNL     1       4.095   5.698  19.126  0.00  0.00    +0.000 C 
BRANCH  20  24
ATOM     24  C   UNL     1       2.009   5.338  17.682  0.00  0.00    +0.000 C 
BRANCH  24  30
ATOM     25  C   UNL     1       0.949   3.706  20.155  0.00  0.00    +0.000 C 
ATOM     26  N   UNL     1       1.847   3.240  19.132  0.00  0.00    +0.000 N 
ATOM     27  C   UNL     1       2.408   1.999  19.086  0.00  0.00    +0.000 A 
ATOM     28  N   UNL     1       3.172   1.901  18.027  0.00  0.00    +0.000 NA
ATOM     29  N   UNL     1       3.133   3.111  17.375  0.00  0.00    +0.000 NA
ATOM     30  C   UNL     1       2.323   3.913  18.036  0.00  0.00    +0.000 A 
ENDBRANCH  24  30
ENDBRANCH  20  24
ENDBRANCH   1  20
TORSDOF 4
ENDMDL
MODEL 7
REMARK VINA RESULT:      -8.5      3.518      5.521
REMARK  Name = 
REMARK  5 active torsions:
REMARK  status: ('A' for Active; 'I' for Inactive)
REMARK    1  A    between atoms: C_1  and  N_2
REMARK    2  A    between atoms: C_6  and  C_7
REMARK    3  A    between atoms: C_7  and  C_8
REMARK    4  A    between atoms: C_8  and  C_9
REMARK    5  A    between atoms: C_13  and  N_14
REMARK                            x       y       z     vdW  Elec       q    Type
REMARK                         _______ _______ _______ _____ _____    ______ ____
ROOT
ATOM      1  C   UNL     1       2.092   7.524  19.219  0.00  0.00    +0.000 A 
ATOM      2  C   UNL     1       1.728   7.387  20.571  0.00  0.00    +0.000 A 
ATOM      3  C   UNL     1       1.136   8.427  21.284  0.00  0.00    +0.000 A 
ATOM      4  C   UNL     1       0.887   9.643  20.655  0.00  0.00    +0.000 A 
ATOM      5  C   UNL     1       1.182   9.825  19.302  0.00  0.00    +0.000 A 
ATOM      6  C   UNL     1       1.767   8.755  18.601  0.00  0.00    +0.000 A 
ENDROOT
BRANCH   5   7
ATOM      7  N   UNL     1       0.853  11.044  18.658  0.00  0.00    +0.000 N 
ATOM      8  N   UNL     1      -0.514  11.369  18.414  0.00  0.00    +0.000 NA
ATOM      9  C   UNL     1      -0.884  12.580  19.149  0.00  0.00    +0.000 C 
ATOM     10  C   UNL     1       0.064  13.693  18.847  0.00  0.00    +0.000 A 
ATOM     11  C   UNL     1      -0.247  15.021  19.095  0.00  0.00    +0.000 A 
ATOM     12  F   UNL     1      -1.454  15.339  19.587  0.00  0.00    +0.000 F 
ATOM     13  C   UNL     1       0.678  16.033  18.884  0.00  0.00    +0.000 A 
ATOM     14  C   UNL     1       1.924  15.671  18.414  0.00  0.00    +0.000 A 
ATOM     15  N   UNL     1       2.284  14.396  18.177  0.00  0.00    +0.000 NA
ATOM     16  C   UNL     1       1.354  13.429  18.407  0.00  0.00    +0.000 A 
ATOM     17  C   UNL     1       1.837  12.013  18.379  0.00  0.00    +0.000 C 
ATOM     18  O   UNL     1       3.032  11.772  18.215  0.00  0.00    +0.000 OA
ATOM     19  H   UNL     1      -1.118  10.606  18.731  0.00  0.00    +0.000 HD
ENDBRANCH   5   7
BRANCH   1  20
ATOM     20  C   UNL     1       2.907   6.375  18.436  0.00  0.00    +0.000 C 
ATOM     21  C   UNL     1       4.012   6.828  17.439  0.00  0.00    +0.000 C 
ATOM     22  O   UNL     1       5.035   6.092  18.145  0.00  0.00    +0.000 OA
ATOM     23  C   UNL     1       4.118   5.783  19.213  0.00  0.00    +0.000 C 
BRANCH  20  24
ATOM     24  C   UNL     1       1.976   5.271  17.902  0.00  0.00    +0.000 C 
BRANCH  24  30
ATOM     25  C   UNL     1       3.291   2.417  17.733  0.00  0.00    +0.000 C 
ATOM     26  N   UNL     1       2.362   2.884  18.728  0.00  0.00    +0.000 N 
ATOM     27  C   UNL     1       1.879   2.139  19.762  0.00  0.00    +0.000 A 
ATOM     28  N   UNL     1       1.058   2.864  20.480  0.00  0.00    +0.000 NA
ATOM     29  N   UNL     1       0.979   4.104  19.892  0.00  0.00    +0.000 NA
ATOM     30  C   UNL     1       1.776   4.119  18.843  0.00  0.00    +0.000 A 
ENDBRANCH  24  30
ENDBRANCH  20  24
ENDBRANCH   1  20
TORSDOF 4
ENDMDL
MODEL 8
REMARK VINA RESULT:      -8.5      2.539      3.882
REMARK  Name = 
REMARK  5 active torsions:
REMARK  status: ('A' for Active; 'I' for Inactive)
REMARK    1  A    between atoms: C_1  and  N_2
REMARK    2  A    between atoms: C_6  and  C_7
REMARK    3  A    between atoms: C_7  and  C_8
REMARK    4  A    between atoms: C_8  and  C_9
REMARK    5  A    between atoms: C_13  and  N_14
REMARK                            x       y       z     vdW  Elec       q    Type
REMARK                         _______ _______ _______ _____ _____    ______ ____
ROOT
ATOM      1  C   UNL     1       3.180   6.589  18.554  0.00  0.00    +0.000 A 
ATOM      2  C   UNL     1       2.831   5.863  19.708  0.00  0.00    +0.000 A 
ATOM      3  C   UNL     1       1.964   6.377  20.668  0.00  0.00    +0.000 A 
ATOM      4  C   UNL     1       1.413   7.643  20.496  0.00  0.00    +0.000 A 
ATOM      5  C   UNL     1       1.683   8.393  19.349  0.00  0.00    +0.000 A 
ATOM      6  C   UNL     1       2.552   7.846  18.388  0.00  0.00    +0.000 A 
ENDROOT
BRANCH   5   7
ATOM      7  N   UNL     1       1.054   9.649  19.154  0.00  0.00    +0.000 N 
ATOM      8  N   UNL     1       0.598  10.018  17.855  0.00  0.00    +0.000 NA
ATOM      9  C   UNL     1      -0.856  10.186  17.858  0.00  0.00    +0.000 C 
ATOM     10  C   UNL     1      -1.276  11.130  18.937  0.00  0.00    +0.000 A 
ATOM     11  C   UNL     1      -2.514  11.754  18.935  0.00  0.00    +0.000 A 
ATOM     12  F   UNL     1      -3.362  11.544  17.917  0.00  0.00    +0.000 F 
ATOM     13  C   UNL     1      -2.917  12.564  19.987  0.00  0.00    +0.000 A 
ATOM     14  C   UNL     1      -2.040  12.730  21.039  0.00  0.00    +0.000 A 
ATOM     15  N   UNL     1      -0.836  12.131  21.099  0.00  0.00    +0.000 NA
ATOM     16  C   UNL     1      -0.479  11.334  20.054  0.00  0.00    +0.000 A 
ATOM     17  C   UNL     1       0.739  10.486  20.243  0.00  0.00    +0.000 C 
ATOM     18  O   UNL     1       1.330  10.486  21.321  0.00  0.00    +0.000 OA
ATOM     19  H   UNL     1       0.833   9.285  17.180  0.00  0.00    +0.000 HD
ENDBRANCH   5   7
BRANCH   1  20
ATOM     20  C   UNL     1       4.294   6.058  17.518  0.00  0.00    +0.000 C 
ATOM     21  C   UNL     1       4.676   6.989  16.331  0.00  0.00    +0.000 C 
ATOM     22  O   UNL     1       6.066   7.017  16.723  0.00  0.00    +0.000 OA
ATOM     23  C   UNL     1       5.767   6.316  17.947  0.00  0.00    +0.000 C 
BRANCH  20  24
ATOM     24  C   UNL     1       4.063   4.586  17.128  0.00  0.00    +0.000 C 
BRANCH  24  30
ATOM     25  C   UNL     1       1.947   2.495  18.153  0.00  0.00    +0.000 C 
ATOM     26  N   UNL     1       3.265   2.722  18.683  0.00  0.00    +0.000 N 
ATOM     27  C   UNL     1       3.806   2.067  19.749  0.00  0.00    +0.000 A 
ATOM     28  N   UNL     1       5.019   2.511  19.968  0.00  0.00    +0.000 NA
ATOM     29  N   UNL     1       5.272   3.496  19.043  0.00  0.00    +0.000 NA
ATOM     30  C   UNL     1       4.218   3.613  18.260  0.00  0.00    +0.000 A 
ENDBRANCH  24  30
ENDBRANCH  20  24
ENDBRANCH   1  20
TORSDOF 4
ENDMDL
MODEL 9
REMARK VINA RESULT:      -8.4      4.258      9.359
REMARK  Name = 
REMARK  5 active torsions:
REMARK  status: ('A' for Active; 'I' for Inactive)
REMARK    1  A    between atoms: C_1  and  N_2
REMARK    2  A    between atoms: C_6  and  C_7
REMARK    3  A    between atoms: C_7  and  C_8
REMARK    4  A    between atoms: C_8  and  C_9
REMARK    5  A    between atoms: C_13  and  N_14
REMARK                            x       y       z     vdW  Elec       q    Type
REMARK                         _______ _______ _______ _____ _____    ______ ____
ROOT
ATOM      1  C   UNL     1      -1.535  10.947  17.781  0.00  0.00    +0.000 A 
ATOM      2  C   UNL     1      -1.224  12.277  18.119  0.00  0.00    +0.000 A 
ATOM      3  C   UNL     1      -0.096  12.602  18.868  0.00  0.00    +0.000 A 
ATOM      4  C   UNL     1       0.762  11.596  19.300  0.00  0.00    +0.000 A 
ATOM      5  C   UNL     1       0.533  10.261  18.955  0.00  0.00    +0.000 A 
ATOM      6  C   UNL     1      -0.606   9.960  18.188  0.00  0.00    +0.000 A 
ENDROOT
BRANCH   5   7
ATOM      7  N   UNL     1       1.457   9.257  19.339  0.00  0.00    +0.000 N 
ATOM      8  N   UNL     1       1.565   8.881  20.710  0.00  0.00    +0.000 NA
ATOM      9  C   UNL     1       1.186   7.477  20.880  0.00  0.00    +0.000 C 
ATOM     10  C   UNL     1       1.963   6.603  19.951  0.00  0.00    +0.000 A 
ATOM     11  C   UNL     1       2.086   5.236  20.147  0.00  0.00    +0.000 A 
ATOM     12  F   UNL     1       1.527   4.668  21.225  0.00  0.00    +0.000 F 
ATOM     13  C   UNL     1       2.744   4.430  19.230  0.00  0.00    +0.000 A 
ATOM     14  C   UNL     1       3.276   5.038  18.111  0.00  0.00    +0.000 A 
ATOM     15  N   UNL     1       3.166   6.356  17.863  0.00  0.00    +0.000 NA
ATOM     16  C   UNL     1       2.504   7.114  18.780  0.00  0.00    +0.000 A 
ATOM     17  C   UNL     1       2.175   8.517  18.378  0.00  0.00    +0.000 C 
ATOM     18  O   UNL     1       2.448   8.916  17.247  0.00  0.00    +0.000 OA
ATOM     19  H   UNL     1       0.936   9.452  21.281  0.00  0.00    +0.000 HD
ENDBRANCH   5   7
BRANCH   1  20
ATOM     20  C   UNL     1      -2.914  10.556  17.043  0.00  0.00    +0.000 C 
ATOM     21  C   UNL     1      -3.367  11.443  15.848  0.00  0.00    +0.000 C 
ATOM     22  O   UNL     1      -3.381  10.319  14.942  0.00  0.00    +0.000 OA
ATOM     23  C   UNL     1      -2.783   9.468  15.939  0.00  0.00    +0.000 C 
BRANCH  20  24
ATOM     24  C   UNL     1      -4.029  10.217  18.049  0.00  0.00    +0.000 C 
BRANCH  24  30
ATOM     25  C   UNL     1      -4.040  12.610  20.093  0.00  0.00    +0.000 C 
ATOM     26  N   UNL     1      -5.048  12.305  19.112  0.00  0.00    +0.000 N 
ATOM     27  C   UNL     1      -6.200  13.009  18.926  0.00  0.00    +0.000 A 
ATOM     28  N   UNL     1      -6.893  12.468  17.955  0.00  0.00    +0.000 NA
ATOM     29  N   UNL     1      -6.195  11.372  17.509  0.00  0.00    +0.000 NA
ATOM     30  C   UNL     1      -5.075  11.283  18.199  0.00  0.00    +0.000 A 
ENDBRANCH  24  30
ENDBRANCH  20  24
ENDBRANCH   1  20
TORSDOF 4
ENDMDL
