MODEL 1
REMARK VINA RESULT:      -9.0      0.000      0.000
REMARK  Name = 
REMARK  4 active torsions:
REMARK  status: ('A' for Active; 'I' for Inactive)
REMARK    1  A    between atoms: C_2  and  C_18
REMARK    2  A    between atoms: N_3  and  C_4
REMARK    3  A    between atoms: C_8  and  C_9
REMARK    4  A    between atoms: C_12  and  C_13
REMARK                            x       y       z     vdW  Elec       q    Type
REMARK                         _______ _______ _______ _____ _____    ______ ____
ROOT
ATOM      1  C   UNL     1       2.616   6.599  19.332  0.00  0.00    +0.000 A 
ATOM      2  C   UNL     1       2.502   5.404  20.052  0.00  0.00    +0.000 A 
ATOM      3  C   UNL     1       3.160   4.253  19.634  0.00  0.00    +0.000 A 
ATOM      4  C   UNL     1       3.934   4.276  18.479  0.00  0.00    +0.000 A 
ATOM      5  C   UNL     1       4.043   5.447  17.717  0.00  0.00    +0.000 A 
ATOM      6  C   UNL     1       3.371   6.608  18.147  0.00  0.00    +0.000 A 
ENDROOT
BRANCH   5   7
ATOM      7  C   UNL     1       4.854   5.425  16.501  0.00  0.00    +0.000 A 
ATOM      8  N   UNL     1       5.407   6.508  15.933  0.00  0.00    +0.000 NA
ATOM      9  O   UNL     1       6.063   5.994  14.813  0.00  0.00    +0.000 OA
ATOM     10  C   UNL     1       5.847   4.644  14.811  0.00  0.00    +0.000 A 
ATOM     11  N   UNL     1       5.110   4.249  15.823  0.00  0.00    +0.000 NA
BRANCH  10  12
ATOM     12  C   UNL     1       6.414   3.713  13.746  0.00  0.00    +0.000 C 
ATOM     13  C   UNL     1       6.861   4.293  12.418  0.00  0.00    +0.000 C 
ATOM     14  C   UNL     1       5.608   3.490  12.481  0.00  0.00    +0.000 C 
ENDBRANCH  10  12
ENDBRANCH   5   7
BRANCH   1  17
ATOM     15  O   UNL     1       1.504   8.746  17.686  0.00  0.00    +0.000 OA
ATOM     16  C   UNL     1       1.533   8.802  18.910  0.00  0.00    +0.000 C 
ATOM     17  N   UNL     1       1.982   7.793  19.750  0.00  0.00    +0.000 N 
ATOM     18  H   UNL     1       1.707   7.860  20.722  0.00  0.00    +0.000 HD
BRANCH  16  19
ATOM     19  C   UNL     1       0.993   9.970  19.585  0.00  0.00    +0.000 A 
ATOM     20  C   UNL     1       1.139  11.311  19.147  0.00  0.00    +0.000 A 
ATOM     21  N   UNL     1       0.570  12.192  19.971  0.00  0.00    +0.000 NA
ATOM     22  N   UNL     1       0.099  11.426  20.966  0.00  0.00    +0.000 N 
ATOM     23  C   UNL     1       0.332  10.084  20.799  0.00  0.00    +0.000 A 
ATOM     24  C   UNL     1      -0.059   9.098  21.848  0.00  0.00    +0.000 C 
ATOM     25  C   UNL     1      -0.324   9.772  23.200  0.00  0.00    +0.000 C 
ATOM     26  C   UNL     1      -1.188  11.024  23.027  0.00  0.00    +0.000 C 
ATOM     27  C   UNL     1      -0.471  12.045  22.149  0.00  0.00    +0.000 C 
ENDBRANCH  16  19
ENDBRANCH   1  17
TORSDOF 4
ENDMDL
MODEL 2
REMARK VINA RESULT:      -8.9      1.746      2.450
REMARK  Name = 
REMARK  4 active torsions:
REMARK  status: ('A' for Active; 'I' for Inactive)
REMARK    1  A    between atoms: C_2  and  C_18
REMARK    2  A    between atoms: N_3  and  C_4
REMARK    3  A    between atoms: C_8  and  C_9
REMARK    4  A    between atoms: C_12  and  C_13
REMARK                            x       y       z     vdW  Elec       q    Type
REMARK                         _______ _______ _______ _____ _____    ______ ____
ROOT
ATOM      1  C   UNL     1       1.988   5.506  20.546  0.00  0.00    +0.000 A 
ATOM      2  C   UNL     1       1.379   4.261  20.740  0.00  0.00    +0.000 A 
ATOM      3  C   UNL     1       1.976   3.094  20.277  0.00  0.00    +0.000 A 
ATOM      4  C   UNL     1       3.189   3.155  19.600  0.00  0.00    +0.000 A 
ATOM      5  C   UNL     1       3.810   4.389  19.360  0.00  0.00    +0.000 A 
ATOM      6  C   UNL     1       3.197   5.566  19.831  0.00  0.00    +0.000 A 
ENDROOT
BRANCH   5   7
ATOM      7  C   UNL     1       5.077   4.411  18.631  0.00  0.00    +0.000 A 
ATOM      8  N   UNL     1       6.289   4.420  19.208  0.00  0.00    +0.000 NA
ATOM      9  O   UNL     1       7.169   4.450  18.125  0.00  0.00    +0.000 OA
ATOM     10  C   UNL     1       6.404   4.453  16.992  0.00  0.00    +0.000 A 
ATOM     11  N   UNL     1       5.117   4.432  17.251  0.00  0.00    +0.000 NA
BRANCH  10  12
ATOM     12  C   UNL     1       6.998   4.471  15.589  0.00  0.00    +0.000 C 
ATOM     13  C   UNL     1       6.295   5.253  14.496  0.00  0.00    +0.000 C 
ATOM     14  C   UNL     1       6.245   3.765  14.478  0.00  0.00    +0.000 C 
ENDBRANCH  10  12
ENDBRANCH   5   7
BRANCH   1  17
ATOM     15  O   UNL     1       1.953   8.147  19.290  0.00  0.00    +0.000 OA
ATOM     16  C   UNL     1       1.496   7.943  20.409  0.00  0.00    +0.000 C 
ATOM     17  N   UNL     1       1.419   6.706  21.033  0.00  0.00    +0.000 N 
ATOM     18  H   UNL     1       0.789   6.638  21.822  0.00  0.00    +0.000 HD
BRANCH  16  19
ATOM     19  C   UNL     1       0.905   9.045  21.150  0.00  0.00    +0.000 A 
ATOM     20  C   UNL     1       0.934   9.194  22.560  0.00  0.00    +0.000 A 
ATOM     21  N   UNL     1       0.287  10.281  22.981  0.00  0.00    +0.000 NA
ATOM     22  N   UNL     1      -0.201  10.809  21.849  0.00  0.00    +0.000 N 
ATOM     23  C   UNL     1       0.125  10.106  20.716  0.00  0.00    +0.000 A 
ATOM     24  C   UNL     1      -0.400  10.512  19.380  0.00  0.00    +0.000 C 
ATOM     25  C   UNL     1      -1.597  11.463  19.498  0.00  0.00    +0.000 C 
ATOM     26  C   UNL     1      -1.326  12.559  20.531  0.00  0.00    +0.000 C 
ATOM     27  C   UNL     1      -1.104  11.945  21.910  0.00  0.00    +0.000 C 
ENDBRANCH  16  19
ENDBRANCH   1  17
TORSDOF 4
ENDMDL
MODEL 3
REMARK VINA RESULT:      -8.8      1.670      2.115
REMARK  Name = 
REMARK  4 active torsions:
REMARK  status: ('A' for Active; 'I' for Inactive)
REMARK    1  A    between atoms: C_2  and  C_18
REMARK    2  A    between atoms: N_3  and  C_4
REMARK    3  A    between atoms: C_8  and  C_9
REMARK    4  A    between atoms: C_12  and  C_13
REMARK                            x       y       z     vdW  Elec       q    Type
REMARK                         _______ _______ _______ _____ _____    ______ ____
ROOT
ATOM      1  C   UNL     1       2.631   6.711  19.004  0.00  0.00    +0.000 A 
ATOM      2  C   UNL     1       2.784   5.704  19.963  0.00  0.00    +0.000 A 
ATOM      3  C   UNL     1       3.666   4.649  19.756  0.00  0.00    +0.000 A 
ATOM      4  C   UNL     1       4.401   4.579  18.578  0.00  0.00    +0.000 A 
ATOM      5  C   UNL     1       4.248   5.554  17.582  0.00  0.00    +0.000 A 
ATOM      6  C   UNL     1       3.350   6.617  17.800  0.00  0.00    +0.000 A 
ENDROOT
BRANCH   5   7
ATOM      7  C   UNL     1       5.028   5.434  16.352  0.00  0.00    +0.000 A 
ATOM      8  N   UNL     1       5.713   6.439  15.783  0.00  0.00    +0.000 NA
ATOM      9  O   UNL     1       6.275   5.852  14.647  0.00  0.00    +0.000 OA
ATOM     10  C   UNL     1       5.878   4.544  14.639  0.00  0.00    +0.000 A 
ATOM     11  N   UNL     1       5.111   4.242  15.661  0.00  0.00    +0.000 NA
BRANCH  10  12
ATOM     12  C   UNL     1       6.296   3.557  13.556  0.00  0.00    +0.000 C 
ATOM     13  C   UNL     1       6.757   4.083  12.211  0.00  0.00    +0.000 C 
ATOM     14  C   UNL     1       5.424   3.428  12.322  0.00  0.00    +0.000 C 
ENDBRANCH  10  12
ENDBRANCH   5   7
BRANCH   1  17
ATOM     15  O   UNL     1       2.228   9.044  17.285  0.00  0.00    +0.000 OA
ATOM     16  C   UNL     1       1.670   8.920  18.370  0.00  0.00    +0.000 C 
ATOM     17  N   UNL     1       1.764   7.812  19.200  0.00  0.00    +0.000 N 
ATOM     18  H   UNL     1       1.058   7.727  19.920  0.00  0.00    +0.000 HD
BRANCH  16  19
ATOM     19  C   UNL     1       0.766   9.960  18.832  0.00  0.00    +0.000 A 
ATOM     20  C   UNL     1       1.002  10.824  19.931  0.00  0.00    +0.000 A 
ATOM     21  N   UNL     1      -0.007  11.666  20.156  0.00  0.00    +0.000 NA
ATOM     22  N   UNL     1      -0.915  11.316  19.234  0.00  0.00    +0.000 N 
ATOM     23  C   UNL     1      -0.515  10.289  18.416  0.00  0.00    +0.000 A 
ATOM     24  C   UNL     1      -1.433   9.725  17.384  0.00  0.00    +0.000 C 
ATOM     25  C   UNL     1      -2.895  10.111  17.642  0.00  0.00    +0.000 C 
ATOM     26  C   UNL     1      -3.016  11.599  17.980  0.00  0.00    +0.000 C 
ATOM     27  C   UNL     1      -2.235  11.919  19.252  0.00  0.00    +0.000 C 
ENDBRANCH  16  19
ENDBRANCH   1  17
TORSDOF 4
ENDMDL
MODEL 4
REMARK VINA RESULT:      -8.5      1.221      1.453
REMARK  Name = 
REMARK  4 active torsions:
REMARK  status: ('A' for Active; 'I' for Inactive)
REMARK    1  A    between atoms: C_2  and  C_18
REMARK    2  A    between atoms: N_3  and  C_4
REMARK    3  A    between atoms: C_8  and  C_9
REMARK    4  A    between atoms: C_12  and  C_13
REMARK                            x       y       z     vdW  Elec       q    Type
REMARK                         _______ _______ _______ _____ _____    ______ ____
ROOT
ATOM      1  C   UNL     1       3.450   5.869  18.694  0.00  0.00    +0.000 A 
ATOM      2  C   UNL     1       3.664   4.794  19.564  0.00  0.00    +0.000 A 
ATOM      3  C   UNL     1       4.600   3.810  19.266  0.00  0.00    +0.000 A 
ATOM      4  C   UNL     1       5.329   3.879  18.084  0.00  0.00    +0.000 A 
ATOM      5  C   UNL     1       5.116   4.924  17.175  0.00  0.00    +0.000 A 
ATOM      6  C   UNL     1       4.164   5.915  17.484  0.00  0.00    +0.000 A 
ENDROOT
BRANCH   5   7
ATOM      7  C   UNL     1       5.892   4.951  15.936  0.00  0.00    +0.000 A 
ATOM      8  N   UNL     1       7.099   5.525  15.805  0.00  0.00    +0.000 NA
ATOM      9  O   UNL     1       7.424   5.304  14.465  0.00  0.00    +0.000 OA
ATOM     10  C   UNL     1       6.382   4.613  13.913  0.00  0.00    +0.000 A 
ATOM     11  N   UNL     1       5.419   4.376  14.773  0.00  0.00    +0.000 NA
BRANCH  10  12
ATOM     12  C   UNL     1       6.360   4.169  12.455  0.00  0.00    +0.000 C 
ATOM     13  C   UNL     1       5.256   3.245  11.978  0.00  0.00    +0.000 C 
ATOM     14  C   UNL     1       6.636   2.711  12.142  0.00  0.00    +0.000 C 
ENDBRANCH  10  12
ENDBRANCH   5   7
BRANCH   1  17
ATOM     15  O   UNL     1       3.023   8.389  17.270  0.00  0.00    +0.000 OA
ATOM     16  C   UNL     1       2.422   8.103  18.300  0.00  0.00    +0.000 C 
ATOM     17  N   UNL     1       2.527   6.900  18.984  0.00  0.00    +0.000 N 
ATOM     18  H   UNL     1       1.792   6.695  19.650  0.00  0.00    +0.000 HD
BRANCH  16  19
ATOM     19  C   UNL     1       1.452   9.039  18.844  0.00  0.00    +0.000 A 
ATOM     20  C   UNL     1       0.853  10.107  18.129  0.00  0.00    +0.000 A 
ATOM     21  N   UNL     1       0.021  10.831  18.878  0.00  0.00    +0.000 NA
ATOM     22  N   UNL     1       0.117  10.262  20.088  0.00  0.00    +0.000 N 
ATOM     23  C   UNL     1       0.971   9.188  20.136  0.00  0.00    +0.000 A 
ATOM     24  C   UNL     1       1.253   8.485  21.421  0.00  0.00    +0.000 C 
ATOM     25  C   UNL     1       0.846   9.326  22.637  0.00  0.00    +0.000 C 
ATOM     26  C   UNL     1      -0.542   9.939  22.439  0.00  0.00    +0.000 C 
ATOM     27  C   UNL     1      -0.544  10.869  21.229  0.00  0.00    +0.000 C 
ENDBRANCH  16  19
ENDBRANCH   1  17
TORSDOF 4
ENDMDL
MODEL 5
REMARK VINA RESULT:      -8.4      1.126      1.724
REMARK  Name = 
REMARK  4 active torsions:
REMARK  status: ('A' for Active; 'I' for Inactive)
REMARK    1  A    between atoms: C_2  and  C_18
REMARK    2  A    between atoms: N_3  and  C_4
REMARK    3  A    between atoms: C_8  and  C_9
REMARK    4  A    between atoms: C_12  and  C_13
REMARK                            x       y       z     vdW  Elec       q    Type
REMARK                         _______ _______ _______ _____ _____    ______ ____
ROOT
ATOM      1  C   UNL     1       2.848   5.707  19.712  0.00  0.00    +0.000 A 
ATOM      2  C   UNL     1       2.918   4.449  20.321  0.00  0.00    +0.000 A 
ATOM      3  C   UNL     1       3.641   3.413  19.740  0.00  0.00    +0.000 A 
ATOM      4  C   UNL     1       4.296   3.616  18.531  0.00  0.00    +0.000 A 
ATOM      5  C   UNL     1       4.219   4.854  17.877  0.00  0.00    +0.000 A 
ATOM      6  C   UNL     1       3.482   5.896  18.472  0.00  0.00    +0.000 A 
ENDROOT
BRANCH   5   7
ATOM      7  C   UNL     1       4.909   5.020  16.600  0.00  0.00    +0.000 A 
ATOM      8  N   UNL     1       5.186   6.205  16.031  0.00  0.00    +0.000 NA
ATOM      9  O   UNL     1       5.831   5.857  14.843  0.00  0.00    +0.000 OA
ATOM     10  C   UNL     1       5.887   4.492  14.807  0.00  0.00    +0.000 A 
ATOM     11  N   UNL     1       5.333   3.935  15.859  0.00  0.00    +0.000 NA
BRANCH  10  12
ATOM     12  C   UNL     1       6.532   3.717  13.664  0.00  0.00    +0.000 C 
ATOM     13  C   UNL     1       6.813   4.427  12.354  0.00  0.00    +0.000 C 
ATOM     14  C   UNL     1       5.703   3.437  12.425  0.00  0.00    +0.000 C 
ENDBRANCH  10  12
ENDBRANCH   5   7
BRANCH   1  17
ATOM     15  O   UNL     1       1.973   8.201  18.457  0.00  0.00    +0.000 OA
ATOM     16  C   UNL     1       1.817   7.973  19.652  0.00  0.00    +0.000 C 
ATOM     17  N   UNL     1       2.145   6.788  20.294  0.00  0.00    +0.000 N 
ATOM     18  H   UNL     1       1.725   6.636  21.202  0.00  0.00    +0.000 HD
BRANCH  16  19
ATOM     19  C   UNL     1       1.168   8.968  20.489  0.00  0.00    +0.000 A 
ATOM     20  C   UNL     1       1.263   9.040  21.902  0.00  0.00    +0.000 A 
ATOM     21  N   UNL     1       0.542  10.033  22.422  0.00  0.00    +0.000 NA
ATOM     22  N   UNL     1      -0.058  10.574  21.352  0.00  0.00    +0.000 N 
ATOM     23  C   UNL     1       0.267   9.970  20.163  0.00  0.00    +0.000 A 
ATOM     24  C   UNL     1      -0.369  10.399  18.883  0.00  0.00    +0.000 C 
ATOM     25  C   UNL     1      -1.642  11.221  19.121  0.00  0.00    +0.000 C 
ATOM     26  C   UNL     1      -1.417  12.278  20.205  0.00  0.00    +0.000 C 
ATOM     27  C   UNL     1      -1.058  11.611  21.530  0.00  0.00    +0.000 C 
ENDBRANCH  16  19
ENDBRANCH   1  17
TORSDOF 4
ENDMDL
MODEL 6
REMARK VINA RESULT:      -8.4      1.364      1.623
REMARK  Name = 
REMARK  4 active torsions:
REMARK  status: ('A' for Active; 'I' for Inactive)
REMARK    1  A    between atoms: C_2  and  C_18
REMARK    2  A    between atoms: N_3  and  C_4
REMARK    3  A    between atoms: C_8  and  C_9
REMARK    4  A    between atoms: C_12  and  C_13
REMARK                            x       y       z     vdW  Elec       q    Type
REMARK                         _______ _______ _______ _____ _____    ______ ____
ROOT
ATOM      1  C   UNL     1       2.217   6.252  20.239  0.00  0.00    +0.000 A 
ATOM      2  C   UNL     1       1.601   5.106  20.754  0.00  0.00    +0.000 A 
ATOM      3  C   UNL     1       2.170   3.849  20.580  0.00  0.00    +0.000 A 
ATOM      4  C   UNL     1       3.361   3.718  19.875  0.00  0.00    +0.000 A 
ATOM      5  C   UNL     1       3.988   4.842  19.318  0.00  0.00    +0.000 A 
ATOM      6  C   UNL     1       3.403   6.110  19.498  0.00  0.00    +0.000 A 
ENDROOT
BRANCH   5   7
ATOM      7  C   UNL     1       5.231   4.658  18.571  0.00  0.00    +0.000 A 
ATOM      8  N   UNL     1       6.456   4.644  19.121  0.00  0.00    +0.000 NA
ATOM      9  O   UNL     1       7.305   4.453  18.029  0.00  0.00    +0.000 OA
ATOM     10  C   UNL     1       6.511   4.367  16.920  0.00  0.00    +0.000 A 
ATOM     11  N   UNL     1       5.235   4.489  17.201  0.00  0.00    +0.000 NA
BRANCH  10  12
ATOM     12  C   UNL     1       7.065   4.145  15.517  0.00  0.00    +0.000 C 
ATOM     13  C   UNL     1       6.807   5.187  14.446  0.00  0.00    +0.000 C 
ATOM     14  C   UNL     1       6.086   3.885  14.388  0.00  0.00    +0.000 C 
ENDBRANCH  10  12
ENDBRANCH   5   7
BRANCH   1  17
ATOM     15  O   UNL     1       1.666   8.306  18.230  0.00  0.00    +0.000 OA
ATOM     16  C   UNL     1       1.501   8.496  19.430  0.00  0.00    +0.000 C 
ATOM     17  N   UNL     1       1.677   7.546  20.426  0.00  0.00    +0.000 N 
ATOM     18  H   UNL     1       1.256   7.751  21.324  0.00  0.00    +0.000 HD
BRANCH  16  19
ATOM     19  C   UNL     1       1.007   9.784  19.888  0.00  0.00    +0.000 A 
ATOM     20  C   UNL     1       1.333  11.039  19.315  0.00  0.00    +0.000 A 
ATOM     21  N   UNL     1       0.766  12.064  19.951  0.00  0.00    +0.000 NA
ATOM     22  N   UNL     1       0.111  11.478  20.963  0.00  0.00    +0.000 N 
ATOM     23  C   UNL     1       0.228  10.110  20.988  0.00  0.00    +0.000 A 
ATOM     24  C   UNL     1      -0.376   9.306  22.090  0.00  0.00    +0.000 C 
ATOM     25  C   UNL     1      -0.724  10.171  23.308  0.00  0.00    +0.000 C 
ATOM     26  C   UNL     1      -1.433  11.458  22.881  0.00  0.00    +0.000 C 
ATOM     27  C   UNL     1      -0.524  12.292  21.984  0.00  0.00    +0.000 C 
ENDBRANCH  16  19
ENDBRANCH   1  17
TORSDOF 4
ENDMDL
MODEL 7
REMARK VINA RESULT:      -8.4      3.580      9.179
REMARK  Name = 
REMARK  4 active torsions:
REMARK  status: ('A' for Active; 'I' for Inactive)
REMARK    1  A    between atoms: C_2  and  C_18
REMARK    2  A    between atoms: N_3  and  C_4
REMARK    3  A    between atoms: C_8  and  C_9
REMARK    4  A    between atoms: C_12  and  C_13
REMARK                            x       y       z     vdW  Elec       q    Type
REMARK                         _______ _______ _______ _____ _____    ______ ____
ROOT
ATOM      1  C   UNL     1       1.108  10.005  18.385  0.00  0.00    +0.000 A 
ATOM      2  C   UNL     1       1.936  11.133  18.365  0.00  0.00    +0.000 A 
ATOM      3  C   UNL     1       1.406  12.411  18.507  0.00  0.00    +0.000 A 
ATOM      4  C   UNL     1       0.035  12.581  18.658  0.00  0.00    +0.000 A 
ATOM      5  C   UNL     1      -0.827  11.476  18.649  0.00  0.00    +0.000 A 
ATOM      6  C   UNL     1      -0.281  10.185  18.503  0.00  0.00    +0.000 A 
ENDROOT
BRANCH   5   7
ATOM      7  C   UNL     1      -2.264  11.700  18.795  0.00  0.00    +0.000 A 
ATOM      8  N   UNL     1      -2.824  12.454  19.754  0.00  0.00    +0.000 NA
ATOM      9  O   UNL     1      -4.192  12.358  19.491  0.00  0.00    +0.000 OA
ATOM     10  C   UNL     1      -4.330  11.555  18.393  0.00  0.00    +0.000 A 
ATOM     11  N   UNL     1      -3.177  11.126  17.933  0.00  0.00    +0.000 NA
BRANCH  10  12
ATOM     12  C   UNL     1      -5.681  11.212  17.779  0.00  0.00    +0.000 C 
ATOM     13  C   UNL     1      -6.917  11.961  18.241  0.00  0.00    +0.000 C 
ATOM     14  C   UNL     1      -6.723  10.544  18.656  0.00  0.00    +0.000 C 
ENDBRANCH  10  12
ENDBRANCH   5   7
BRANCH   1  17
ATOM     15  O   UNL     1       1.836   8.144  20.522  0.00  0.00    +0.000 OA
ATOM     16  C   UNL     1       2.006   7.886  19.336  0.00  0.00    +0.000 C 
ATOM     17  N   UNL     1       1.621   8.692  18.274  0.00  0.00    +0.000 N 
ATOM     18  H   UNL     1       1.577   8.249  17.365  0.00  0.00    +0.000 HD
BRANCH  16  19
ATOM     19  C   UNL     1       2.585   6.607  18.960  0.00  0.00    +0.000 A 
ATOM     20  C   UNL     1       3.543   6.410  17.934  0.00  0.00    +0.000 A 
ATOM     21  N   UNL     1       3.881   5.129  17.777  0.00  0.00    +0.000 NA
ATOM     22  N   UNL     1       3.108   4.493  18.668  0.00  0.00    +0.000 N 
ATOM     23  C   UNL     1       2.297   5.324  19.401  0.00  0.00    +0.000 A 
ATOM     24  C   UNL     1       1.319   4.774  20.384  0.00  0.00    +0.000 C 
ATOM     25  C   UNL     1       1.055   3.280  20.158  0.00  0.00    +0.000 C 
ATOM     26  C   UNL     1       2.365   2.520  19.941  0.00  0.00    +0.000 C 
ATOM     27  C   UNL     1       3.082   3.042  18.699  0.00  0.00    +0.000 C 
ENDBRANCH  16  19
ENDBRANCH   1  17
TORSDOF 4
ENDMDL
MODEL 8
REMARK VINA RESULT:      -8.4      3.179      8.244
REMARK  Name = 
REMARK  4 active torsions:
REMARK  status: ('A' for Active; 'I' for Inactive)
REMARK    1  A    between atoms: C_2  and  C_18
REMARK    2  A    between atoms: N_3  and  C_4
REMARK    3  A    between atoms: C_8  and  C_9
REMARK    4  A    between atoms: C_12  and  C_13
REMARK                            x       y       z     vdW  Elec       q    Type
REMARK                         _______ _______ _______ _____ _____    ______ ____
ROOT
ATOM      1  C   UNL     1       1.184   8.431  21.044  0.00  0.00    +0.000 A 
ATOM      2  C   UNL     1       1.201   8.992  22.325  0.00  0.00    +0.000 A 
ATOM      3  C   UNL     1       0.417  10.099  22.631  0.00  0.00    +0.000 A 
ATOM      4  C   UNL     1      -0.389  10.671  21.653  0.00  0.00    +0.000 A 
ATOM      5  C   UNL     1      -0.404  10.154  20.350  0.00  0.00    +0.000 A 
ATOM      6  C   UNL     1       0.395   9.034  20.049  0.00  0.00    +0.000 A 
ENDROOT
BRANCH   5   7
ATOM      7  C   UNL     1      -1.253  10.795  19.347  0.00  0.00    +0.000 A 
ATOM      8  N   UNL     1      -2.052  11.847  19.584  0.00  0.00    +0.000 NA
ATOM      9  O   UNL     1      -2.655  12.088  18.347  0.00  0.00    +0.000 OA
ATOM     10  C   UNL     1      -2.160  11.157  17.477  0.00  0.00    +0.000 A 
ATOM     11  N   UNL     1      -1.300  10.342  18.043  0.00  0.00    +0.000 NA
BRANCH  10  12
ATOM     12  C   UNL     1      -2.568  11.093  16.010  0.00  0.00    +0.000 C 
ATOM     13  C   UNL     1      -4.013  10.804  15.655  0.00  0.00    +0.000 C 
ATOM     14  C   UNL     1      -2.983   9.752  15.435  0.00  0.00    +0.000 C 
ENDBRANCH  10  12
ENDBRANCH   5   7
BRANCH   1  17
ATOM     15  O   UNL     1       2.625   7.856  18.564  0.00  0.00    +0.000 OA
ATOM     16  C   UNL     1       2.555   7.052  19.487  0.00  0.00    +0.000 C 
ATOM     17  N   UNL     1       1.949   7.287  20.712  0.00  0.00    +0.000 N 
ATOM     18  H   UNL     1       2.192   6.655  21.464  0.00  0.00    +0.000 HD
BRANCH  16  19
ATOM     19  C   UNL     1       3.213   5.763  19.363  0.00  0.00    +0.000 A 
ATOM     20  C   UNL     1       4.607   5.566  19.196  0.00  0.00    +0.000 A 
ATOM     21  N   UNL     1       4.940   4.280  19.076  0.00  0.00    +0.000 NA
ATOM     22  N   UNL     1       3.759   3.649  19.118  0.00  0.00    +0.000 N 
ATOM     23  C   UNL     1       2.681   4.485  19.275  0.00  0.00    +0.000 A 
ATOM     24  C   UNL     1       1.287   3.955  19.267  0.00  0.00    +0.000 C 
ATOM     25  C   UNL     1       1.213   2.545  18.666  0.00  0.00    +0.000 C 
ATOM     26  C   UNL     1       2.321   1.652  19.227  0.00  0.00    +0.000 C 
ATOM     27  C   UNL     1       3.692   2.220  18.869  0.00  0.00    +0.000 C 
ENDBRANCH  16  19
ENDBRANCH   1  17
TORSDOF 4
ENDMDL
MODEL 9
REMARK VINA RESULT:      -8.4      3.540      9.394
REMARK  Name = 
REMARK  4 active torsions:
REMARK  status: ('A' for Active; 'I' for Inactive)
REMARK    1  A    between atoms: C_2  and  C_18
REMARK    2  A    between atoms: N_3  and  C_4
REMARK    3  A    between atoms: C_8  and  C_9
REMARK    4  A    between atoms: C_12  and  C_13
REMARK                            x       y       z     vdW  Elec       q    Type
REMARK                         _______ _______ _______ _____ _____    ______ ____
ROOT
ATOM      1  C   UNL     1       0.909   9.995  18.166  0.00  0.00    +0.000 A 
ATOM      2  C   UNL     1       1.451  11.099  18.832  0.00  0.00    +0.000 A 
ATOM      3  C   UNL     1       0.655  12.185  19.182  0.00  0.00    +0.000 A 
ATOM      4  C   UNL     1      -0.697  12.187  18.858  0.00  0.00    +0.000 A 
ATOM      5  C   UNL     1      -1.266  11.111  18.162  0.00  0.00    +0.000 A 
ATOM      6  C   UNL     1      -0.451  10.018  17.811  0.00  0.00    +0.000 A 
ENDROOT
BRANCH   5   7
ATOM      7  C   UNL     1      -2.688  11.160  17.828  0.00  0.00    +0.000 A 
ATOM      8  N   UNL     1      -3.210  10.757  16.659  0.00  0.00    +0.000 NA
ATOM      9  O   UNL     1      -4.577  11.003  16.807  0.00  0.00    +0.000 OA
ATOM     10  C   UNL     1      -4.752  11.531  18.056  0.00  0.00    +0.000 A 
ATOM     11  N   UNL     1      -3.624  11.649  18.717  0.00  0.00    +0.000 NA
BRANCH  10  12
ATOM     12  C   UNL     1      -6.117  11.927  18.606  0.00  0.00    +0.000 C 
ATOM     13  C   UNL     1      -6.381  11.802  20.094  0.00  0.00    +0.000 C 
ATOM     14  C   UNL     1      -7.017  10.837  19.154  0.00  0.00    +0.000 C 
ENDBRANCH  10  12
ENDBRANCH   5   7
BRANCH   1  17
ATOM     15  O   UNL     1       1.915   7.878  19.916  0.00  0.00    +0.000 OA
ATOM     16  C   UNL     1       2.186   7.930  18.722  0.00  0.00    +0.000 C 
ATOM     17  N   UNL     1       1.688   8.864  17.825  0.00  0.00    +0.000 N 
ATOM     18  H   UNL     1       1.774   8.636  16.843  0.00  0.00    +0.000 HD
BRANCH  16  19
ATOM     19  C   UNL     1       3.032   6.904  18.136  0.00  0.00    +0.000 A 
ATOM     20  C   UNL     1       4.189   7.144  17.352  0.00  0.00    +0.000 A 
ATOM     21  N   UNL     1       4.761   6.023  16.912  0.00  0.00    +0.000 NA
ATOM     22  N   UNL     1       3.949   5.060  17.370  0.00  0.00    +0.000 N 
ATOM     23  C   UNL     1       2.885   5.526  18.102  0.00  0.00    +0.000 A 
ATOM     24  C   UNL     1       1.842   4.595  18.622  0.00  0.00    +0.000 C 
ATOM     25  C   UNL     1       1.881   3.235  17.914  0.00  0.00    +0.000 C 
ATOM     26  C   UNL     1       3.317   2.718  17.799  0.00  0.00    +0.000 C 
ATOM     27  C   UNL     1       4.161   3.681  16.969  0.00  0.00    +0.000 C 
ENDBRANCH  16  19
ENDBRANCH   1  17
TORSDOF 4
ENDMDL
