MODEL 1
REMARK VINA RESULT:      -8.7      0.000      0.000
REMARK  Name = 
REMARK  4 active torsions:
REMARK  status: ('A' for Active; 'I' for Inactive)
REMARK    1  A    between atoms: C_1  and  C_2
REMARK    2  A    between atoms: C_4  and  N_5
REMARK    3  A    between atoms: C_12  and  C_13
REMARK    4  A    between atoms: C_21  and  C_22
REMARK                            x       y       z     vdW  Elec       q    Type
REMARK                         _______ _______ _______ _____ _____    ______ ____
ROOT
ATOM      1  N   UNL     1       2.388   7.508  18.783  0.00  0.00    +0.000 N 
ATOM      2  C   UNL     1       1.898   8.704  18.333  0.00  0.00    +0.000 C 
ATOM      3  O   UNL     1       2.190   9.222  17.257  0.00  0.00    +0.000 OA
ATOM      4  N   UNL     1       0.969   9.320  19.169  0.00  0.00    +0.000 N 
ATOM      5  C   UNL     1       0.318  10.477  18.519  0.00  0.00    +0.000 C 
ATOM      6  C   UNL     1       1.065  11.734  18.929  0.00  0.00    +0.000 C 
ATOM      7  N   UNL     1       0.747  11.881  20.334  0.00  0.00    +0.000 N 
ATOM      8  C   UNL     1       0.007  12.852  20.946  0.00  0.00    +0.000 A 
ATOM      9  N   UNL     1      -0.304  12.418  22.152  0.00  0.00    +0.000 NA
ATOM     10  N   UNL     1       0.148  11.119  22.287  0.00  0.00    +0.000 NA
ATOM     11  C   UNL     1       0.726  10.776  21.156  0.00  0.00    +0.000 A 
ATOM     12  C   UNL     1       1.173   9.414  20.656  0.00  0.00    +0.000 C 
ATOM     13  C   UNL     1       0.472   8.296  21.430  0.00  0.00    +0.000 C 
ATOM     14  H   UNL     1       1.932   7.102  19.583  0.00  0.00    +0.000 HD
ENDROOT
BRANCH   1  18
ATOM     15  C   UNL     1       3.618   2.904  17.322  0.00  0.00    +0.000 C 
ATOM     16  C   UNL     1       3.908   4.378  17.319  0.00  0.00    +0.000 A 
ATOM     17  C   UNL     1       3.005   5.264  17.946  0.00  0.00    +0.000 A 
ATOM     18  C   UNL     1       3.241   6.634  18.060  0.00  0.00    +0.000 A 
ATOM     19  C   UNL     1       4.388   7.191  17.481  0.00  0.00    +0.000 A 
ATOM     20  C   UNL     1       5.266   6.318  16.823  0.00  0.00    +0.000 A 
ATOM     21  N   UNL     1       6.452   6.540  16.173  0.00  0.00    +0.000 N 
ATOM     22  N   UNL     1       7.027   5.430  15.677  0.00  0.00    +0.000 NA
ATOM     23  C   UNL     1       6.177   4.463  16.026  0.00  0.00    +0.000 A 
ATOM     24  C   UNL     1       5.057   4.947  16.739  0.00  0.00    +0.000 A 
ATOM     25  H   UNL     1       6.924   7.427  16.034  0.00  0.00    +0.000 HD
ENDBRANCH   1  18
BRANCH   8  26
ATOM     26  C   UNL     1      -0.462  14.098  20.267  0.00  0.00    +0.000 C 
ATOM     27  C   UNL     1       0.512  15.266  20.393  0.00  0.00    +0.000 C 
ATOM     28  C   UNL     1      -0.340  16.533  20.373  0.00  0.00    +0.000 C 
ATOM     29  C   UNL     1      -1.796  16.095  20.482  0.00  0.00    +0.000 C 
ATOM     30  C   UNL     1      -1.758  14.629  20.884  0.00  0.00    +0.000 C 
ENDBRANCH   8  26
TORSDOF 2
ENDMDL
MODEL 2
REMARK VINA RESULT:      -8.5      2.181      2.586
REMARK  Name = 
REMARK  4 active torsions:
REMARK  status: ('A' for Active; 'I' for Inactive)
REMARK    1  A    between atoms: C_1  and  C_2
REMARK    2  A    between atoms: C_4  and  N_5
REMARK    3  A    between atoms: C_12  and  C_13
REMARK    4  A    between atoms: C_21  and  C_22
REMARK                            x       y       z     vdW  Elec       q    Type
REMARK                         _______ _______ _______ _____ _____    ______ ____
ROOT
ATOM      1  N   UNL     1       1.471   7.725  20.406  0.00  0.00    +0.000 N 
ATOM      2  C   UNL     1       1.393   8.725  19.476  0.00  0.00    +0.000 C 
ATOM      3  O   UNL     1       1.883   8.676  18.350  0.00  0.00    +0.000 OA
ATOM      4  N   UNL     1       0.656   9.843  19.862  0.00  0.00    +0.000 N 
ATOM      5  C   UNL     1       0.424  10.772  18.736  0.00  0.00    +0.000 C 
ATOM      6  C   UNL     1       1.498  11.844  18.777  0.00  0.00    +0.000 C 
ATOM      7  N   UNL     1       1.170  12.616  19.957  0.00  0.00    +0.000 N 
ATOM      8  C   UNL     1       0.732  13.907  20.040  0.00  0.00    +0.000 A 
ATOM      9  N   UNL     1       0.243  14.087  21.252  0.00  0.00    +0.000 NA
ATOM     10  N   UNL     1       0.269  12.881  21.925  0.00  0.00    +0.000 NA
ATOM     11  C   UNL     1       0.770  11.977  21.110  0.00  0.00    +0.000 A 
ATOM     12  C   UNL     1       0.804  10.464  21.224  0.00  0.00    +0.000 C 
ATOM     13  C   UNL     1      -0.243   9.972  22.225  0.00  0.00    +0.000 C 
ATOM     14  H   UNL     1       0.872   7.805  21.212  0.00  0.00    +0.000 HD
ENDROOT
BRANCH   1  18
ATOM     15  C   UNL     1       1.368   2.784  21.059  0.00  0.00    +0.000 C 
ATOM     16  C   UNL     1       2.063   3.998  20.511  0.00  0.00    +0.000 A 
ATOM     17  C   UNL     1       1.439   5.260  20.613  0.00  0.00    +0.000 A 
ATOM     18  C   UNL     1       2.051   6.445  20.205  0.00  0.00    +0.000 A 
ATOM     19  C   UNL     1       3.316   6.401  19.604  0.00  0.00    +0.000 A 
ATOM     20  C   UNL     1       3.919   5.144  19.465  0.00  0.00    +0.000 A 
ATOM     21  N   UNL     1       5.127   4.768  18.938  0.00  0.00    +0.000 N 
ATOM     22  N   UNL     1       5.371   3.448  19.001  0.00  0.00    +0.000 NA
ATOM     23  C   UNL     1       4.278   2.962  19.592  0.00  0.00    +0.000 A 
ATOM     24  C   UNL     1       3.332   3.964  19.905  0.00  0.00    +0.000 A 
ATOM     25  H   UNL     1       5.832   5.367  18.521  0.00  0.00    +0.000 HD
ENDBRANCH   1  18
BRANCH   8  26
ATOM     26  C   UNL     1       0.701  14.855  18.886  0.00  0.00    +0.000 C 
ATOM     27  C   UNL     1       1.969  15.693  18.748  0.00  0.00    +0.000 C 
ATOM     28  C   UNL     1       1.538  17.017  18.122  0.00  0.00    +0.000 C 
ATOM     29  C   UNL     1       0.014  17.038  18.126  0.00  0.00    +0.000 C 
ATOM     30  C   UNL     1      -0.413  15.893  19.031  0.00  0.00    +0.000 C 
ENDBRANCH   8  26
TORSDOF 2
ENDMDL
MODEL 3
REMARK VINA RESULT:      -8.4      2.197      2.680
REMARK  Name = 
REMARK  4 active torsions:
REMARK  status: ('A' for Active; 'I' for Inactive)
REMARK    1  A    between atoms: C_1  and  C_2
REMARK    2  A    between atoms: C_4  and  N_5
REMARK    3  A    between atoms: C_12  and  C_13
REMARK    4  A    between atoms: C_21  and  C_22
REMARK                            x       y       z     vdW  Elec       q    Type
REMARK                         _______ _______ _______ _____ _____    ______ ____
ROOT
ATOM      1  N   UNL     1       1.919   7.245  19.928  0.00  0.00    +0.000 N 
ATOM      2  C   UNL     1       1.782   8.318  19.090  0.00  0.00    +0.000 C 
ATOM      3  O   UNL     1       2.299   8.412  17.979  0.00  0.00    +0.000 OA
ATOM      4  N   UNL     1       0.950   9.335  19.555  0.00  0.00    +0.000 N 
ATOM      5  C   UNL     1       0.668  10.344  18.513  0.00  0.00    +0.000 C 
ATOM      6  C   UNL     1       1.652  11.488  18.682  0.00  0.00    +0.000 C 
ATOM      7  N   UNL     1       1.238  12.119  19.918  0.00  0.00    +0.000 N 
ATOM      8  C   UNL     1       0.697  13.359  20.105  0.00  0.00    +0.000 A 
ATOM      9  N   UNL     1       0.169  13.387  21.315  0.00  0.00    +0.000 NA
ATOM     10  N   UNL     1       0.277  12.128  21.875  0.00  0.00    +0.000 NA
ATOM     11  C   UNL     1       0.866  11.346  20.996  0.00  0.00    +0.000 A 
ATOM     12  C   UNL     1       1.019   9.836  20.972  0.00  0.00    +0.000 C 
ATOM     13  C   UNL     1      -0.007   9.173  21.894  0.00  0.00    +0.000 C 
ATOM     14  H   UNL     1       1.299   7.203  20.720  0.00  0.00    +0.000 HD
ENDROOT
BRANCH   1  18
ATOM     15  C   UNL     1       6.118   4.848  18.716  0.00  0.00    +0.000 C 
ATOM     16  C   UNL     1       4.646   4.801  19.011  0.00  0.00    +0.000 A 
ATOM     17  C   UNL     1       3.981   5.979  19.415  0.00  0.00    +0.000 A 
ATOM     18  C   UNL     1       2.604   6.039  19.627  0.00  0.00    +0.000 A 
ATOM     19  C   UNL     1       1.832   4.877  19.501  0.00  0.00    +0.000 A 
ATOM     20  C   UNL     1       2.497   3.697  19.139  0.00  0.00    +0.000 A 
ATOM     21  N   UNL     1       2.040   2.423  18.931  0.00  0.00    +0.000 N 
ATOM     22  N   UNL     1       2.992   1.546  18.567  0.00  0.00    +0.000 NA
ATOM     23  C   UNL     1       4.099   2.290  18.539  0.00  0.00    +0.000 A 
ATOM     24  C   UNL     1       3.862   3.639  18.888  0.00  0.00    +0.000 A 
ATOM     25  H   UNL     1       1.087   2.086  19.020  0.00  0.00    +0.000 HD
ENDBRANCH   1  18
BRANCH   8  26
ATOM     26  C   UNL     1       0.616  14.405  19.042  0.00  0.00    +0.000 C 
ATOM     27  C   UNL     1       1.858  15.287  18.956  0.00  0.00    +0.000 C 
ATOM     28  C   UNL     1       1.377  16.649  18.460  0.00  0.00    +0.000 C 
ATOM     29  C   UNL     1      -0.146  16.626  18.495  0.00  0.00    +0.000 C 
ATOM     30  C   UNL     1      -0.523  15.394  19.302  0.00  0.00    +0.000 C 
ENDBRANCH   8  26
TORSDOF 2
ENDMDL
MODEL 4
REMARK VINA RESULT:      -8.2      1.654      2.153
REMARK  Name = 
REMARK  4 active torsions:
REMARK  status: ('A' for Active; 'I' for Inactive)
REMARK    1  A    between atoms: C_1  and  C_2
REMARK    2  A    between atoms: C_4  and  N_5
REMARK    3  A    between atoms: C_12  and  C_13
REMARK    4  A    between atoms: C_21  and  C_22
REMARK                            x       y       z     vdW  Elec       q    Type
REMARK                         _______ _______ _______ _____ _____    ______ ____
ROOT
ATOM      1  N   UNL     1       1.924   8.004  19.285  0.00  0.00    +0.000 N 
ATOM      2  C   UNL     1       1.467   9.106  18.615  0.00  0.00    +0.000 C 
ATOM      3  O   UNL     1       1.702   9.358  17.435  0.00  0.00    +0.000 OA
ATOM      4  N   UNL     1       0.643   9.954  19.353  0.00  0.00    +0.000 N 
ATOM      5  C   UNL     1       0.008  10.986  18.508  0.00  0.00    +0.000 C 
ATOM      6  C   UNL     1       0.853  12.245  18.581  0.00  0.00    +0.000 C 
ATOM      7  N   UNL     1       0.656  12.715  19.937  0.00  0.00    +0.000 N 
ATOM      8  C   UNL     1       0.022  13.846  20.366  0.00  0.00    +0.000 A 
ATOM      9  N   UNL     1      -0.216  13.705  21.656  0.00  0.00    +0.000 NA
ATOM     10  N   UNL     1       0.172  12.437  22.045  0.00  0.00    +0.000 NA
ATOM     11  C   UNL     1       0.638  11.817  20.981  0.00  0.00    +0.000 A 
ATOM     12  C   UNL     1       0.969  10.351  20.767  0.00  0.00    +0.000 C 
ATOM     13  C   UNL     1       0.270   9.479  21.812  0.00  0.00    +0.000 C 
ATOM     14  H   UNL     1       1.511   7.814  20.183  0.00  0.00    +0.000 HD
ENDROOT
BRANCH   1  18
ATOM     15  C   UNL     1       5.304   6.351  16.016  0.00  0.00    +0.000 C 
ATOM     16  C   UNL     1       4.319   6.057  17.111  0.00  0.00    +0.000 A 
ATOM     17  C   UNL     1       3.655   7.126  17.752  0.00  0.00    +0.000 A 
ATOM     18  C   UNL     1       2.668   6.936  18.719  0.00  0.00    +0.000 A 
ATOM     19  C   UNL     1       2.345   5.638  19.135  0.00  0.00    +0.000 A 
ATOM     20  C   UNL     1       3.032   4.578  18.528  0.00  0.00    +0.000 A 
ATOM     21  N   UNL     1       2.947   3.221  18.702  0.00  0.00    +0.000 N 
ATOM     22  N   UNL     1       3.767   2.509  17.909  0.00  0.00    +0.000 NA
ATOM     23  C   UNL     1       4.397   3.447  17.199  0.00  0.00    +0.000 A 
ATOM     24  C   UNL     1       3.989   4.758  17.537  0.00  0.00    +0.000 A 
ATOM     25  H   UNL     1       2.348   2.718  19.347  0.00  0.00    +0.000 HD
ENDBRANCH   1  18
BRANCH   8  26
ATOM     26  C   UNL     1      -0.430  14.945  19.461  0.00  0.00    +0.000 C 
ATOM     27  C   UNL     1       0.702  15.856  18.994  0.00  0.00    +0.000 C 
ATOM     28  C   UNL     1       0.078  17.233  18.779  0.00  0.00    +0.000 C 
ATOM     29  C   UNL     1      -1.335  17.177  19.347  0.00  0.00    +0.000 C 
ATOM     30  C   UNL     1      -1.403  15.895  20.162  0.00  0.00    +0.000 C 
ENDBRANCH   8  26
TORSDOF 2
ENDMDL
MODEL 5
REMARK VINA RESULT:      -8.2      2.881     10.019
REMARK  Name = 
REMARK  4 active torsions:
REMARK  status: ('A' for Active; 'I' for Inactive)
REMARK    1  A    between atoms: C_1  and  C_2
REMARK    2  A    between atoms: C_4  and  N_5
REMARK    3  A    between atoms: C_12  and  C_13
REMARK    4  A    between atoms: C_21  and  C_22
REMARK                            x       y       z     vdW  Elec       q    Type
REMARK                         _______ _______ _______ _____ _____    ______ ____
ROOT
ATOM      1  N   UNL     1      -1.250  11.497  21.675  0.00  0.00    +0.000 N 
ATOM      2  C   UNL     1      -0.714  10.263  21.922  0.00  0.00    +0.000 C 
ATOM      3  O   UNL     1      -0.548   9.780  23.040  0.00  0.00    +0.000 OA
ATOM      4  N   UNL     1      -0.388   9.516  20.791  0.00  0.00    +0.000 N 
ATOM      5  C   UNL     1      -0.033   8.122  21.128  0.00  0.00    +0.000 C 
ATOM      6  C   UNL     1       1.478   8.032  21.248  0.00  0.00    +0.000 C 
ATOM      7  N   UNL     1       1.943   8.206  19.888  0.00  0.00    +0.000 N 
ATOM      8  C   UNL     1       2.562   7.300  19.074  0.00  0.00    +0.000 A 
ATOM      9  N   UNL     1       2.500   7.764  17.840  0.00  0.00    +0.000 NA
ATOM     10  N   UNL     1       1.749   8.924  17.838  0.00  0.00    +0.000 NA
ATOM     11  C   UNL     1       1.357   9.150  19.074  0.00  0.00    +0.000 A 
ATOM     12  C   UNL     1       0.325  10.124  19.613  0.00  0.00    +0.000 C 
ATOM     13  C   UNL     1      -0.627  10.575  18.503  0.00  0.00    +0.000 C 
ATOM     14  H   UNL     1      -1.509  11.698  20.723  0.00  0.00    +0.000 HD
ENDROOT
BRANCH   1  18
ATOM     15  C   UNL     1      -5.025  12.989  24.567  0.00  0.00    +0.000 C 
ATOM     16  C   UNL     1      -3.614  13.179  24.090  0.00  0.00    +0.000 A 
ATOM     17  C   UNL     1      -3.048  12.238  23.203  0.00  0.00    +0.000 A 
ATOM     18  C   UNL     1      -1.777  12.384  22.649  0.00  0.00    +0.000 A 
ATOM     19  C   UNL     1      -0.979  13.474  23.022  0.00  0.00    +0.000 A 
ATOM     20  C   UNL     1      -1.524  14.388  23.934  0.00  0.00    +0.000 A 
ATOM     21  N   UNL     1      -1.017  15.536  24.483  0.00  0.00    +0.000 N 
ATOM     22  N   UNL     1      -1.859  16.170  25.318  0.00  0.00    +0.000 NA
ATOM     23  C   UNL     1      -2.947  15.397  25.299  0.00  0.00    +0.000 A 
ATOM     24  C   UNL     1      -2.805  14.269  24.460  0.00  0.00    +0.000 A 
ATOM     25  H   UNL     1      -0.100  15.943  24.328  0.00  0.00    +0.000 HD
ENDBRANCH   1  18
BRANCH   8  26
ATOM     26  C   UNL     1       3.066   5.971  19.533  0.00  0.00    +0.000 C 
ATOM     27  C   UNL     1       4.371   5.548  18.864  0.00  0.00    +0.000 C 
ATOM     28  C   UNL     1       4.345   4.022  18.811  0.00  0.00    +0.000 C 
ATOM     29  C   UNL     1       2.944   3.584  19.219  0.00  0.00    +0.000 C 
ATOM     30  C   UNL     1       2.092   4.843  19.190  0.00  0.00    +0.000 C 
ENDBRANCH   8  26
TORSDOF 2
ENDMDL
MODEL 6
REMARK VINA RESULT:      -8.1      2.589      3.416
REMARK  Name = 
REMARK  4 active torsions:
REMARK  status: ('A' for Active; 'I' for Inactive)
REMARK    1  A    between atoms: C_1  and  C_2
REMARK    2  A    between atoms: C_4  and  N_5
REMARK    3  A    between atoms: C_12  and  C_13
REMARK    4  A    between atoms: C_21  and  C_22
REMARK                            x       y       z     vdW  Elec       q    Type
REMARK                         _______ _______ _______ _____ _____    ______ ____
ROOT
ATOM      1  N   UNL     1       1.989   7.396  19.677  0.00  0.00    +0.000 N 
ATOM      2  C   UNL     1       1.432   8.179  20.651  0.00  0.00    +0.000 C 
ATOM      3  O   UNL     1       1.125   7.789  21.775  0.00  0.00    +0.000 OA
ATOM      4  N   UNL     1       1.261   9.521  20.313  0.00  0.00    +0.000 N 
ATOM      5  C   UNL     1       0.874  10.343  21.478  0.00  0.00    +0.000 C 
ATOM      6  C   UNL     1      -0.639  10.468  21.488  0.00  0.00    +0.000 C 
ATOM      7  N   UNL     1      -0.924  11.307  20.342  0.00  0.00    +0.000 N 
ATOM      8  C   UNL     1      -1.426  12.577  20.316  0.00  0.00    +0.000 A 
ATOM      9  N   UNL     1      -1.206  13.069  19.111  0.00  0.00    +0.000 NA
ATOM     10  N   UNL     1      -0.468  12.154  18.386  0.00  0.00    +0.000 NA
ATOM     11  C   UNL     1      -0.242  11.115  19.161  0.00  0.00    +0.000 A 
ATOM     12  C   UNL     1       0.705   9.942  18.980  0.00  0.00    +0.000 C 
ATOM     13  C   UNL     1       1.791  10.276  17.954  0.00  0.00    +0.000 C 
ATOM     14  H   UNL     1       2.369   7.870  18.874  0.00  0.00    +0.000 HD
ENDROOT
BRANCH   1  18
ATOM     15  C   UNL     1       1.170   2.844  21.533  0.00  0.00    +0.000 C 
ATOM     16  C   UNL     1       2.035   3.771  20.728  0.00  0.00    +0.000 A 
ATOM     17  C   UNL     1       1.601   5.093  20.488  0.00  0.00    +0.000 A 
ATOM     18  C   UNL     1       2.379   6.039  19.823  0.00  0.00    +0.000 A 
ATOM     19  C   UNL     1       3.626   5.670  19.303  0.00  0.00    +0.000 A 
ATOM     20  C   UNL     1       4.041   4.346  19.505  0.00  0.00    +0.000 A 
ATOM     21  N   UNL     1       5.184   3.686  19.136  0.00  0.00    +0.000 N 
ATOM     22  N   UNL     1       5.234   2.403  19.534  0.00  0.00    +0.000 NA
ATOM     23  C   UNL     1       4.080   2.239  20.184  0.00  0.00    +0.000 A 
ATOM     24  C   UNL     1       3.288   3.409  20.201  0.00  0.00    +0.000 A 
ATOM     25  H   UNL     1       5.969   4.056  18.611  0.00  0.00    +0.000 HD
ENDBRANCH   1  18
BRANCH   8  26
ATOM     26  C   UNL     1      -1.978  13.282  21.511  0.00  0.00    +0.000 C 
ATOM     27  C   UNL     1      -3.468  13.038  21.731  0.00  0.00    +0.000 C 
ATOM     28  C   UNL     1      -4.010  14.298  22.402  0.00  0.00    +0.000 C 
ATOM     29  C   UNL     1      -2.905  15.345  22.347  0.00  0.00    +0.000 C 
ATOM     30  C   UNL     1      -1.868  14.802  21.376  0.00  0.00    +0.000 C 
ENDBRANCH   8  26
TORSDOF 2
ENDMDL
MODEL 7
REMARK VINA RESULT:      -8.1      2.671      3.449
REMARK  Name = 
REMARK  4 active torsions:
REMARK  status: ('A' for Active; 'I' for Inactive)
REMARK    1  A    between atoms: C_1  and  C_2
REMARK    2  A    between atoms: C_4  and  N_5
REMARK    3  A    between atoms: C_12  and  C_13
REMARK    4  A    between atoms: C_21  and  C_22
REMARK                            x       y       z     vdW  Elec       q    Type
REMARK                         _______ _______ _______ _____ _____    ______ ____
ROOT
ATOM      1  N   UNL     1       2.010   7.401  19.623  0.00  0.00    +0.000 N 
ATOM      2  C   UNL     1       1.472   8.207  20.589  0.00  0.00    +0.000 C 
ATOM      3  O   UNL     1       1.173   7.841  21.723  0.00  0.00    +0.000 OA
ATOM      4  N   UNL     1       1.311   9.544  20.228  0.00  0.00    +0.000 N 
ATOM      5  C   UNL     1       0.945  10.391  21.382  0.00  0.00    +0.000 C 
ATOM      6  C   UNL     1      -0.567  10.533  21.407  0.00  0.00    +0.000 C 
ATOM      7  N   UNL     1      -0.856  11.353  20.249  0.00  0.00    +0.000 N 
ATOM      8  C   UNL     1      -1.345  12.627  20.205  0.00  0.00    +0.000 A 
ATOM      9  N   UNL     1      -1.134  13.095  18.989  0.00  0.00    +0.000 NA
ATOM     10  N   UNL     1      -0.414  12.159  18.272  0.00  0.00    +0.000 NA
ATOM     11  C   UNL     1      -0.189  11.132  19.064  0.00  0.00    +0.000 A 
ATOM     12  C   UNL     1       0.744   9.946  18.894  0.00  0.00    +0.000 C 
ATOM     13  C   UNL     1       1.821  10.250  17.850  0.00  0.00    +0.000 C 
ATOM     14  H   UNL     1       2.385   7.856  18.808  0.00  0.00    +0.000 HD
ENDROOT
BRANCH   1  18
ATOM     15  C   UNL     1       1.133   2.876  21.522  0.00  0.00    +0.000 C 
ATOM     16  C   UNL     1       2.015   3.788  20.717  0.00  0.00    +0.000 A 
ATOM     17  C   UNL     1       1.594   5.110  20.457  0.00  0.00    +0.000 A 
ATOM     18  C   UNL     1       2.387   6.043  19.790  0.00  0.00    +0.000 A 
ATOM     19  C   UNL     1       3.638   5.658  19.291  0.00  0.00    +0.000 A 
ATOM     20  C   UNL     1       4.041   4.334  19.514  0.00  0.00    +0.000 A 
ATOM     21  N   UNL     1       5.183   3.661  19.168  0.00  0.00    +0.000 N 
ATOM     22  N   UNL     1       5.219   2.382  19.581  0.00  0.00    +0.000 NA
ATOM     23  C   UNL     1       4.055   2.234  20.218  0.00  0.00    +0.000 A 
ATOM     24  C   UNL     1       3.272   3.411  20.211  0.00  0.00    +0.000 A 
ATOM     25  H   UNL     1       5.978   4.019  18.649  0.00  0.00    +0.000 HD
ENDBRANCH   1  18
BRANCH   8  26
ATOM     26  C   UNL     1      -1.876  13.360  21.393  0.00  0.00    +0.000 C 
ATOM     27  C   UNL     1      -0.818  13.656  22.452  0.00  0.00    +0.000 C 
ATOM     28  C   UNL     1      -1.550  13.669  23.792  0.00  0.00    +0.000 C 
ATOM     29  C   UNL     1      -2.959  13.148  23.537  0.00  0.00    +0.000 C 
ATOM     30  C   UNL     1      -2.930  12.542  22.142  0.00  0.00    +0.000 C 
ENDBRANCH   8  26
TORSDOF 2
ENDMDL
MODEL 8
REMARK VINA RESULT:      -8.1      2.520      3.525
REMARK  Name = 
REMARK  4 active torsions:
REMARK  status: ('A' for Active; 'I' for Inactive)
REMARK    1  A    between atoms: C_1  and  C_2
REMARK    2  A    between atoms: C_4  and  N_5
REMARK    3  A    between atoms: C_12  and  C_13
REMARK    4  A    between atoms: C_21  and  C_22
REMARK                            x       y       z     vdW  Elec       q    Type
REMARK                         _______ _______ _______ _____ _____    ______ ____
ROOT
ATOM      1  N   UNL     1       2.195   7.630  18.994  0.00  0.00    +0.000 N 
ATOM      2  C   UNL     1       1.683   8.035  20.197  0.00  0.00    +0.000 C 
ATOM      3  O   UNL     1       1.473   7.295  21.156  0.00  0.00    +0.000 OA
ATOM      4  N   UNL     1       1.441   9.402  20.312  0.00  0.00    +0.000 N 
ATOM      5  C   UNL     1       1.111   9.794  21.698  0.00  0.00    +0.000 C 
ATOM      6  C   UNL     1      -0.401   9.824  21.836  0.00  0.00    +0.000 C 
ATOM      7  N   UNL     1      -0.798  10.962  21.034  0.00  0.00    +0.000 N 
ATOM      8  C   UNL     1      -1.345  12.145  21.440  0.00  0.00    +0.000 A 
ATOM      9  N   UNL     1      -1.232  13.002  20.443  0.00  0.00    +0.000 NA
ATOM     10  N   UNL     1      -0.518  12.404  19.423  0.00  0.00    +0.000 NA
ATOM     11  C   UNL     1      -0.199  11.189  19.815  0.00  0.00    +0.000 A 
ATOM     12  C   UNL     1       0.774  10.188  19.216  0.00  0.00    +0.000 C 
ATOM     13  C   UNL     1       1.768  10.888  18.288  0.00  0.00    +0.000 C 
ATOM     14  H   UNL     1       2.497   8.352  18.362  0.00  0.00    +0.000 HD
ENDROOT
BRANCH   1  18
ATOM     15  C   UNL     1       5.032   4.573  16.266  0.00  0.00    +0.000 C 
ATOM     16  C   UNL     1       4.010   4.757  17.350  0.00  0.00    +0.000 A 
ATOM     17  C   UNL     1       3.640   6.062  17.742  0.00  0.00    +0.000 A 
ATOM     18  C   UNL     1       2.642   6.320  18.680  0.00  0.00    +0.000 A 
ATOM     19  C   UNL     1       2.004   5.252  19.325  0.00  0.00    +0.000 A 
ATOM     20  C   UNL     1       2.398   3.955  18.966  0.00  0.00    +0.000 A 
ATOM     21  N   UNL     1       1.974   2.725  19.396  0.00  0.00    +0.000 N 
ATOM     22  N   UNL     1       2.584   1.689  18.795  0.00  0.00    +0.000 NA
ATOM     23  C   UNL     1       3.427   2.281  17.946  0.00  0.00    +0.000 A 
ATOM     24  C   UNL     1       3.364   3.691  18.004  0.00  0.00    +0.000 A 
ATOM     25  H   UNL     1       1.270   2.525  20.099  0.00  0.00    +0.000 HD
ENDBRANCH   1  18
BRANCH   8  26
ATOM     26  C   UNL     1      -1.833  12.408  22.828  0.00  0.00    +0.000 C 
ATOM     27  C   UNL     1      -3.353  12.375  22.958  0.00  0.00    +0.000 C 
ATOM     28  C   UNL     1      -3.703  13.342  24.087  0.00  0.00    +0.000 C 
ATOM     29  C   UNL     1      -2.430  14.103  24.435  0.00  0.00    +0.000 C 
ATOM     30  C   UNL     1      -1.451  13.810  23.309  0.00  0.00    +0.000 C 
ENDBRANCH   8  26
TORSDOF 2
ENDMDL
MODEL 9
REMARK VINA RESULT:      -8.1      2.666      3.360
REMARK  Name = 
REMARK  4 active torsions:
REMARK  status: ('A' for Active; 'I' for Inactive)
REMARK    1  A    between atoms: C_1  and  C_2
REMARK    2  A    between atoms: C_4  and  N_5
REMARK    3  A    between atoms: C_12  and  C_13
REMARK    4  A    between atoms: C_21  and  C_22
REMARK                            x       y       z     vdW  Elec       q    Type
REMARK                         _______ _______ _______ _____ _____    ______ ____
ROOT
ATOM      1  N   UNL     1       2.044   6.981  19.340  0.00  0.00    +0.000 N 
ATOM      2  C   UNL     1       1.600   7.604  20.474  0.00  0.00    +0.000 C 
ATOM      3  O   UNL     1       1.364   7.039  21.539  0.00  0.00    +0.000 OA
ATOM      4  N   UNL     1       1.463   8.988  20.380  0.00  0.00    +0.000 N 
ATOM      5  C   UNL     1       1.205   9.613  21.694  0.00  0.00    +0.000 C 
ATOM      6  C   UNL     1      -0.296   9.781  21.853  0.00  0.00    +0.000 C 
ATOM      7  N   UNL     1      -0.631  10.810  20.890  0.00  0.00    +0.000 N 
ATOM      8  C   UNL     1      -1.076  12.081  21.118  0.00  0.00    +0.000 A 
ATOM      9  N   UNL     1      -0.929  12.763  19.998  0.00  0.00    +0.000 NA
ATOM     10  N   UNL     1      -0.292  11.962  19.070  0.00  0.00    +0.000 NA
ATOM     11  C   UNL     1      -0.052  10.800  19.641  0.00  0.00    +0.000 A 
ATOM     12  C   UNL     1       0.824   9.647  19.187  0.00  0.00    +0.000 C 
ATOM     13  C   UNL     1       1.841  10.116  18.144  0.00  0.00    +0.000 C 
ATOM     14  H   UNL     1       2.381   7.572  18.598  0.00  0.00    +0.000 HD
ENDROOT
BRANCH   1  18
ATOM     15  C   UNL     1       0.674   2.237  18.659  0.00  0.00    +0.000 C 
ATOM     16  C   UNL     1       1.763   3.241  18.910  0.00  0.00    +0.000 A 
ATOM     17  C   UNL     1       1.449   4.618  18.919  0.00  0.00    +0.000 A 
ATOM     18  C   UNL     1       2.383   5.608  19.225  0.00  0.00    +0.000 A 
ATOM     19  C   UNL     1       3.714   5.251  19.477  0.00  0.00    +0.000 A 
ATOM     20  C   UNL     1       4.036   3.888  19.429  0.00  0.00    +0.000 A 
ATOM     21  N   UNL     1       5.218   3.226  19.630  0.00  0.00    +0.000 N 
ATOM     22  N   UNL     1       5.129   1.889  19.518  0.00  0.00    +0.000 NA
ATOM     23  C   UNL     1       3.840   1.690  19.237  0.00  0.00    +0.000 A 
ATOM     24  C   UNL     1       3.103   2.894  19.163  0.00  0.00    +0.000 A 
ATOM     25  H   UNL     1       6.123   3.629  19.849  0.00  0.00    +0.000 HD
ENDBRANCH   1  18
BRANCH   8  26
ATOM     26  C   UNL     1      -1.501  12.590  22.457  0.00  0.00    +0.000 C 
ATOM     27  C   UNL     1      -2.996  12.885  22.552  0.00  0.00    +0.000 C 
ATOM     28  C   UNL     1      -3.141  14.022  23.560  0.00  0.00    +0.000 C 
ATOM     29  C   UNL     1      -1.738  14.540  23.856  0.00  0.00    +0.000 C 
ATOM     30  C   UNL     1      -0.839  13.928  22.793  0.00  0.00    +0.000 C 
ENDBRANCH   8  26
TORSDOF 2
ENDMDL
