MODEL 1
REMARK VINA RESULT:      -8.2      0.000      0.000
REMARK  Name = 
REMARK  6 active torsions:
REMARK  status: ('A' for Active; 'I' for Inactive)
REMARK    1  A    between atoms: C_1  and  N_2
REMARK    2  A    between atoms: C_6  and  C_7
REMARK    3  A    between atoms: C_7  and  C_8
REMARK    4  A    between atoms: C_12  and  N_13
REMARK    5  A    between atoms: C_18  and  C_19
REMARK    6  A    between atoms: C_26  and  C_27
REMARK                            x       y       z     vdW  Elec       q    Type
REMARK                         _______ _______ _______ _____ _____    ______ ____
ROOT
ATOM      1  N   UNL     1      -0.266  11.398  18.417  0.00  0.00    +0.000 N 
ATOM      2  C   UNL     1       0.469  10.670  19.479  0.00  0.00    +0.000 C 
ATOM      3  C   UNL     1      -0.017  11.353  20.724  0.00  0.00    +0.000 A 
ATOM      4  C   UNL     1      -0.358  12.667  20.372  0.00  0.00    +0.000 A 
ATOM      5  C   UNL     1      -0.947  13.563  21.243  0.00  0.00    +0.000 A 
ATOM      6  C   UNL     1      -1.226  13.105  22.535  0.00  0.00    +0.000 A 
ATOM      7  C   UNL     1      -0.923  11.769  22.891  0.00  0.00    +0.000 A 
ATOM      8  C   UNL     1      -0.315  10.865  21.990  0.00  0.00    +0.000 A 
ATOM      9  C   UNL     1      -0.363  12.741  18.889  0.00  0.00    +0.000 C 
ATOM     10  O   UNL     1      -0.608  13.748  18.253  0.00  0.00    +0.000 OA
ENDROOT
BRANCH   6  11
ATOM     11  C   UNL     1      -1.865  13.997  23.512  0.00  0.00    +0.000 C 
ATOM     12  C   UNL     1      -3.201  14.059  23.619  0.00  0.00    +0.000 C 
ATOM     13  O   UNL     1      -3.877  14.801  24.545  0.00  0.00    +0.000 OA
ATOM     14  C   UNL     1      -3.094  15.579  25.465  0.00  0.00    +0.000 C 
ATOM     15  C   UNL     1      -1.557  15.435  25.455  0.00  0.00    +0.000 C 
ATOM     16  N   UNL     1      -1.041  14.723  24.319  0.00  0.00    +0.000 N 
ATOM     17  H   UNL     1      -0.060  14.459  24.323  0.00  0.00    +0.000 HD
ENDBRANCH   6  11
BRANCH   1  22
ATOM     18  C   UNL     1      -3.830  11.373  17.658  0.00  0.00    +0.000 A 
ATOM     19  C   UNL     1      -3.743  10.628  16.472  0.00  0.00    +0.000 A 
ATOM     20  C   UNL     1      -2.654   9.792  16.238  0.00  0.00    +0.000 A 
ATOM     21  C   UNL     1      -1.591   9.774  17.128  0.00  0.00    +0.000 A 
ATOM     22  C   UNL     1      -1.540  10.735  18.149  0.00  0.00    +0.000 A 
ATOM     23  C   UNL     1      -2.721  11.397  18.515  0.00  0.00    +0.000 A 
BRANCH  18  24
ATOM     24  C   UNL     1      -5.122  12.084  17.995  0.00  0.00    +0.000 C 
BRANCH  24  30
ATOM     25  C   UNL     1      -6.001  13.230  20.792  0.00  0.00    +0.000 C 
ATOM     26  N   UNL     1      -6.367  11.964  20.218  0.00  0.00    +0.000 N 
ATOM     27  C   UNL     1      -7.226  11.067  20.779  0.00  0.00    +0.000 A 
ATOM     28  N   UNL     1      -7.349  10.026  19.993  0.00  0.00    +0.000 NA
ATOM     29  N   UNL     1      -6.568  10.249  18.886  0.00  0.00    +0.000 NA
ATOM     30  C   UNL     1      -5.981  11.424  19.019  0.00  0.00    +0.000 A 
ENDBRANCH  24  30
ENDBRANCH  18  24
ENDBRANCH   1  22
BRANCH   8  31
ATOM     31  C   UNL     1      -0.138   9.428  22.399  0.00  0.00    +0.000 C 
ATOM     32  F   UNL     1       1.141   8.962  22.304  0.00  0.00    +0.000 F 
ATOM     33  F   UNL     1      -0.511   9.200  23.689  0.00  0.00    +0.000 F 
ATOM     34  F   UNL     1      -0.880   8.570  21.638  0.00  0.00    +0.000 F 
ENDBRANCH   8  31
TORSDOF 5
ENDMDL
MODEL 2
REMARK VINA RESULT:      -8.1      0.750      1.114
REMARK  Name = 
REMARK  6 active torsions:
REMARK  status: ('A' for Active; 'I' for Inactive)
REMARK    1  A    between atoms: C_1  and  N_2
REMARK    2  A    between atoms: C_6  and  C_7
REMARK    3  A    between atoms: C_7  and  C_8
REMARK    4  A    between atoms: C_12  and  N_13
REMARK    5  A    between atoms: C_18  and  C_19
REMARK    6  A    between atoms: C_26  and  C_27
REMARK                            x       y       z     vdW  Elec       q    Type
REMARK                         _______ _______ _______ _____ _____    ______ ____
ROOT
ATOM      1  N   UNL     1      -0.277  11.324  18.309  0.00  0.00    +0.000 N 
ATOM      2  C   UNL     1       0.453  10.545  19.337  0.00  0.00    +0.000 C 
ATOM      3  C   UNL     1      -0.005  11.196  20.610  0.00  0.00    +0.000 A 
ATOM      4  C   UNL     1      -0.322  12.528  20.306  0.00  0.00    +0.000 A 
ATOM      5  C   UNL     1      -0.882  13.406  21.214  0.00  0.00    +0.000 A 
ATOM      6  C   UNL     1      -1.157  12.910  22.492  0.00  0.00    +0.000 A 
ATOM      7  C   UNL     1      -0.878  11.557  22.801  0.00  0.00    +0.000 A 
ATOM      8  C   UNL     1      -0.300  10.672  21.862  0.00  0.00    +0.000 A 
ATOM      9  C   UNL     1      -0.341  12.651  18.827  0.00  0.00    +0.000 C 
ATOM     10  O   UNL     1      -0.571  13.684  18.227  0.00  0.00    +0.000 OA
ENDROOT
BRANCH   6  11
ATOM     11  C   UNL     1      -1.766  13.782  23.506  0.00  0.00    +0.000 C 
ATOM     12  C   UNL     1      -1.074  14.794  24.051  0.00  0.00    +0.000 C 
ATOM     13  O   UNL     1      -1.580  15.697  24.942  0.00  0.00    +0.000 OA
ATOM     14  C   UNL     1      -2.955  15.540  25.329  0.00  0.00    +0.000 C 
ATOM     15  C   UNL     1      -3.817  14.467  24.630  0.00  0.00    +0.000 C 
ATOM     16  N   UNL     1      -3.065  13.535  23.836  0.00  0.00    +0.000 N 
ATOM     17  H   UNL     1      -3.575  12.899  23.230  0.00  0.00    +0.000 HD
ENDBRANCH   6  11
BRANCH   1  22
ATOM     18  C   UNL     1      -3.827  11.398  17.487  0.00  0.00    +0.000 A 
ATOM     19  C   UNL     1      -3.745  10.623  16.320  0.00  0.00    +0.000 A 
ATOM     20  C   UNL     1      -2.681   9.746  16.125  0.00  0.00    +0.000 A 
ATOM     21  C   UNL     1      -1.634   9.715  17.034  0.00  0.00    +0.000 A 
ATOM     22  C   UNL     1      -1.568  10.697  18.033  0.00  0.00    +0.000 A 
ATOM     23  C   UNL     1      -2.733  11.406  18.363  0.00  0.00    +0.000 A 
BRANCH  18  24
ATOM     24  C   UNL     1      -5.100  12.159  17.784  0.00  0.00    +0.000 C 
BRANCH  24  30
ATOM     25  C   UNL     1      -5.057  13.135  20.777  0.00  0.00    +0.000 C 
ATOM     26  N   UNL     1      -5.892  12.112  20.208  0.00  0.00    +0.000 N 
ATOM     27  C   UNL     1      -6.866  11.433  20.877  0.00  0.00    +0.000 A 
ATOM     28  N   UNL     1      -7.444  10.582  20.065  0.00  0.00    +0.000 NA
ATOM     29  N   UNL     1      -6.849  10.715  18.835  0.00  0.00    +0.000 NA
ATOM     30  C   UNL     1      -5.917  11.645  18.920  0.00  0.00    +0.000 A 
ENDBRANCH  24  30
ENDBRANCH  18  24
ENDBRANCH   1  22
BRANCH   8  31
ATOM     31  C   UNL     1      -0.149   9.218  22.221  0.00  0.00    +0.000 C 
ATOM     32  F   UNL     1      -0.482   8.912  23.508  0.00  0.00    +0.000 F 
ATOM     33  F   UNL     1      -0.917   8.404  21.445  0.00  0.00    +0.000 F 
ATOM     34  F   UNL     1       1.134   8.772  22.077  0.00  0.00    +0.000 F 
ENDBRANCH   8  31
TORSDOF 5
ENDMDL
MODEL 3
REMARK VINA RESULT:      -8.1      7.803     11.367
REMARK  Name = 
REMARK  6 active torsions:
REMARK  status: ('A' for Active; 'I' for Inactive)
REMARK    1  A    between atoms: C_1  and  N_2
REMARK    2  A    between atoms: C_6  and  C_7
REMARK    3  A    between atoms: C_7  and  C_8
REMARK    4  A    between atoms: C_12  and  N_13
REMARK    5  A    between atoms: C_18  and  C_19
REMARK    6  A    between atoms: C_26  and  C_27
REMARK                            x       y       z     vdW  Elec       q    Type
REMARK                         _______ _______ _______ _____ _____    ______ ____
ROOT
ATOM      1  N   UNL     1       3.887   4.600  19.196  0.00  0.00    +0.000 N 
ATOM      2  C   UNL     1       5.243   5.179  19.355  0.00  0.00    +0.000 C 
ATOM      3  C   UNL     1       5.796   5.074  17.964  0.00  0.00    +0.000 A 
ATOM      4  C   UNL     1       5.168   3.982  17.347  0.00  0.00    +0.000 A 
ATOM      5  C   UNL     1       5.350   3.647  16.020  0.00  0.00    +0.000 A 
ATOM      6  C   UNL     1       6.195   4.467  15.265  0.00  0.00    +0.000 A 
ATOM      7  C   UNL     1       6.804   5.595  15.866  0.00  0.00    +0.000 A 
ATOM      8  C   UNL     1       6.613   5.923  17.227  0.00  0.00    +0.000 A 
ATOM      9  C   UNL     1       4.036   3.574  18.217  0.00  0.00    +0.000 C 
ATOM     10  O   UNL     1       3.289   2.644  17.979  0.00  0.00    +0.000 OA
ENDROOT
BRANCH   6  11
ATOM     11  C   UNL     1       6.425   4.181  13.843  0.00  0.00    +0.000 C 
ATOM     12  C   UNL     1       7.337   4.868  13.140  0.00  0.00    +0.000 C 
ATOM     13  O   UNL     1       7.670   4.621  11.838  0.00  0.00    +0.000 OA
ATOM     14  C   UNL     1       6.979   3.550  11.174  0.00  0.00    +0.000 C 
ATOM     15  C   UNL     1       6.015   2.657  11.985  0.00  0.00    +0.000 C 
ATOM     16  N   UNL     1       5.697   3.170  13.289  0.00  0.00    +0.000 N 
ATOM     17  H   UNL     1       5.195   2.566  13.933  0.00  0.00    +0.000 HD
ENDBRANCH   6  11
BRANCH   1  22
ATOM     18  C   UNL     1       1.889   7.553  19.953  0.00  0.00    +0.000 A 
ATOM     19  C   UNL     1       2.419   8.376  18.948  0.00  0.00    +0.000 A 
ATOM     20  C   UNL     1       3.013   7.821  17.817  0.00  0.00    +0.000 A 
ATOM     21  C   UNL     1       3.186   6.448  17.729  0.00  0.00    +0.000 A 
ATOM     22  C   UNL     1       2.933   5.654  18.857  0.00  0.00    +0.000 A 
ATOM     23  C   UNL     1       2.129   6.173  19.883  0.00  0.00    +0.000 A 
BRANCH  18  24
ATOM     24  C   UNL     1       1.044   8.167  21.047  0.00  0.00    +0.000 C 
BRANCH  24  30
ATOM     25  C   UNL     1      -0.878   9.858  19.213  0.00  0.00    +0.000 C 
ATOM     26  N   UNL     1       0.032  10.354  20.210  0.00  0.00    +0.000 N 
ATOM     27  C   UNL     1       0.161  11.662  20.572  0.00  0.00    +0.000 A 
ATOM     28  N   UNL     1       1.067  11.768  21.514  0.00  0.00    +0.000 NA
ATOM     29  N   UNL     1       1.531  10.505  21.785  0.00  0.00    +0.000 NA
ATOM     30  C   UNL     1       0.900   9.650  21.003  0.00  0.00    +0.000 A 
ENDBRANCH  24  30
ENDBRANCH  18  24
ENDBRANCH   1  22
BRANCH   8  31
ATOM     31  C   UNL     1       7.191   7.205  17.762  0.00  0.00    +0.000 C 
ATOM     32  F   UNL     1       8.088   7.814  16.934  0.00  0.00    +0.000 F 
ATOM     33  F   UNL     1       6.238   8.144  18.016  0.00  0.00    +0.000 F 
ATOM     34  F   UNL     1       7.865   7.028  18.937  0.00  0.00    +0.000 F 
ENDBRANCH   8  31
TORSDOF 5
ENDMDL
MODEL 4
REMARK VINA RESULT:      -8.0      0.955      1.618
REMARK  Name = 
REMARK  6 active torsions:
REMARK  status: ('A' for Active; 'I' for Inactive)
REMARK    1  A    between atoms: C_1  and  N_2
REMARK    2  A    between atoms: C_6  and  C_7
REMARK    3  A    between atoms: C_7  and  C_8
REMARK    4  A    between atoms: C_12  and  N_13
REMARK    5  A    between atoms: C_18  and  C_19
REMARK    6  A    between atoms: C_26  and  C_27
REMARK                            x       y       z     vdW  Elec       q    Type
REMARK                         _______ _______ _______ _____ _____    ______ ____
ROOT
ATOM      1  N   UNL     1      -0.344  11.288  18.339  0.00  0.00    +0.000 N 
ATOM      2  C   UNL     1       0.387  10.508  19.366  0.00  0.00    +0.000 C 
ATOM      3  C   UNL     1      -0.054  11.171  20.638  0.00  0.00    +0.000 A 
ATOM      4  C   UNL     1      -0.360  12.504  20.330  0.00  0.00    +0.000 A 
ATOM      5  C   UNL     1      -0.905  13.392  21.236  0.00  0.00    +0.000 A 
ATOM      6  C   UNL     1      -1.174  12.907  22.520  0.00  0.00    +0.000 A 
ATOM      7  C   UNL     1      -0.906  11.553  22.834  0.00  0.00    +0.000 A 
ATOM      8  C   UNL     1      -0.343  10.657  21.896  0.00  0.00    +0.000 A 
ATOM      9  C   UNL     1      -0.391  12.619  18.849  0.00  0.00    +0.000 C 
ATOM     10  O   UNL     1      -0.616  13.650  18.246  0.00  0.00    +0.000 OA
ENDROOT
BRANCH   6  11
ATOM     11  C   UNL     1      -1.767  13.790  23.534  0.00  0.00    +0.000 C 
ATOM     12  C   UNL     1      -1.045  14.766  24.104  0.00  0.00    +0.000 C 
ATOM     13  O   UNL     1      -1.531  15.678  24.997  0.00  0.00    +0.000 OA
ATOM     14  C   UNL     1      -2.919  15.573  25.356  0.00  0.00    +0.000 C 
ATOM     15  C   UNL     1      -3.810  14.545  24.627  0.00  0.00    +0.000 C 
ATOM     16  N   UNL     1      -3.081  13.592  23.835  0.00  0.00    +0.000 N 
ATOM     17  H   UNL     1      -3.605  12.986  23.211  0.00  0.00    +0.000 HD
ENDBRANCH   6  11
BRANCH   1  22
ATOM     18  C   UNL     1      -3.915  11.393  17.618  0.00  0.00    +0.000 A 
ATOM     19  C   UNL     1      -3.866  10.659  16.423  0.00  0.00    +0.000 A 
ATOM     20  C   UNL     1      -2.809   9.788  16.169  0.00  0.00    +0.000 A 
ATOM     21  C   UNL     1      -1.738   9.725  17.047  0.00  0.00    +0.000 A 
ATOM     22  C   UNL     1      -1.642  10.671  18.078  0.00  0.00    +0.000 A 
ATOM     23  C   UNL     1      -2.796  11.369  18.463  0.00  0.00    +0.000 A 
BRANCH  18  24
ATOM     24  C   UNL     1      -5.178  12.144  17.977  0.00  0.00    +0.000 C 
BRANCH  24  30
ATOM     25  C   UNL     1      -7.046  10.751  20.095  0.00  0.00    +0.000 C 
ATOM     26  N   UNL     1      -6.145  11.848  20.319  0.00  0.00    +0.000 N 
ATOM     27  C   UNL     1      -5.902  12.429  21.528  0.00  0.00    +0.000 A 
ATOM     28  N   UNL     1      -5.022  13.390  21.384  0.00  0.00    +0.000 NA
ATOM     29  N   UNL     1      -4.668  13.431  20.058  0.00  0.00    +0.000 NA
ATOM     30  C   UNL     1      -5.340  12.495  19.416  0.00  0.00    +0.000 A 
ENDBRANCH  24  30
ENDBRANCH  18  24
ENDBRANCH   1  22
BRANCH   8  31
ATOM     31  C   UNL     1      -0.204   9.204  22.262  0.00  0.00    +0.000 C 
ATOM     32  F   UNL     1      -0.933   8.349  21.488  0.00  0.00    +0.000 F 
ATOM     33  F   UNL     1       1.082   8.763  22.176  0.00  0.00    +0.000 F 
ATOM     34  F   UNL     1      -0.604   8.944  23.542  0.00  0.00    +0.000 F 
ENDBRANCH   8  31
TORSDOF 5
ENDMDL
MODEL 5
REMARK VINA RESULT:      -7.9      7.819     11.312
REMARK  Name = 
REMARK  6 active torsions:
REMARK  status: ('A' for Active; 'I' for Inactive)
REMARK    1  A    between atoms: C_1  and  N_2
REMARK    2  A    between atoms: C_6  and  C_7
REMARK    3  A    between atoms: C_7  and  C_8
REMARK    4  A    between atoms: C_12  and  N_13
REMARK    5  A    between atoms: C_18  and  C_19
REMARK    6  A    between atoms: C_26  and  C_27
REMARK                            x       y       z     vdW  Elec       q    Type
REMARK                         _______ _______ _______ _____ _____    ______ ____
ROOT
ATOM      1  N   UNL     1       3.997   4.541  19.241  0.00  0.00    +0.000 N 
ATOM      2  C   UNL     1       5.342   5.148  19.380  0.00  0.00    +0.000 C 
ATOM      3  C   UNL     1       5.878   5.052  17.982  0.00  0.00    +0.000 A 
ATOM      4  C   UNL     1       5.264   3.946  17.375  0.00  0.00    +0.000 A 
ATOM      5  C   UNL     1       5.434   3.612  16.046  0.00  0.00    +0.000 A 
ATOM      6  C   UNL     1       6.251   4.448  15.279  0.00  0.00    +0.000 A 
ATOM      7  C   UNL     1       6.845   5.590  15.868  0.00  0.00    +0.000 A 
ATOM      8  C   UNL     1       6.666   5.916  17.232  0.00  0.00    +0.000 A 
ATOM      9  C   UNL     1       4.154   3.516  18.262  0.00  0.00    +0.000 C 
ATOM     10  O   UNL     1       3.423   2.570  18.037  0.00  0.00    +0.000 OA
ENDROOT
BRANCH   6  11
ATOM     11  C   UNL     1       6.466   4.164  13.853  0.00  0.00    +0.000 C 
ATOM     12  C   UNL     1       7.336   4.885  13.130  0.00  0.00    +0.000 C 
ATOM     13  O   UNL     1       7.654   4.646  11.824  0.00  0.00    +0.000 OA
ATOM     14  C   UNL     1       6.997   3.542  11.178  0.00  0.00    +0.000 C 
ATOM     15  C   UNL     1       6.087   2.614  12.011  0.00  0.00    +0.000 C 
ATOM     16  N   UNL     1       5.772   3.120  13.318  0.00  0.00    +0.000 N 
ATOM     17  H   UNL     1       5.308   2.499  13.974  0.00  0.00    +0.000 HD
ENDBRANCH   6  11
BRANCH   1  22
ATOM     18  C   UNL     1       2.019   7.509  19.990  0.00  0.00    +0.000 A 
ATOM     19  C   UNL     1       2.485   8.294  18.924  0.00  0.00    +0.000 A 
ATOM     20  C   UNL     1       3.019   7.697  17.785  0.00  0.00    +0.000 A 
ATOM     21  C   UNL     1       3.199   6.322  17.743  0.00  0.00    +0.000 A 
ATOM     22  C   UNL     1       3.017   5.574  18.915  0.00  0.00    +0.000 A 
ATOM     23  C   UNL     1       2.267   6.129  19.963  0.00  0.00    +0.000 A 
BRANCH  18  24
ATOM     24  C   UNL     1       1.232   8.162  21.104  0.00  0.00    +0.000 C 
BRANCH  24  30
ATOM     25  C   UNL     1      -0.421  10.065  22.992  0.00  0.00    +0.000 C 
ATOM     26  N   UNL     1      -0.297  10.152  21.562  0.00  0.00    +0.000 N 
ATOM     27  C   UNL     1      -0.836  11.135  20.787  0.00  0.00    +0.000 A 
ATOM     28  N   UNL     1      -0.526  10.923  19.531  0.00  0.00    +0.000 NA
ATOM     29  N   UNL     1       0.244   9.788  19.482  0.00  0.00    +0.000 NA
ATOM     30  C   UNL     1       0.388   9.326  20.709  0.00  0.00    +0.000 A 
ENDBRANCH  24  30
ENDBRANCH  18  24
ENDBRANCH   1  22
BRANCH   8  31
ATOM     31  C   UNL     1       7.225   7.211  17.756  0.00  0.00    +0.000 C 
ATOM     32  F   UNL     1       8.081   7.848  16.906  0.00  0.00    +0.000 F 
ATOM     33  F   UNL     1       6.255   8.123  18.043  0.00  0.00    +0.000 F 
ATOM     34  F   UNL     1       7.937   7.047  18.910  0.00  0.00    +0.000 F 
ENDBRANCH   8  31
TORSDOF 5
ENDMDL
MODEL 6
REMARK VINA RESULT:      -7.9      7.835     11.305
REMARK  Name = 
REMARK  6 active torsions:
REMARK  status: ('A' for Active; 'I' for Inactive)
REMARK    1  A    between atoms: C_1  and  N_2
REMARK    2  A    between atoms: C_6  and  C_7
REMARK    3  A    between atoms: C_7  and  C_8
REMARK    4  A    between atoms: C_12  and  N_13
REMARK    5  A    between atoms: C_18  and  C_19
REMARK    6  A    between atoms: C_26  and  C_27
REMARK                            x       y       z     vdW  Elec       q    Type
REMARK                         _______ _______ _______ _____ _____    ______ ____
ROOT
ATOM      1  N   UNL     1       2.983   3.820  18.954  0.00  0.00    +0.000 N 
ATOM      2  C   UNL     1       4.373   3.983  19.445  0.00  0.00    +0.000 C 
ATOM      3  C   UNL     1       5.150   4.076  18.164  0.00  0.00    +0.000 A 
ATOM      4  C   UNL     1       4.440   3.358  17.192  0.00  0.00    +0.000 A 
ATOM      5  C   UNL     1       4.801   3.314  15.859  0.00  0.00    +0.000 A 
ATOM      6  C   UNL     1       5.928   4.050  15.480  0.00  0.00    +0.000 A 
ATOM      7  C   UNL     1       6.632   4.811  16.445  0.00  0.00    +0.000 A 
ATOM      8  C   UNL     1       6.253   4.842  17.806  0.00  0.00    +0.000 A 
ATOM      9  C   UNL     1       3.101   3.053  17.757  0.00  0.00    +0.000 C 
ATOM     10  O   UNL     1       2.237   2.426  17.175  0.00  0.00    +0.000 OA
ENDROOT
BRANCH   6  11
ATOM     11  C   UNL     1       6.364   4.062  14.077  0.00  0.00    +0.000 C 
ATOM     12  C   UNL     1       7.275   4.947  13.646  0.00  0.00    +0.000 C 
ATOM     13  O   UNL     1       7.792   4.984  12.383  0.00  0.00    +0.000 OA
ATOM     14  C   UNL     1       7.313   4.005  11.446  0.00  0.00    +0.000 C 
ATOM     15  C   UNL     1       6.361   2.893  11.938  0.00  0.00    +0.000 C 
ATOM     16  N   UNL     1       5.828   3.117  13.254  0.00  0.00    +0.000 N 
ATOM     17  H   UNL     1       5.320   2.360  13.701  0.00  0.00    +0.000 HD
ENDBRANCH   6  11
BRANCH   1  22
ATOM     18  C   UNL     1       2.057   7.148  20.114  0.00  0.00    +0.000 A 
ATOM     19  C   UNL     1       2.689   7.865  19.087  0.00  0.00    +0.000 A 
ATOM     20  C   UNL     1       2.955   7.261  17.860  0.00  0.00    +0.000 A 
ATOM     21  C   UNL     1       2.699   5.909  17.685  0.00  0.00    +0.000 A 
ATOM     22  C   UNL     1       2.354   5.129  18.798  0.00  0.00    +0.000 A 
ATOM     23  C   UNL     1       1.865   5.770  19.947  0.00  0.00    +0.000 A 
BRANCH  18  24
ATOM     24  C   UNL     1       1.566   7.886  21.340  0.00  0.00    +0.000 C 
BRANCH  24  30
ATOM     25  C   UNL     1      -0.040   9.569  23.461  0.00  0.00    +0.000 C 
ATOM     26  N   UNL     1      -0.005   9.770  22.038  0.00  0.00    +0.000 N 
ATOM     27  C   UNL     1      -0.625  10.786  21.374  0.00  0.00    +0.000 A 
ATOM     28  N   UNL     1      -0.382  10.683  20.090  0.00  0.00    +0.000 NA
ATOM     29  N   UNL     1       0.425   9.588  19.908  0.00  0.00    +0.000 NA
ATOM     30  C   UNL     1       0.659   9.040  21.086  0.00  0.00    +0.000 A 
ENDBRANCH  24  30
ENDBRANCH  18  24
ENDBRANCH   1  22
BRANCH   8  31
ATOM     31  C   UNL     1       6.971   5.771  18.747  0.00  0.00    +0.000 C 
ATOM     32  F   UNL     1       7.107   7.049  18.291  0.00  0.00    +0.000 F 
ATOM     33  F   UNL     1       6.348   5.881  19.953  0.00  0.00    +0.000 F 
ATOM     34  F   UNL     1       8.245   5.360  19.020  0.00  0.00    +0.000 F 
ENDBRANCH   8  31
TORSDOF 5
ENDMDL
MODEL 7
REMARK VINA RESULT:      -7.8      4.532      7.061
REMARK  Name = 
REMARK  6 active torsions:
REMARK  status: ('A' for Active; 'I' for Inactive)
REMARK    1  A    between atoms: C_1  and  N_2
REMARK    2  A    between atoms: C_6  and  C_7
REMARK    3  A    between atoms: C_7  and  C_8
REMARK    4  A    between atoms: C_12  and  N_13
REMARK    5  A    between atoms: C_18  and  C_19
REMARK    6  A    between atoms: C_26  and  C_27
REMARK                            x       y       z     vdW  Elec       q    Type
REMARK                         _______ _______ _______ _____ _____    ______ ____
ROOT
ATOM      1  N   UNL     1       0.051   9.040  20.971  0.00  0.00    +0.000 N 
ATOM      2  C   UNL     1      -1.121   9.085  20.065  0.00  0.00    +0.000 C 
ATOM      3  C   UNL     1      -1.171  10.536  19.686  0.00  0.00    +0.000 A 
ATOM      4  C   UNL     1      -0.616  11.264  20.748  0.00  0.00    +0.000 A 
ATOM      5  C   UNL     1      -0.396  12.627  20.707  0.00  0.00    +0.000 A 
ATOM      6  C   UNL     1      -0.736  13.292  19.524  0.00  0.00    +0.000 A 
ATOM      7  C   UNL     1      -1.262  12.563  18.431  0.00  0.00    +0.000 A 
ATOM      8  C   UNL     1      -1.485  11.169  18.489  0.00  0.00    +0.000 A 
ATOM      9  C   UNL     1       0.034  10.289  21.660  0.00  0.00    +0.000 C 
ATOM     10  O   UNL     1       0.603  10.589  22.692  0.00  0.00    +0.000 OA
ENDROOT
BRANCH   6  11
ATOM     11  C   UNL     1      -0.517  14.740  19.403  0.00  0.00    +0.000 C 
ATOM     12  C   UNL     1       0.626  15.224  18.895  0.00  0.00    +0.000 C 
ATOM     13  O   UNL     1       0.885  16.547  18.676  0.00  0.00    +0.000 OA
ATOM     14  C   UNL     1      -0.144  17.487  19.028  0.00  0.00    +0.000 C 
ATOM     15  C   UNL     1      -1.517  16.960  19.496  0.00  0.00    +0.000 C 
ATOM     16  N   UNL     1      -1.537  15.555  19.795  0.00  0.00    +0.000 N 
ATOM     17  H   UNL     1      -2.436  15.112  19.960  0.00  0.00    +0.000 HD
ENDBRANCH   6  11
BRANCH   1  22
ATOM     18  C   UNL     1       2.482   6.823  19.404  0.00  0.00    +0.000 A 
ATOM     19  C   UNL     1       2.347   7.323  18.099  0.00  0.00    +0.000 A 
ATOM     20  C   UNL     1       1.867   8.612  17.880  0.00  0.00    +0.000 A 
ATOM     21  C   UNL     1       1.411   9.371  18.947  0.00  0.00    +0.000 A 
ATOM     22  C   UNL     1       1.263   8.765  20.203  0.00  0.00    +0.000 A 
ATOM     23  C   UNL     1       1.956   7.574  20.465  0.00  0.00    +0.000 A 
BRANCH  18  24
ATOM     24  C   UNL     1       3.223   5.524  19.627  0.00  0.00    +0.000 C 
BRANCH  24  30
ATOM     25  C   UNL     1       1.309   3.369  18.358  0.00  0.00    +0.000 C 
ATOM     26  N   UNL     1       1.657   3.513  19.745  0.00  0.00    +0.000 N 
ATOM     27  C   UNL     1       1.255   2.678  20.745  0.00  0.00    +0.000 A 
ATOM     28  N   UNL     1       1.758   3.086  21.885  0.00  0.00    +0.000 NA
ATOM     29  N   UNL     1       2.517   4.200  21.627  0.00  0.00    +0.000 NA
ATOM     30  C   UNL     1       2.462   4.454  20.334  0.00  0.00    +0.000 A 
ENDBRANCH  24  30
ENDBRANCH  18  24
ENDBRANCH   1  22
BRANCH   8  31
ATOM     31  C   UNL     1      -1.927  10.443  17.247  0.00  0.00    +0.000 C 
ATOM     32  F   UNL     1      -3.084   9.733  17.383  0.00  0.00    +0.000 F 
ATOM     33  F   UNL     1      -2.141  11.284  16.197  0.00  0.00    +0.000 F 
ATOM     34  F   UNL     1      -1.006   9.531  16.816  0.00  0.00    +0.000 F 
ENDBRANCH   8  31
TORSDOF 5
ENDMDL
MODEL 8
REMARK VINA RESULT:      -7.7      7.777     11.178
REMARK  Name = 
REMARK  6 active torsions:
REMARK  status: ('A' for Active; 'I' for Inactive)
REMARK    1  A    between atoms: C_1  and  N_2
REMARK    2  A    between atoms: C_6  and  C_7
REMARK    3  A    between atoms: C_7  and  C_8
REMARK    4  A    between atoms: C_12  and  N_13
REMARK    5  A    between atoms: C_18  and  C_19
REMARK    6  A    between atoms: C_26  and  C_27
REMARK                            x       y       z     vdW  Elec       q    Type
REMARK                         _______ _______ _______ _____ _____    ______ ____
ROOT
ATOM      1  N   UNL     1       2.986   3.810  18.943  0.00  0.00    +0.000 N 
ATOM      2  C   UNL     1       4.347   4.000  19.501  0.00  0.00    +0.000 C 
ATOM      3  C   UNL     1       5.178   4.145  18.260  0.00  0.00    +0.000 A 
ATOM      4  C   UNL     1       4.534   3.431  17.239  0.00  0.00    +0.000 A 
ATOM      5  C   UNL     1       4.956   3.429  15.924  0.00  0.00    +0.000 A 
ATOM      6  C   UNL     1       6.077   4.205  15.614  0.00  0.00    +0.000 A 
ATOM      7  C   UNL     1       6.714   4.962  16.627  0.00  0.00    +0.000 A 
ATOM      8  C   UNL     1       6.274   4.950  17.970  0.00  0.00    +0.000 A 
ATOM      9  C   UNL     1       3.180   3.075  17.736  0.00  0.00    +0.000 C 
ATOM     10  O   UNL     1       2.362   2.439  17.101  0.00  0.00    +0.000 OA
ENDROOT
BRANCH   6  11
ATOM     11  C   UNL     1       6.575   4.263  14.233  0.00  0.00    +0.000 C 
ATOM     12  C   UNL     1       6.019   3.515  13.268  0.00  0.00    +0.000 C 
ATOM     13  O   UNL     1       6.366   3.559  11.947  0.00  0.00    +0.000 OA
ATOM     14  C   UNL     1       7.413   4.470  11.572  0.00  0.00    +0.000 C 
ATOM     15  C   UNL     1       7.988   5.435  12.631  0.00  0.00    +0.000 C 
ATOM     16  N   UNL     1       7.595   5.131  13.979  0.00  0.00    +0.000 N 
ATOM     17  H   UNL     1       7.808   5.807  14.705  0.00  0.00    +0.000 HD
ENDBRANCH   6  11
BRANCH   1  22
ATOM     18  C   UNL     1       2.046   7.143  20.077  0.00  0.00    +0.000 A 
ATOM     19  C   UNL     1       2.623   7.851  19.012  0.00  0.00    +0.000 A 
ATOM     20  C   UNL     1       2.850   7.228  17.787  0.00  0.00    +0.000 A 
ATOM     21  C   UNL     1       2.612   5.869  17.648  0.00  0.00    +0.000 A 
ATOM     22  C   UNL     1       2.327   5.105  18.789  0.00  0.00    +0.000 A 
ATOM     23  C   UNL     1       1.874   5.759  19.945  0.00  0.00    +0.000 A 
BRANCH  18  24
ATOM     24  C   UNL     1       1.592   7.896  21.309  0.00  0.00    +0.000 C 
BRANCH  24  30
ATOM     25  C   UNL     1      -0.026   9.547  23.446  0.00  0.00    +0.000 C 
ATOM     26  N   UNL     1       0.015   9.767  22.027  0.00  0.00    +0.000 N 
ATOM     27  C   UNL     1      -0.604  10.792  21.374  0.00  0.00    +0.000 A 
ATOM     28  N   UNL     1      -0.355  10.708  20.090  0.00  0.00    +0.000 NA
ATOM     29  N   UNL     1       0.455   9.616  19.896  0.00  0.00    +0.000 NA
ATOM     30  C   UNL     1       0.684   9.053  21.067  0.00  0.00    +0.000 A 
ENDBRANCH  24  30
ENDBRANCH  18  24
ENDBRANCH   1  22
BRANCH   8  31
ATOM     31  C   UNL     1       6.922   5.875  18.963  0.00  0.00    +0.000 C 
ATOM     32  F   UNL     1       7.294   5.283  20.134  0.00  0.00    +0.000 F 
ATOM     33  F   UNL     1       8.052   6.458  18.476  0.00  0.00    +0.000 F 
ATOM     34  F   UNL     1       6.102   6.902  19.336  0.00  0.00    +0.000 F 
ENDBRANCH   8  31
TORSDOF 5
ENDMDL
MODEL 9
REMARK VINA RESULT:      -7.7      4.510      6.905
REMARK  Name = 
REMARK  6 active torsions:
REMARK  status: ('A' for Active; 'I' for Inactive)
REMARK    1  A    between atoms: C_1  and  N_2
REMARK    2  A    between atoms: C_6  and  C_7
REMARK    3  A    between atoms: C_7  and  C_8
REMARK    4  A    between atoms: C_12  and  N_13
REMARK    5  A    between atoms: C_18  and  C_19
REMARK    6  A    between atoms: C_26  and  C_27
REMARK                            x       y       z     vdW  Elec       q    Type
REMARK                         _______ _______ _______ _____ _____    ______ ____
ROOT
ATOM      1  N   UNL     1       0.423   8.633  21.093  0.00  0.00    +0.000 N 
ATOM      2  C   UNL     1      -0.821   8.741  20.294  0.00  0.00    +0.000 C 
ATOM      3  C   UNL     1      -0.908  10.218  20.043  0.00  0.00    +0.000 A 
ATOM      4  C   UNL     1      -0.269  10.861  21.113  0.00  0.00    +0.000 A 
ATOM      5  C   UNL     1      -0.058  12.225  21.170  0.00  0.00    +0.000 A 
ATOM      6  C   UNL     1      -0.497  12.982  20.079  0.00  0.00    +0.000 A 
ATOM      7  C   UNL     1      -1.109  12.342  18.975  0.00  0.00    +0.000 A 
ATOM      8  C   UNL     1      -1.322  10.945  18.934  0.00  0.00    +0.000 A 
ATOM      9  C   UNL     1       0.458   9.820  21.884  0.00  0.00    +0.000 C 
ATOM     10  O   UNL     1       1.110  10.039  22.887  0.00  0.00    +0.000 OA
ENDROOT
BRANCH   6  11
ATOM     11  C   UNL     1      -0.295  14.438  20.062  0.00  0.00    +0.000 C 
ATOM     12  C   UNL     1       0.285  15.065  21.096  0.00  0.00    +0.000 C 
ATOM     13  O   UNL     1       0.580  16.398  21.136  0.00  0.00    +0.000 OA
ATOM     14  C   UNL     1       0.230  17.184  19.985  0.00  0.00    +0.000 C 
ATOM     15  C   UNL     1      -0.323  16.477  18.729  0.00  0.00    +0.000 C 
ATOM     16  N   UNL     1      -0.691  15.105  18.942  0.00  0.00    +0.000 N 
ATOM     17  H   UNL     1      -0.917  14.537  18.130  0.00  0.00    +0.000 HD
ENDBRANCH   6  11
BRANCH   1  22
ATOM     18  C   UNL     1       2.554   6.630  18.920  0.00  0.00    +0.000 A 
ATOM     19  C   UNL     1       2.415   7.423  17.771  0.00  0.00    +0.000 A 
ATOM     20  C   UNL     1       2.055   8.764  17.875  0.00  0.00    +0.000 A 
ATOM     21  C   UNL     1       1.721   9.297  19.111  0.00  0.00    +0.000 A 
ATOM     22  C   UNL     1       1.568   8.436  20.208  0.00  0.00    +0.000 A 
ATOM     23  C   UNL     1       2.151   7.161  20.153  0.00  0.00    +0.000 A 
BRANCH  18  24
ATOM     24  C   UNL     1       3.172   5.254  18.801  0.00  0.00    +0.000 C 
BRANCH  24  30
ATOM     25  C   UNL     1       2.214   3.687  21.359  0.00  0.00    +0.000 C 
ATOM     26  N   UNL     1       1.805   3.464  19.999  0.00  0.00    +0.000 N 
ATOM     27  C   UNL     1       0.866   2.559  19.601  0.00  0.00    +0.000 A 
ATOM     28  N   UNL     1       0.724   2.619  18.299  0.00  0.00    +0.000 NA
ATOM     29  N   UNL     1       1.575   3.591  17.834  0.00  0.00    +0.000 NA
ATOM     30  C   UNL     1       2.223   4.106  18.862  0.00  0.00    +0.000 A 
ENDBRANCH  24  30
ENDBRANCH  18  24
ENDBRANCH   1  22
BRANCH   8  31
ATOM     31  C   UNL     1      -1.863  10.322  17.676  0.00  0.00    +0.000 C 
ATOM     32  F   UNL     1      -2.204  11.212  16.700  0.00  0.00    +0.000 F 
ATOM     33  F   UNL     1      -0.977   9.467  17.092  0.00  0.00    +0.000 F 
ATOM     34  F   UNL     1      -2.997   9.593  17.896  0.00  0.00    +0.000 F 
ENDBRANCH   8  31
TORSDOF 5
ENDMDL
