MODEL 1
REMARK VINA RESULT:      -8.9      0.000      0.000
REMARK  Name = 
REMARK  5 active torsions:
REMARK  status: ('A' for Active; 'I' for Inactive)
REMARK    1  A    between atoms: C_2  and  C_3
REMARK    2  A    between atoms: C_3  and  N_4
REMARK    3  A    between atoms: N_16  and  C_17
REMARK    4  A    between atoms: C_17  and  C_18
REMARK    5  A    between atoms: C_22  and  C_23
REMARK                            x       y       z     vdW  Elec       q    Type
REMARK                         _______ _______ _______ _____ _____    ______ ____
ROOT
ATOM      1  O   UNL     1       2.104   8.102  19.910  0.00  0.00    +0.000 OA
ATOM      2  C   UNL     1       2.015   8.126  18.683  0.00  0.00    +0.000 C 
ATOM      3  N   UNL     1       2.157   7.013  17.880  0.00  0.00    +0.000 N 
ATOM      4  H   UNL     1       2.143   7.150  16.875  0.00  0.00    +0.000 HD
ENDROOT
BRANCH   3   5
ATOM      5  C   UNL     1       2.478   5.657  18.403  0.00  0.00    +0.000 C 
ATOM      6  C   UNL     1       1.425   4.606  17.876  0.00  0.00    +0.000 C 
ATOM      7  C   UNL     1       1.444   3.973  19.278  0.00  0.00    +0.000 C 
ATOM      8  C   UNL     1       1.848   5.356  19.815  0.00  0.00    +0.000 C 
BRANCH   5   9
ATOM      9  C   UNL     1       4.036   5.315  18.177  0.00  0.00    +0.000 A 
ATOM     10  C   UNL     1       4.967   5.385  19.226  0.00  0.00    +0.000 A 
ATOM     11  C   UNL     1       6.332   5.138  19.029  0.00  0.00    +0.000 A 
ATOM     12  C   UNL     1       6.806   4.832  17.758  0.00  0.00    +0.000 A 
ATOM     13  C   UNL     1       5.925   4.766  16.678  0.00  0.00    +0.000 A 
ATOM     14  C   UNL     1       4.554   5.009  16.900  0.00  0.00    +0.000 A 
BRANCH  13  15
ATOM     15  C   UNL     1       6.408   4.468  15.281  0.00  0.00    +0.000 C 
ATOM     16  F   UNL     1       7.740   4.686  15.102  0.00  0.00    +0.000 F 
ATOM     17  F   UNL     1       6.191   3.174  14.917  0.00  0.00    +0.000 F 
ATOM     18  F   UNL     1       5.779   5.228  14.340  0.00  0.00    +0.000 F 
ENDBRANCH  13  15
ENDBRANCH   5   9
ENDBRANCH   3   5
BRANCH   2  19
ATOM     19  C   UNL     1       1.673   9.407  17.932  0.00  0.00    +0.000 C 
BRANCH  19  20
ATOM     20  N   UNL     1       0.676  10.160  18.677  0.00  0.00    +0.000 N 
ATOM     21  N   UNL     1       1.084  10.602  19.942  0.00  0.00    +0.000 N 
ATOM     22  C   UNL     1       0.211  11.175  20.835  0.00  0.00    +0.000 A 
ATOM     23  O   UNL     1       0.525  11.392  22.000  0.00  0.00    +0.000 OA
ATOM     24  C   UNL     1      -1.123  11.532  20.322  0.00  0.00    +0.000 A 
ATOM     25  C   UNL     1      -1.969  12.345  21.086  0.00  0.00    +0.000 A 
ATOM     26  C   UNL     1      -3.221  12.710  20.585  0.00  0.00    +0.000 A 
ATOM     27  C   UNL     1      -3.636  12.246  19.336  0.00  0.00    +0.000 A 
ATOM     28  C   UNL     1      -2.804  11.411  18.588  0.00  0.00    +0.000 A 
ATOM     29  C   UNL     1      -1.540  11.059  19.080  0.00  0.00    +0.000 A 
ATOM     30  C   UNL     1      -0.642  10.219  18.264  0.00  0.00    +0.000 A 
ATOM     31  O   UNL     1      -1.058   9.650  17.258  0.00  0.00    +0.000 OA
ATOM     32  H   UNL     1       1.911  10.173  20.355  0.00  0.00    +0.000 HD
ENDBRANCH  19  20
ENDBRANCH   2  19
TORSDOF 5
ENDMDL
MODEL 2
REMARK VINA RESULT:      -8.8      0.944      1.151
REMARK  Name = 
REMARK  5 active torsions:
REMARK  status: ('A' for Active; 'I' for Inactive)
REMARK    1  A    between atoms: C_2  and  C_3
REMARK    2  A    between atoms: C_3  and  N_4
REMARK    3  A    between atoms: N_16  and  C_17
REMARK    4  A    between atoms: C_17  and  C_18
REMARK    5  A    between atoms: C_22  and  C_23
REMARK                            x       y       z     vdW  Elec       q    Type
REMARK                         _______ _______ _______ _____ _____    ______ ____
ROOT
ATOM      1  O   UNL     1       2.129   7.577  20.436  0.00  0.00    +0.000 OA
ATOM      2  C   UNL     1       2.004   7.842  19.241  0.00  0.00    +0.000 C 
ATOM      3  N   UNL     1       2.123   6.910  18.231  0.00  0.00    +0.000 N 
ATOM      4  H   UNL     1       2.079   7.242  17.274  0.00  0.00    +0.000 HD
ENDROOT
BRANCH   3   5
ATOM      5  C   UNL     1       2.462   5.479  18.468  0.00  0.00    +0.000 C 
ATOM      6  C   UNL     1       1.428   4.545  17.726  0.00  0.00    +0.000 C 
ATOM      7  C   UNL     1       1.448   3.638  18.969  0.00  0.00    +0.000 C 
ATOM      8  C   UNL     1       1.827   4.886  19.782  0.00  0.00    +0.000 C 
BRANCH   5   9
ATOM      9  C   UNL     1       4.026   5.213  18.191  0.00  0.00    +0.000 A 
ATOM     10  C   UNL     1       4.985   5.315  19.213  0.00  0.00    +0.000 A 
ATOM     11  C   UNL     1       6.352   5.133  18.972  0.00  0.00    +0.000 A 
ATOM     12  C   UNL     1       6.801   4.863  17.684  0.00  0.00    +0.000 A 
ATOM     13  C   UNL     1       5.892   4.767  16.630  0.00  0.00    +0.000 A 
ATOM     14  C   UNL     1       4.519   4.944  16.895  0.00  0.00    +0.000 A 
BRANCH  13  15
ATOM     15  C   UNL     1       6.346   4.507  15.216  0.00  0.00    +0.000 C 
ATOM     16  F   UNL     1       7.637   4.866  14.978  0.00  0.00    +0.000 F 
ATOM     17  F   UNL     1       6.256   3.192  14.871  0.00  0.00    +0.000 F 
ATOM     18  F   UNL     1       5.598   5.182  14.296  0.00  0.00    +0.000 F 
ENDBRANCH  13  15
ENDBRANCH   5   9
ENDBRANCH   3   5
BRANCH   2  19
ATOM     19  C   UNL     1       1.638   9.243  18.768  0.00  0.00    +0.000 C 
BRANCH  19  20
ATOM     20  N   UNL     1       0.815   9.899  19.771  0.00  0.00    +0.000 N 
ATOM     21  N   UNL     1       1.186   9.657  21.100  0.00  0.00    +0.000 N 
ATOM     22  C   UNL     1       0.413  10.062  22.162  0.00  0.00    +0.000 A 
ATOM     23  O   UNL     1       0.643   9.692  23.308  0.00  0.00    +0.000 OA
ATOM     24  C   UNL     1      -0.702  10.976  21.861  0.00  0.00    +0.000 A 
ATOM     25  C   UNL     1      -1.367  11.632  22.904  0.00  0.00    +0.000 A 
ATOM     26  C   UNL     1      -2.402  12.524  22.616  0.00  0.00    +0.000 A 
ATOM     27  C   UNL     1      -2.788  12.744  21.293  0.00  0.00    +0.000 A 
ATOM     28  C   UNL     1      -2.144  12.067  20.255  0.00  0.00    +0.000 A 
ATOM     29  C   UNL     1      -1.093  11.186  20.540  0.00  0.00    +0.000 A 
ATOM     30  C   UNL     1      -0.380  10.512  19.438  0.00  0.00    +0.000 A 
ATOM     31  O   UNL     1      -0.823  10.544  18.293  0.00  0.00    +0.000 OA
ATOM     32  H   UNL     1       1.808   8.872  21.287  0.00  0.00    +0.000 HD
ENDBRANCH  19  20
ENDBRANCH   2  19
TORSDOF 5
ENDMDL
MODEL 3
REMARK VINA RESULT:      -8.7      2.242      2.689
REMARK  Name = 
REMARK  5 active torsions:
REMARK  status: ('A' for Active; 'I' for Inactive)
REMARK    1  A    between atoms: C_2  and  C_3
REMARK    2  A    between atoms: C_3  and  N_4
REMARK    3  A    between atoms: N_16  and  C_17
REMARK    4  A    between atoms: C_17  and  C_18
REMARK    5  A    between atoms: C_22  and  C_23
REMARK                            x       y       z     vdW  Elec       q    Type
REMARK                         _______ _______ _______ _____ _____    ______ ____
ROOT
ATOM      1  O   UNL     1       3.016   7.429  19.861  0.00  0.00    +0.000 OA
ATOM      2  C   UNL     1       2.401   7.554  18.803  0.00  0.00    +0.000 C 
ATOM      3  N   UNL     1       2.127   6.511  17.944  0.00  0.00    +0.000 N 
ATOM      4  H   UNL     1       1.682   6.730  17.060  0.00  0.00    +0.000 HD
ENDROOT
BRANCH   3   5
ATOM      5  C   UNL     1       2.582   5.112  18.178  0.00  0.00    +0.000 C 
ATOM      6  C   UNL     1       1.492   4.091  17.666  0.00  0.00    +0.000 C 
ATOM      7  C   UNL     1       1.776   3.251  18.923  0.00  0.00    +0.000 C 
ATOM      8  C   UNL     1       2.217   4.556  19.606  0.00  0.00    +0.000 C 
BRANCH   5   9
ATOM      9  C   UNL     1       4.089   4.909  17.646  0.00  0.00    +0.000 A 
ATOM     10  C   UNL     1       4.363   4.231  16.446  0.00  0.00    +0.000 A 
ATOM     11  C   UNL     1       5.671   4.006  16.000  0.00  0.00    +0.000 A 
ATOM     12  C   UNL     1       6.750   4.440  16.763  0.00  0.00    +0.000 A 
ATOM     13  C   UNL     1       6.533   5.104  17.970  0.00  0.00    +0.000 A 
ATOM     14  C   UNL     1       5.208   5.329  18.397  0.00  0.00    +0.000 A 
BRANCH  13  15
ATOM     15  C   UNL     1       7.678   5.561  18.838  0.00  0.00    +0.000 C 
ATOM     16  F   UNL     1       7.351   5.698  20.153  0.00  0.00    +0.000 F 
ATOM     17  F   UNL     1       8.734   4.700  18.807  0.00  0.00    +0.000 F 
ATOM     18  F   UNL     1       8.175   6.770  18.452  0.00  0.00    +0.000 F 
ENDBRANCH  13  15
ENDBRANCH   5   9
ENDBRANCH   3   5
BRANCH   2  19
ATOM     19  C   UNL     1       1.826   8.897  18.369  0.00  0.00    +0.000 C 
BRANCH  19  20
ATOM     20  N   UNL     1       1.118   9.508  19.483  0.00  0.00    +0.000 N 
ATOM     21  N   UNL     1       0.603   8.611  20.428  0.00  0.00    +0.000 N 
ATOM     22  C   UNL     1      -0.232   9.015  21.442  0.00  0.00    +0.000 A 
ATOM     23  O   UNL     1      -0.824   8.209  22.152  0.00  0.00    +0.000 OA
ATOM     24  C   UNL     1      -0.374  10.467  21.647  0.00  0.00    +0.000 A 
ATOM     25  C   UNL     1      -0.991  10.950  22.807  0.00  0.00    +0.000 A 
ATOM     26  C   UNL     1      -1.096  12.327  23.016  0.00  0.00    +0.000 A 
ATOM     27  C   UNL     1      -0.606  13.218  22.061  0.00  0.00    +0.000 A 
ATOM     28  C   UNL     1      -0.017  12.736  20.891  0.00  0.00    +0.000 A 
ATOM     29  C   UNL     1       0.106  11.355  20.687  0.00  0.00    +0.000 A 
ATOM     30  C   UNL     1       0.776  10.848  19.473  0.00  0.00    +0.000 A 
ATOM     31  O   UNL     1       1.039  11.604  18.541  0.00  0.00    +0.000 OA
ATOM     32  H   UNL     1       0.527   7.630  20.164  0.00  0.00    +0.000 HD
ENDBRANCH  19  20
ENDBRANCH   2  19
TORSDOF 5
ENDMDL
MODEL 4
REMARK VINA RESULT:      -8.7      1.605      2.103
REMARK  Name = 
REMARK  5 active torsions:
REMARK  status: ('A' for Active; 'I' for Inactive)
REMARK    1  A    between atoms: C_2  and  C_3
REMARK    2  A    between atoms: C_3  and  N_4
REMARK    3  A    between atoms: N_16  and  C_17
REMARK    4  A    between atoms: C_17  and  C_18
REMARK    5  A    between atoms: C_22  and  C_23
REMARK                            x       y       z     vdW  Elec       q    Type
REMARK                         _______ _______ _______ _____ _____    ______ ____
ROOT
ATOM      1  O   UNL     1       1.768   8.068  19.811  0.00  0.00    +0.000 OA
ATOM      2  C   UNL     1       1.991   8.231  18.611  0.00  0.00    +0.000 C 
ATOM      3  N   UNL     1       2.442   7.235  17.771  0.00  0.00    +0.000 N 
ATOM      4  H   UNL     1       2.669   7.488  16.816  0.00  0.00    +0.000 HD
ENDROOT
BRANCH   3   5
ATOM      5  C   UNL     1       2.754   5.852  18.227  0.00  0.00    +0.000 C 
ATOM      6  C   UNL     1       1.570   4.876  17.858  0.00  0.00    +0.000 C 
ATOM      7  C   UNL     1       1.762   4.218  19.235  0.00  0.00    +0.000 C 
ATOM      8  C   UNL     1       2.328   5.564  19.717  0.00  0.00    +0.000 C 
BRANCH   5   9
ATOM      9  C   UNL     1       4.235   5.422  17.763  0.00  0.00    +0.000 A 
ATOM     10  C   UNL     1       4.452   4.650  16.610  0.00  0.00    +0.000 A 
ATOM     11  C   UNL     1       5.732   4.229  16.225  0.00  0.00    +0.000 A 
ATOM     12  C   UNL     1       6.835   4.556  17.006  0.00  0.00    +0.000 A 
ATOM     13  C   UNL     1       6.672   5.308  18.170  0.00  0.00    +0.000 A 
ATOM     14  C   UNL     1       5.377   5.729  18.535  0.00  0.00    +0.000 A 
BRANCH  13  15
ATOM     15  C   UNL     1       7.840   5.654  19.058  0.00  0.00    +0.000 C 
ATOM     16  F   UNL     1       8.873   4.771  18.977  0.00  0.00    +0.000 F 
ATOM     17  F   UNL     1       8.373   6.875  18.769  0.00  0.00    +0.000 F 
ATOM     18  F   UNL     1       7.497   5.704  20.376  0.00  0.00    +0.000 F 
ENDBRANCH  13  15
ENDBRANCH   5   9
ENDBRANCH   3   5
BRANCH   2  19
ATOM     19  C   UNL     1       1.724   9.564  17.924  0.00  0.00    +0.000 C 
BRANCH  19  20
ATOM     20  N   UNL     1       0.689  10.288  18.645  0.00  0.00    +0.000 N 
ATOM     21  N   UNL     1       1.070  10.782  19.900  0.00  0.00    +0.000 N 
ATOM     22  C   UNL     1       0.165  11.336  20.774  0.00  0.00    +0.000 A 
ATOM     23  O   UNL     1       0.464  11.597  21.934  0.00  0.00    +0.000 OA
ATOM     24  C   UNL     1      -1.181  11.616  20.247  0.00  0.00    +0.000 A 
ATOM     25  C   UNL     1      -2.068  12.409  20.985  0.00  0.00    +0.000 A 
ATOM     26  C   UNL     1      -3.333  12.701  20.471  0.00  0.00    +0.000 A 
ATOM     27  C   UNL     1      -3.719  12.187  19.233  0.00  0.00    +0.000 A 
ATOM     28  C   UNL     1      -2.846  11.372  18.509  0.00  0.00    +0.000 A 
ATOM     29  C   UNL     1      -1.569  11.093  19.016  0.00  0.00    +0.000 A 
ATOM     30  C   UNL     1      -0.628  10.275  18.225  0.00  0.00    +0.000 A 
ATOM     31  O   UNL     1      -1.012   9.661  17.233  0.00  0.00    +0.000 OA
ATOM     32  H   UNL     1       1.913  10.402  20.327  0.00  0.00    +0.000 HD
ENDBRANCH  19  20
ENDBRANCH   2  19
TORSDOF 5
ENDMDL
MODEL 5
REMARK VINA RESULT:      -8.7      1.659      1.964
REMARK  Name = 
REMARK  5 active torsions:
REMARK  status: ('A' for Active; 'I' for Inactive)
REMARK    1  A    between atoms: C_2  and  C_3
REMARK    2  A    between atoms: C_3  and  N_4
REMARK    3  A    between atoms: N_16  and  C_17
REMARK    4  A    between atoms: C_17  and  C_18
REMARK    5  A    between atoms: C_22  and  C_23
REMARK                            x       y       z     vdW  Elec       q    Type
REMARK                         _______ _______ _______ _____ _____    ______ ____
ROOT
ATOM      1  O   UNL     1       2.932   7.399  20.004  0.00  0.00    +0.000 OA
ATOM      2  C   UNL     1       2.333   7.525  18.936  0.00  0.00    +0.000 C 
ATOM      3  N   UNL     1       2.047   6.477  18.087  0.00  0.00    +0.000 N 
ATOM      4  H   UNL     1       1.617   6.695  17.195  0.00  0.00    +0.000 HD
ENDROOT
BRANCH   3   5
ATOM      5  C   UNL     1       2.468   5.072  18.343  0.00  0.00    +0.000 C 
ATOM      6  C   UNL     1       1.444   4.067  17.684  0.00  0.00    +0.000 C 
ATOM      7  C   UNL     1       1.574   3.199  18.947  0.00  0.00    +0.000 C 
ATOM      8  C   UNL     1       1.933   4.488  19.706  0.00  0.00    +0.000 C 
BRANCH   5   9
ATOM      9  C   UNL     1       4.027   4.872  17.990  0.00  0.00    +0.000 A 
ATOM     10  C   UNL     1       5.019   4.903  18.984  0.00  0.00    +0.000 A 
ATOM     11  C   UNL     1       6.380   4.780  18.682  0.00  0.00    +0.000 A 
ATOM     12  C   UNL     1       6.789   4.644  17.360  0.00  0.00    +0.000 A 
ATOM     13  C   UNL     1       5.845   4.623  16.332  0.00  0.00    +0.000 A 
ATOM     14  C   UNL     1       4.478   4.739  16.659  0.00  0.00    +0.000 A 
BRANCH  13  15
ATOM     15  C   UNL     1       6.253   4.508  14.886  0.00  0.00    +0.000 C 
ATOM     16  F   UNL     1       5.393   5.114  14.022  0.00  0.00    +0.000 F 
ATOM     17  F   UNL     1       7.475   5.059  14.641  0.00  0.00    +0.000 F 
ATOM     18  F   UNL     1       6.342   3.212  14.471  0.00  0.00    +0.000 F 
ENDBRANCH  13  15
ENDBRANCH   5   9
ENDBRANCH   3   5
BRANCH   2  19
ATOM     19  C   UNL     1       1.793   8.874  18.480  0.00  0.00    +0.000 C 
BRANCH  19  20
ATOM     20  N   UNL     1       1.083   9.514  19.576  0.00  0.00    +0.000 N 
ATOM     21  N   UNL     1       0.580   8.643  20.551  0.00  0.00    +0.000 N 
ATOM     22  C   UNL     1      -0.255   9.070  21.555  0.00  0.00    +0.000 A 
ATOM     23  O   UNL     1      -0.838   8.282  22.292  0.00  0.00    +0.000 OA
ATOM     24  C   UNL     1      -0.409  10.526  21.715  0.00  0.00    +0.000 A 
ATOM     25  C   UNL     1      -1.027  11.040  22.861  0.00  0.00    +0.000 A 
ATOM     26  C   UNL     1      -1.144  12.422  23.028  0.00  0.00    +0.000 A 
ATOM     27  C   UNL     1      -0.665  13.287  22.044  0.00  0.00    +0.000 A 
ATOM     28  C   UNL     1      -0.076  12.774  20.886  0.00  0.00    +0.000 A 
ATOM     29  C   UNL     1       0.059  11.388  20.726  0.00  0.00    +0.000 A 
ATOM     30  C   UNL     1       0.729  10.850  19.526  0.00  0.00    +0.000 A 
ATOM     31  O   UNL     1       0.982  11.578  18.570  0.00  0.00    +0.000 OA
ATOM     32  H   UNL     1       0.512   7.653  20.318  0.00  0.00    +0.000 HD
ENDBRANCH  19  20
ENDBRANCH   2  19
TORSDOF 5
ENDMDL
MODEL 6
REMARK VINA RESULT:      -8.7      2.074      3.124
REMARK  Name = 
REMARK  5 active torsions:
REMARK  status: ('A' for Active; 'I' for Inactive)
REMARK    1  A    between atoms: C_2  and  C_3
REMARK    2  A    between atoms: C_3  and  N_4
REMARK    3  A    between atoms: N_16  and  C_17
REMARK    4  A    between atoms: C_17  and  C_18
REMARK    5  A    between atoms: C_22  and  C_23
REMARK                            x       y       z     vdW  Elec       q    Type
REMARK                         _______ _______ _______ _____ _____    ______ ____
ROOT
ATOM      1  O   UNL     1       2.233   7.956  19.099  0.00  0.00    +0.000 OA
ATOM      2  C   UNL     1       2.112   7.289  20.125  0.00  0.00    +0.000 C 
ATOM      3  N   UNL     1       2.332   5.928  20.188  0.00  0.00    +0.000 N 
ATOM      4  H   UNL     1       2.130   5.457  21.062  0.00  0.00    +0.000 HD
ENDROOT
BRANCH   3   5
ATOM      5  C   UNL     1       2.701   5.099  19.007  0.00  0.00    +0.000 C 
ATOM      6  C   UNL     1       1.449   4.907  18.064  0.00  0.00    +0.000 C 
ATOM      7  C   UNL     1       1.892   3.446  17.875  0.00  0.00    +0.000 C 
ATOM      8  C   UNL     1       2.565   3.549  19.253  0.00  0.00    +0.000 C 
BRANCH   5   9
ATOM      9  C   UNL     1       4.056   5.647  18.330  0.00  0.00    +0.000 A 
ATOM     10  C   UNL     1       4.067   6.191  17.035  0.00  0.00    +0.000 A 
ATOM     11  C   UNL     1       5.248   6.624  16.419  0.00  0.00    +0.000 A 
ATOM     12  C   UNL     1       6.463   6.502  17.083  0.00  0.00    +0.000 A 
ATOM     13  C   UNL     1       6.510   5.953  18.366  0.00  0.00    +0.000 A 
ATOM     14  C   UNL     1       5.308   5.532  18.972  0.00  0.00    +0.000 A 
BRANCH  13  15
ATOM     15  C   UNL     1       7.813   5.777  19.103  0.00  0.00    +0.000 C 
ATOM     16  F   UNL     1       7.664   5.580  20.442  0.00  0.00    +0.000 F 
ATOM     17  F   UNL     1       8.531   4.713  18.648  0.00  0.00    +0.000 F 
ATOM     18  F   UNL     1       8.633   6.859  18.977  0.00  0.00    +0.000 F 
ENDBRANCH  13  15
ENDBRANCH   5   9
ENDBRANCH   3   5
BRANCH   2  19
ATOM     19  C   UNL     1       1.758   7.933  21.459  0.00  0.00    +0.000 C 
BRANCH  19  20
ATOM     20  N   UNL     1       0.799   9.006  21.245  0.00  0.00    +0.000 N 
ATOM     21  N   UNL     1       0.576   9.348  19.905  0.00  0.00    +0.000 N 
ATOM     22  C   UNL     1      -0.166  10.448  19.544  0.00  0.00    +0.000 A 
ATOM     23  O   UNL     1      -0.207  10.848  18.386  0.00  0.00    +0.000 OA
ATOM     24  C   UNL     1      -0.924  11.117  20.614  0.00  0.00    +0.000 A 
ATOM     25  C   UNL     1      -1.896  12.071  20.288  0.00  0.00    +0.000 A 
ATOM     26  C   UNL     1      -2.637  12.682  21.301  0.00  0.00    +0.000 A 
ATOM     27  C   UNL     1      -2.395  12.359  22.637  0.00  0.00    +0.000 A 
ATOM     28  C   UNL     1      -1.406  11.430  22.964  0.00  0.00    +0.000 A 
ATOM     29  C   UNL     1      -0.673  10.801  21.947  0.00  0.00    +0.000 A 
ATOM     30  C   UNL     1       0.336   9.781  22.293  0.00  0.00    +0.000 A 
ATOM     31  O   UNL     1       0.694   9.623  23.457  0.00  0.00    +0.000 OA
ATOM     32  H   UNL     1       1.251   9.030  19.212  0.00  0.00    +0.000 HD
ENDBRANCH  19  20
ENDBRANCH   2  19
TORSDOF 5
ENDMDL
MODEL 7
REMARK VINA RESULT:      -8.6      1.019      1.963
REMARK  Name = 
REMARK  5 active torsions:
REMARK  status: ('A' for Active; 'I' for Inactive)
REMARK    1  A    between atoms: C_2  and  C_3
REMARK    2  A    between atoms: C_3  and  N_4
REMARK    3  A    between atoms: N_16  and  C_17
REMARK    4  A    between atoms: C_17  and  C_18
REMARK    5  A    between atoms: C_22  and  C_23
REMARK                            x       y       z     vdW  Elec       q    Type
REMARK                         _______ _______ _______ _____ _____    ______ ____
ROOT
ATOM      1  O   UNL     1       1.741   8.104  19.755  0.00  0.00    +0.000 OA
ATOM      2  C   UNL     1       2.224   8.333  18.647  0.00  0.00    +0.000 C 
ATOM      3  N   UNL     1       2.889   7.393  17.889  0.00  0.00    +0.000 N 
ATOM      4  H   UNL     1       3.318   7.700  17.023  0.00  0.00    +0.000 HD
ENDROOT
BRANCH   3   5
ATOM      5  C   UNL     1       3.138   5.996  18.343  0.00  0.00    +0.000 C 
ATOM      6  C   UNL     1       1.900   5.081  17.994  0.00  0.00    +0.000 C 
ATOM      7  C   UNL     1       2.081   4.416  19.369  0.00  0.00    +0.000 C 
ATOM      8  C   UNL     1       2.721   5.732  19.839  0.00  0.00    +0.000 C 
BRANCH   5   9
ATOM      9  C   UNL     1       4.588   5.491  17.857  0.00  0.00    +0.000 A 
ATOM     10  C   UNL     1       5.679   5.420  18.739  0.00  0.00    +0.000 A 
ATOM     11  C   UNL     1       6.956   5.030  18.315  0.00  0.00    +0.000 A 
ATOM     12  C   UNL     1       7.179   4.718  16.979  0.00  0.00    +0.000 A 
ATOM     13  C   UNL     1       6.133   4.787  16.058  0.00  0.00    +0.000 A 
ATOM     14  C   UNL     1       4.853   5.174  16.507  0.00  0.00    +0.000 A 
BRANCH  13  15
ATOM     15  C   UNL     1       6.345   4.487  14.596  0.00  0.00    +0.000 C 
ATOM     16  F   UNL     1       7.457   5.070  14.071  0.00  0.00    +0.000 F 
ATOM     17  F   UNL     1       6.473   3.153  14.349  0.00  0.00    +0.000 F 
ATOM     18  F   UNL     1       5.305   4.908  13.821  0.00  0.00    +0.000 F 
ENDBRANCH  13  15
ENDBRANCH   5   9
ENDBRANCH   3   5
BRANCH   2  19
ATOM     19  C   UNL     1       2.073   9.693  17.977  0.00  0.00    +0.000 C 
BRANCH  19  20
ATOM     20  N   UNL     1       0.770  10.255  18.297  0.00  0.00    +0.000 N 
ATOM     21  N   UNL     1      -0.306   9.707  17.587  0.00  0.00    +0.000 N 
ATOM     22  C   UNL     1      -1.571  10.242  17.648  0.00  0.00    +0.000 A 
ATOM     23  O   UNL     1      -2.464   9.878  16.890  0.00  0.00    +0.000 OA
ATOM     24  C   UNL     1      -1.810  11.267  18.678  0.00  0.00    +0.000 A 
ATOM     25  C   UNL     1      -3.119  11.666  18.973  0.00  0.00    +0.000 A 
ATOM     26  C   UNL     1      -3.347  12.615  19.972  0.00  0.00    +0.000 A 
ATOM     27  C   UNL     1      -2.272  13.178  20.660  0.00  0.00    +0.000 A 
ATOM     28  C   UNL     1      -0.965  12.801  20.345  0.00  0.00    +0.000 A 
ATOM     29  C   UNL     1      -0.734  11.836  19.355  0.00  0.00    +0.000 A 
ATOM     30  C   UNL     1       0.645  11.401  19.060  0.00  0.00    +0.000 A 
ATOM     31  O   UNL     1       1.607  12.016  19.514  0.00  0.00    +0.000 OA
ATOM     32  H   UNL     1      -0.100   9.167  16.748  0.00  0.00    +0.000 HD
ENDBRANCH  19  20
ENDBRANCH   2  19
TORSDOF 5
ENDMDL
MODEL 8
REMARK VINA RESULT:      -8.6      1.830      2.367
REMARK  Name = 
REMARK  5 active torsions:
REMARK  status: ('A' for Active; 'I' for Inactive)
REMARK    1  A    between atoms: C_2  and  C_3
REMARK    2  A    between atoms: C_3  and  N_4
REMARK    3  A    between atoms: N_16  and  C_17
REMARK    4  A    between atoms: C_17  and  C_18
REMARK    5  A    between atoms: C_22  and  C_23
REMARK                            x       y       z     vdW  Elec       q    Type
REMARK                         _______ _______ _______ _____ _____    ______ ____
ROOT
ATOM      1  O   UNL     1       1.741   7.370  20.365  0.00  0.00    +0.000 OA
ATOM      2  C   UNL     1       1.950   7.770  19.220  0.00  0.00    +0.000 C 
ATOM      3  N   UNL     1       2.384   6.961  18.191  0.00  0.00    +0.000 N 
ATOM      4  H   UNL     1       2.601   7.401  17.303  0.00  0.00    +0.000 HD
ENDROOT
BRANCH   3   5
ATOM      5  C   UNL     1       2.693   5.514  18.356  0.00  0.00    +0.000 C 
ATOM      6  C   UNL     1       1.518   4.636  17.773  0.00  0.00    +0.000 C 
ATOM      7  C   UNL     1       1.690   3.707  18.987  0.00  0.00    +0.000 C 
ATOM      8  C   UNL     1       2.244   4.924  19.746  0.00  0.00    +0.000 C 
BRANCH   5   9
ATOM      9  C   UNL     1       4.183   5.188  17.837  0.00  0.00    +0.000 A 
ATOM     10  C   UNL     1       4.411   4.454  16.661  0.00  0.00    +0.000 A 
ATOM     11  C   UNL     1       5.701   4.124  16.228  0.00  0.00    +0.000 A 
ATOM     12  C   UNL     1       6.806   4.506  16.981  0.00  0.00    +0.000 A 
ATOM     13  C   UNL     1       6.634   5.222  18.166  0.00  0.00    +0.000 A 
ATOM     14  C   UNL     1       5.327   5.553  18.580  0.00  0.00    +0.000 A 
BRANCH  13  15
ATOM     15  C   UNL     1       7.806   5.625  19.024  0.00  0.00    +0.000 C 
ATOM     16  F   UNL     1       7.510   5.723  20.349  0.00  0.00    +0.000 F 
ATOM     17  F   UNL     1       8.843   4.746  18.939  0.00  0.00    +0.000 F 
ATOM     18  F   UNL     1       8.319   6.838  18.669  0.00  0.00    +0.000 F 
ENDBRANCH  13  15
ENDBRANCH   5   9
ENDBRANCH   3   5
BRANCH   2  19
ATOM     19  C   UNL     1       1.683   9.215  18.819  0.00  0.00    +0.000 C 
BRANCH  19  20
ATOM     20  N   UNL     1       0.862   9.861  19.831  0.00  0.00    +0.000 N 
ATOM     21  N   UNL     1       1.237   9.605  21.156  0.00  0.00    +0.000 N 
ATOM     22  C   UNL     1       0.466   9.998  22.224  0.00  0.00    +0.000 A 
ATOM     23  O   UNL     1       0.699   9.615  23.366  0.00  0.00    +0.000 OA
ATOM     24  C   UNL     1      -0.649  10.915  21.936  0.00  0.00    +0.000 A 
ATOM     25  C   UNL     1      -1.312  11.560  22.987  0.00  0.00    +0.000 A 
ATOM     26  C   UNL     1      -2.348  12.455  22.711  0.00  0.00    +0.000 A 
ATOM     27  C   UNL     1      -2.736  12.688  21.392  0.00  0.00    +0.000 A 
ATOM     28  C   UNL     1      -2.096  12.023  20.345  0.00  0.00    +0.000 A 
ATOM     29  C   UNL     1      -1.043  11.139  20.619  0.00  0.00    +0.000 A 
ATOM     30  C   UNL     1      -0.333  10.476  19.507  0.00  0.00    +0.000 A 
ATOM     31  O   UNL     1      -0.779  10.520  18.363  0.00  0.00    +0.000 OA
ATOM     32  H   UNL     1       1.859   8.818  21.333  0.00  0.00    +0.000 HD
ENDBRANCH  19  20
ENDBRANCH   2  19
TORSDOF 5
ENDMDL
MODEL 9
REMARK VINA RESULT:      -8.5      2.892      4.188
REMARK  Name = 
REMARK  5 active torsions:
REMARK  status: ('A' for Active; 'I' for Inactive)
REMARK    1  A    between atoms: C_2  and  C_3
REMARK    2  A    between atoms: C_3  and  N_4
REMARK    3  A    between atoms: N_16  and  C_17
REMARK    4  A    between atoms: C_17  and  C_18
REMARK    5  A    between atoms: C_22  and  C_23
REMARK                            x       y       z     vdW  Elec       q    Type
REMARK                         _______ _______ _______ _____ _____    ______ ____
ROOT
ATOM      1  O   UNL     1       2.263   7.461  19.662  0.00  0.00    +0.000 OA
ATOM      2  C   UNL     1       2.389   7.866  18.507  0.00  0.00    +0.000 C 
ATOM      3  N   UNL     1       3.085   7.190  17.527  0.00  0.00    +0.000 N 
ATOM      4  H   UNL     1       3.197   7.644  16.627  0.00  0.00    +0.000 HD
ENDROOT
BRANCH   3   5
ATOM      5  C   UNL     1       3.805   5.908  17.765  0.00  0.00    +0.000 C 
ATOM      6  C   UNL     1       5.141   6.174  18.563  0.00  0.00    +0.000 C 
ATOM      7  C   UNL     1       5.821   5.139  17.650  0.00  0.00    +0.000 C 
ATOM      8  C   UNL     1       4.767   5.493  16.588  0.00  0.00    +0.000 C 
BRANCH   5   9
ATOM      9  C   UNL     1       2.802   4.795  18.357  0.00  0.00    +0.000 A 
ATOM     10  C   UNL     1       1.737   4.283  17.597  0.00  0.00    +0.000 A 
ATOM     11  C   UNL     1       0.830   3.352  18.118  0.00  0.00    +0.000 A 
ATOM     12  C   UNL     1       0.956   2.922  19.435  0.00  0.00    +0.000 A 
ATOM     13  C   UNL     1       1.987   3.412  20.238  0.00  0.00    +0.000 A 
ATOM     14  C   UNL     1       2.895   4.342  19.690  0.00  0.00    +0.000 A 
BRANCH  13  15
ATOM     15  C   UNL     1       2.135   2.993  21.678  0.00  0.00    +0.000 C 
ATOM     16  F   UNL     1       2.433   4.019  22.522  0.00  0.00    +0.000 F 
ATOM     17  F   UNL     1       1.003   2.420  22.175  0.00  0.00    +0.000 F 
ATOM     18  F   UNL     1       3.124   2.070  21.853  0.00  0.00    +0.000 F 
ENDBRANCH  13  15
ENDBRANCH   5   9
ENDBRANCH   3   5
BRANCH   2  19
ATOM     19  C   UNL     1       1.720   9.151  18.034  0.00  0.00    +0.000 C 
BRANCH  19  20
ATOM     20  N   UNL     1       1.007   9.768  19.142  0.00  0.00    +0.000 N 
ATOM     21  N   UNL     1       1.549   9.523  20.410  0.00  0.00    +0.000 N 
ATOM     22  C   UNL     1       0.902   9.889  21.566  0.00  0.00    +0.000 A 
ATOM     23  O   UNL     1       1.284   9.514  22.669  0.00  0.00    +0.000 OA
ATOM     24  C   UNL     1      -0.270  10.770  21.420  0.00  0.00    +0.000 A 
ATOM     25  C   UNL     1      -0.820  11.391  22.548  0.00  0.00    +0.000 A 
ATOM     26  C   UNL     1      -1.910  12.251  22.405  0.00  0.00    +0.000 A 
ATOM     27  C   UNL     1      -2.464  12.474  21.144  0.00  0.00    +0.000 A 
ATOM     28  C   UNL     1      -1.935  11.831  20.023  0.00  0.00    +0.000 A 
ATOM     29  C   UNL     1      -0.828  10.982  20.162  0.00  0.00    +0.000 A 
ATOM     30  C   UNL     1      -0.238  10.344  18.969  0.00  0.00    +0.000 A 
ATOM     31  O   UNL     1      -0.821  10.375  17.888  0.00  0.00    +0.000 OA
ATOM     32  H   UNL     1       2.213   8.757  20.506  0.00  0.00    +0.000 HD
ENDBRANCH  19  20
ENDBRANCH   2  19
TORSDOF 5
ENDMDL
