MODEL 1
REMARK VINA RESULT:      -9.4      0.000      0.000
REMARK  Name = 
REMARK  3 active torsions:
REMARK  status: ('A' for Active; 'I' for Inactive)
REMARK    1  A    between atoms: C_1  and  C_2
REMARK    2  A    between atoms: C_9  and  C_10
REMARK    3  A    between atoms: N_12  and  C_13
REMARK                            x       y       z     vdW  Elec       q    Type
REMARK                         _______ _______ _______ _____ _____    ______ ____
ROOT
ATOM      1  C   UNL     1       2.009   8.554  18.281  0.00  0.00    +0.000 C 
ATOM      2  O   UNL     1       2.211   9.002  17.157  0.00  0.00    +0.000 OA
ATOM      3  N   UNL     1       2.424   7.321  18.759  0.00  0.00    +0.000 N 
ATOM      4  H   UNL     1       2.021   7.001  19.630  0.00  0.00    +0.000 HD
ENDROOT
BRANCH   1  13
ATOM      5  C   UNL     1      -2.532  13.085  20.984  0.00  0.00    +0.000 C 
ATOM      6  C   UNL     1      -2.170  12.264  22.188  0.00  0.00    +0.000 C 
ATOM      7  O   UNL     1      -2.726  12.504  23.264  0.00  0.00    +0.000 OA
ATOM      8  N   UNL     1      -1.239  11.254  22.071  0.00  0.00    +0.000 N 
ATOM      9  C   UNL     1      -0.990  10.394  23.240  0.00  0.00    +0.000 C 
ATOM     10  C   UNL     1       0.156   9.450  22.885  0.00  0.00    +0.000 C 
ATOM     11  C   UNL     1       0.300   9.692  21.416  0.00  0.00    +0.000 A 
ATOM     12  C   UNL     1       1.122   8.988  20.546  0.00  0.00    +0.000 A 
ATOM     13  C   UNL     1       1.177   9.376  19.203  0.00  0.00    +0.000 A 
ATOM     14  C   UNL     1       0.410  10.468  18.763  0.00  0.00    +0.000 A 
ATOM     15  C   UNL     1      -0.424  11.167  19.658  0.00  0.00    +0.000 A 
ATOM     16  C   UNL     1      -0.483  10.767  20.986  0.00  0.00    +0.000 A 
ENDBRANCH   1  13
BRANCH   3  17
ATOM     17  C   UNL     1       3.183   6.371  18.031  0.00  0.00    +0.000 A 
ATOM     18  C   UNL     1       2.775   5.031  17.860  0.00  0.00    +0.000 A 
ATOM     19  C   UNL     1       3.579   4.102  17.187  0.00  0.00    +0.000 A 
ATOM     20  C   UNL     1       4.786   4.540  16.696  0.00  0.00    +0.000 A 
ATOM     21  C   UNL     1       5.183   5.850  16.830  0.00  0.00    +0.000 A 
ATOM     22  C   UNL     1       4.400   6.791  17.475  0.00  0.00    +0.000 A 
ATOM     23  O   UNL     1       6.409   6.075  16.283  0.00  0.00    +0.000 OA
ATOM     24  C   UNL     1       6.739   4.745  15.852  0.00  0.00    +0.000 C 
ATOM     25  F   UNL     1       7.053   4.782  14.534  0.00  0.00    +0.000 F 
ATOM     26  F   UNL     1       7.845   4.337  16.524  0.00  0.00    +0.000 F 
ATOM     27  O   UNL     1       5.703   3.775  16.048  0.00  0.00    +0.000 OA
ENDBRANCH   3  17
TORSDOF 2
ENDMDL
MODEL 2
REMARK VINA RESULT:      -9.0      1.084      1.129
REMARK  Name = 
REMARK  3 active torsions:
REMARK  status: ('A' for Active; 'I' for Inactive)
REMARK    1  A    between atoms: C_1  and  C_2
REMARK    2  A    between atoms: C_9  and  C_10
REMARK    3  A    between atoms: N_12  and  C_13
REMARK                            x       y       z     vdW  Elec       q    Type
REMARK                         _______ _______ _______ _____ _____    ______ ____
ROOT
ATOM      1  C   UNL     1       2.037   7.360  19.659  0.00  0.00    +0.000 C 
ATOM      2  O   UNL     1       2.221   6.464  20.475  0.00  0.00    +0.000 OA
ATOM      3  N   UNL     1       2.524   7.400  18.362  0.00  0.00    +0.000 N 
ATOM      4  H   UNL     1       2.463   8.283  17.869  0.00  0.00    +0.000 HD
ENDROOT
BRANCH   1  13
ATOM      5  C   UNL     1      -1.582  13.297  19.979  0.00  0.00    +0.000 C 
ATOM      6  C   UNL     1      -1.716  12.785  21.384  0.00  0.00    +0.000 C 
ATOM      7  O   UNL     1      -2.402  13.422  22.190  0.00  0.00    +0.000 OA
ATOM      8  N   UNL     1      -1.089  11.612  21.745  0.00  0.00    +0.000 N 
ATOM      9  C   UNL     1      -1.332  11.076  23.095  0.00  0.00    +0.000 C 
ATOM     10  C   UNL     1      -0.434   9.855  23.278  0.00  0.00    +0.000 C 
ATOM     11  C   UNL     1       0.076   9.647  21.887  0.00  0.00    +0.000 A 
ATOM     12  C   UNL     1       0.843   8.576  21.448  0.00  0.00    +0.000 A 
ATOM     13  C   UNL     1       1.282   8.558  20.120  0.00  0.00    +0.000 A 
ATOM     14  C   UNL     1       0.948   9.620  19.262  0.00  0.00    +0.000 A 
ATOM     15  C   UNL     1       0.163  10.696  19.724  0.00  0.00    +0.000 A 
ATOM     16  C   UNL     1      -0.280  10.699  21.039  0.00  0.00    +0.000 A 
ENDBRANCH   1  13
BRANCH   3  17
ATOM     17  C   UNL     1       3.302   6.389  17.744  0.00  0.00    +0.000 A 
ATOM     18  C   UNL     1       2.917   5.032  17.716  0.00  0.00    +0.000 A 
ATOM     19  C   UNL     1       3.739   4.050  17.151  0.00  0.00    +0.000 A 
ATOM     20  C   UNL     1       4.942   4.451  16.621  0.00  0.00    +0.000 A 
ATOM     21  C   UNL     1       5.317   5.775  16.615  0.00  0.00    +0.000 A 
ATOM     22  C   UNL     1       4.515   6.767  17.151  0.00  0.00    +0.000 A 
ATOM     23  O   UNL     1       6.542   5.960  16.052  0.00  0.00    +0.000 OA
ATOM     24  C   UNL     1       6.897   4.597  15.768  0.00  0.00    +0.000 C 
ATOM     25  F   UNL     1       7.217   4.496  14.455  0.00  0.00    +0.000 F 
ATOM     26  F   UNL     1       8.005   4.282  16.485  0.00  0.00    +0.000 F 
ATOM     27  O   UNL     1       5.875   3.636  16.064  0.00  0.00    +0.000 OA
ENDBRANCH   3  17
TORSDOF 2
ENDMDL
MODEL 3
REMARK VINA RESULT:      -8.9      0.757      1.834
REMARK  Name = 
REMARK  3 active torsions:
REMARK  status: ('A' for Active; 'I' for Inactive)
REMARK    1  A    between atoms: C_1  and  C_2
REMARK    2  A    between atoms: C_9  and  C_10
REMARK    3  A    between atoms: N_12  and  C_13
REMARK                            x       y       z     vdW  Elec       q    Type
REMARK                         _______ _______ _______ _____ _____    ______ ____
ROOT
ATOM      1  C   UNL     1       2.048   8.417  18.155  0.00  0.00    +0.000 C 
ATOM      2  O   UNL     1       2.505   8.933  17.140  0.00  0.00    +0.000 OA
ATOM      3  N   UNL     1       2.307   7.133  18.609  0.00  0.00    +0.000 N 
ATOM      4  H   UNL     1       1.713   6.772  19.345  0.00  0.00    +0.000 HD
ENDROOT
BRANCH   1  13
ATOM      5  C   UNL     1      -1.554  11.477  23.264  0.00  0.00    +0.000 C 
ATOM      6  C   UNL     1      -2.091  12.180  22.052  0.00  0.00    +0.000 C 
ATOM      7  O   UNL     1      -2.922  13.081  22.203  0.00  0.00    +0.000 OA
ATOM      8  N   UNL     1      -1.642  11.821  20.799  0.00  0.00    +0.000 N 
ATOM      9  C   UNL     1      -2.101  12.605  19.640  0.00  0.00    +0.000 C 
ATOM     10  C   UNL     1      -1.562  11.931  18.381  0.00  0.00    +0.000 C 
ATOM     11  C   UNL     1      -0.607  10.935  18.960  0.00  0.00    +0.000 A 
ATOM     12  C   UNL     1       0.270  10.130  18.246  0.00  0.00    +0.000 A 
ATOM     13  C   UNL     1       1.064   9.212  18.941  0.00  0.00    +0.000 A 
ATOM     14  C   UNL     1       0.955   9.115  20.338  0.00  0.00    +0.000 A 
ATOM     15  C   UNL     1       0.064   9.945  21.047  0.00  0.00    +0.000 A 
ATOM     16  C   UNL     1      -0.710  10.864  20.352  0.00  0.00    +0.000 A 
ENDBRANCH   1  13
BRANCH   3  17
ATOM     17  C   UNL     1       3.173   6.199  17.986  0.00  0.00    +0.000 A 
ATOM     18  C   UNL     1       2.813   4.855  17.754  0.00  0.00    +0.000 A 
ATOM     19  C   UNL     1       3.715   3.943  17.192  0.00  0.00    +0.000 A 
ATOM     20  C   UNL     1       4.971   4.402  16.872  0.00  0.00    +0.000 A 
ATOM     21  C   UNL     1       5.325   5.717  17.066  0.00  0.00    +0.000 A 
ATOM     22  C   UNL     1       4.447   6.642  17.603  0.00  0.00    +0.000 A 
ATOM     23  O   UNL     1       6.610   5.965  16.692  0.00  0.00    +0.000 OA
ATOM     24  C   UNL     1       7.017   4.643  16.303  0.00  0.00    +0.000 C 
ATOM     25  F   UNL     1       7.506   4.694  15.040  0.00  0.00    +0.000 F 
ATOM     26  F   UNL     1       8.028   4.247  17.117  0.00  0.00    +0.000 F 
ATOM     27  O   UNL     1       5.980   3.656  16.351  0.00  0.00    +0.000 OA
ENDBRANCH   3  17
TORSDOF 2
ENDMDL
MODEL 4
REMARK VINA RESULT:      -8.7      1.583      1.758
REMARK  Name = 
REMARK  3 active torsions:
REMARK  status: ('A' for Active; 'I' for Inactive)
REMARK    1  A    between atoms: C_1  and  C_2
REMARK    2  A    between atoms: C_9  and  C_10
REMARK    3  A    between atoms: N_12  and  C_13
REMARK                            x       y       z     vdW  Elec       q    Type
REMARK                         _______ _______ _______ _____ _____    ______ ____
ROOT
ATOM      1  C   UNL     1       2.560   7.137  18.936  0.00  0.00    +0.000 C 
ATOM      2  O   UNL     1       2.223   5.988  19.200  0.00  0.00    +0.000 OA
ATOM      3  N   UNL     1       3.682   7.518  18.216  0.00  0.00    +0.000 N 
ATOM      4  H   UNL     1       3.942   8.496  18.245  0.00  0.00    +0.000 HD
ENDROOT
BRANCH   1  13
ATOM      5  C   UNL     1      -1.654  12.615  19.770  0.00  0.00    +0.000 C 
ATOM      6  C   UNL     1      -1.565  12.084  21.171  0.00  0.00    +0.000 C 
ATOM      7  O   UNL     1      -2.222  12.635  22.061  0.00  0.00    +0.000 OA
ATOM      8  N   UNL     1      -0.770  10.990  21.439  0.00  0.00    +0.000 N 
ATOM      9  C   UNL     1      -0.794  10.424  22.798  0.00  0.00    +0.000 C 
ATOM     10  C   UNL     1       0.254   9.315  22.856  0.00  0.00    +0.000 C 
ATOM     11  C   UNL     1       0.620   9.173  21.413  0.00  0.00    +0.000 A 
ATOM     12  C   UNL     1       1.448   8.199  20.871  0.00  0.00    +0.000 A 
ATOM     13  C   UNL     1       1.730   8.238  19.501  0.00  0.00    +0.000 A 
ATOM     14  C   UNL     1       1.181   9.257  18.705  0.00  0.00    +0.000 A 
ATOM     15  C   UNL     1       0.337  10.233  19.273  0.00  0.00    +0.000 A 
ATOM     16  C   UNL     1       0.050  10.180  20.630  0.00  0.00    +0.000 A 
ENDBRANCH   1  13
BRANCH   3  17
ATOM     17  C   UNL     1       4.625   6.634  17.634  0.00  0.00    +0.000 A 
ATOM     18  C   UNL     1       5.537   5.873  18.396  0.00  0.00    +0.000 A 
ATOM     19  C   UNL     1       6.496   5.056  17.787  0.00  0.00    +0.000 A 
ATOM     20  C   UNL     1       6.522   5.018  16.412  0.00  0.00    +0.000 A 
ATOM     21  C   UNL     1       5.621   5.732  15.658  0.00  0.00    +0.000 A 
ATOM     22  C   UNL     1       4.652   6.533  16.236  0.00  0.00    +0.000 A 
ATOM     23  O   UNL     1       5.820   5.564  14.322  0.00  0.00    +0.000 OA
ATOM     24  C   UNL     1       6.979   4.715  14.347  0.00  0.00    +0.000 C 
ATOM     25  F   UNL     1       6.719   3.605  13.614  0.00  0.00    +0.000 F 
ATOM     26  F   UNL     1       8.005   5.370  13.746  0.00  0.00    +0.000 F 
ATOM     27  O   UNL     1       7.400   4.310  15.655  0.00  0.00    +0.000 OA
ENDBRANCH   3  17
TORSDOF 2
ENDMDL
MODEL 5
REMARK VINA RESULT:      -8.5      1.721      2.524
REMARK  Name = 
REMARK  3 active torsions:
REMARK  status: ('A' for Active; 'I' for Inactive)
REMARK    1  A    between atoms: C_1  and  C_2
REMARK    2  A    between atoms: C_9  and  C_10
REMARK    3  A    between atoms: N_12  and  C_13
REMARK                            x       y       z     vdW  Elec       q    Type
REMARK                         _______ _______ _______ _____ _____    ______ ____
ROOT
ATOM      1  C   UNL     1       2.760   6.859  19.124  0.00  0.00    +0.000 C 
ATOM      2  O   UNL     1       2.648   5.720  19.564  0.00  0.00    +0.000 OA
ATOM      3  N   UNL     1       3.716   7.299  18.221  0.00  0.00    +0.000 N 
ATOM      4  H   UNL     1       3.814   8.300  18.100  0.00  0.00    +0.000 HD
ENDROOT
BRANCH   1  13
ATOM      5  C   UNL     1      -1.240  10.797  23.241  0.00  0.00    +0.000 C 
ATOM      6  C   UNL     1      -1.208  11.611  21.981  0.00  0.00    +0.000 C 
ATOM      7  O   UNL     1      -1.786  12.702  21.960  0.00  0.00    +0.000 OA
ATOM      8  N   UNL     1      -0.527  11.139  20.879  0.00  0.00    +0.000 N 
ATOM      9  C   UNL     1      -0.417  12.011  19.698  0.00  0.00    +0.000 C 
ATOM     10  C   UNL     1       0.268  11.211  18.593  0.00  0.00    +0.000 C 
ATOM     11  C   UNL     1       0.727  10.000  19.341  0.00  0.00    +0.000 A 
ATOM     12  C   UNL     1       1.534   8.986  18.842  0.00  0.00    +0.000 A 
ATOM     13  C   UNL     1       1.832   7.892  19.662  0.00  0.00    +0.000 A 
ATOM     14  C   UNL     1       1.307   7.835  20.964  0.00  0.00    +0.000 A 
ATOM     15  C   UNL     1       0.494   8.877  21.456  0.00  0.00    +0.000 A 
ATOM     16  C   UNL     1       0.215   9.965  20.641  0.00  0.00    +0.000 A 
ENDBRANCH   1  13
BRANCH   3  17
ATOM     17  C   UNL     1       4.719   6.492  17.627  0.00  0.00    +0.000 A 
ATOM     18  C   UNL     1       5.712   5.826  18.375  0.00  0.00    +0.000 A 
ATOM     19  C   UNL     1       6.724   5.087  17.751  0.00  0.00    +0.000 A 
ATOM     20  C   UNL     1       6.720   5.031  16.377  0.00  0.00    +0.000 A 
ATOM     21  C   UNL     1       5.741   5.652  15.637  0.00  0.00    +0.000 A 
ATOM     22  C   UNL     1       4.720   6.374  16.230  0.00  0.00    +0.000 A 
ATOM     23  O   UNL     1       5.922   5.483  14.298  0.00  0.00    +0.000 OA
ATOM     24  C   UNL     1       7.151   4.739  14.304  0.00  0.00    +0.000 C 
ATOM     25  F   UNL     1       6.972   3.600  13.592  0.00  0.00    +0.000 F 
ATOM     26  F   UNL     1       8.101   5.472  13.670  0.00  0.00    +0.000 F 
ATOM     27  O   UNL     1       7.638   4.392  15.606  0.00  0.00    +0.000 OA
ENDBRANCH   3  17
TORSDOF 2
ENDMDL
MODEL 6
REMARK VINA RESULT:      -8.4      1.218      1.987
REMARK  Name = 
REMARK  3 active torsions:
REMARK  status: ('A' for Active; 'I' for Inactive)
REMARK    1  A    between atoms: C_1  and  C_2
REMARK    2  A    between atoms: C_9  and  C_10
REMARK    3  A    between atoms: N_12  and  C_13
REMARK                            x       y       z     vdW  Elec       q    Type
REMARK                         _______ _______ _______ _____ _____    ______ ____
ROOT
ATOM      1  C   UNL     1       1.967   7.494  19.703  0.00  0.00    +0.000 C 
ATOM      2  O   UNL     1       2.268   6.693  20.582  0.00  0.00    +0.000 OA
ATOM      3  N   UNL     1       2.380   7.453  18.380  0.00  0.00    +0.000 N 
ATOM      4  H   UNL     1       2.221   8.281  17.818  0.00  0.00    +0.000 HD
ENDROOT
BRANCH   1  13
ATOM      5  C   UNL     1      -1.883  12.103  23.223  0.00  0.00    +0.000 C 
ATOM      6  C   UNL     1      -1.584  12.858  21.961  0.00  0.00    +0.000 C 
ATOM      7  O   UNL     1      -1.992  14.019  21.849  0.00  0.00    +0.000 OA
ATOM      8  N   UNL     1      -0.853  12.255  20.961  0.00  0.00    +0.000 N 
ATOM      9  C   UNL     1      -0.479  13.060  19.785  0.00  0.00    +0.000 C 
ATOM     10  C   UNL     1       0.209  12.131  18.788  0.00  0.00    +0.000 C 
ATOM     11  C   UNL     1       0.397  10.895  19.609  0.00  0.00    +0.000 A 
ATOM     12  C   UNL     1       1.103   9.761  19.232  0.00  0.00    +0.000 A 
ATOM     13  C   UNL     1       1.140   8.667  20.103  0.00  0.00    +0.000 A 
ATOM     14  C   UNL     1       0.462   8.732  21.332  0.00  0.00    +0.000 A 
ATOM     15  C   UNL     1      -0.244   9.894  21.701  0.00  0.00    +0.000 A 
ATOM     16  C   UNL     1      -0.265  10.981  20.837  0.00  0.00    +0.000 A 
ENDBRANCH   1  13
BRANCH   3  17
ATOM     17  C   UNL     1       3.206   6.454  17.807  0.00  0.00    +0.000 A 
ATOM     18  C   UNL     1       2.834   5.094  17.743  0.00  0.00    +0.000 A 
ATOM     19  C   UNL     1       3.700   4.124  17.225  0.00  0.00    +0.000 A 
ATOM     20  C   UNL     1       4.932   4.539  16.779  0.00  0.00    +0.000 A 
ATOM     21  C   UNL     1       5.296   5.865  16.808  0.00  0.00    +0.000 A 
ATOM     22  C   UNL     1       4.452   6.847  17.299  0.00  0.00    +0.000 A 
ATOM     23  O   UNL     1       6.554   6.065  16.329  0.00  0.00    +0.000 OA
ATOM     24  C   UNL     1       6.937   4.708  16.058  0.00  0.00    +0.000 C 
ATOM     25  F   UNL     1       7.344   4.621  14.768  0.00  0.00    +0.000 F 
ATOM     26  F   UNL     1       7.999   4.395  16.844  0.00  0.00    +0.000 F 
ATOM     27  O   UNL     1       5.907   3.736  16.278  0.00  0.00    +0.000 OA
ENDBRANCH   3  17
TORSDOF 2
ENDMDL
MODEL 7
REMARK VINA RESULT:      -8.4      7.241      9.095
REMARK  Name = 
REMARK  3 active torsions:
REMARK  status: ('A' for Active; 'I' for Inactive)
REMARK    1  A    between atoms: C_1  and  C_2
REMARK    2  A    between atoms: C_9  and  C_10
REMARK    3  A    between atoms: N_12  and  C_13
REMARK                            x       y       z     vdW  Elec       q    Type
REMARK                         _______ _______ _______ _____ _____    ______ ____
ROOT
ATOM      1  C   UNL     1       8.893  10.110  18.699  0.00  0.00    +0.000 C 
ATOM      2  O   UNL     1       9.222   9.716  19.814  0.00  0.00    +0.000 OA
ATOM      3  N   UNL     1       8.232   9.370  17.731  0.00  0.00    +0.000 N 
ATOM      4  H   UNL     1       8.202   9.753  16.794  0.00  0.00    +0.000 HD
ENDROOT
BRANCH   1  13
ATOM      5  C   UNL     1       9.304  17.012  17.899  0.00  0.00    +0.000 C 
ATOM      6  C   UNL     1      10.641  16.567  17.382  0.00  0.00    +0.000 C 
ATOM      7  O   UNL     1      11.455  17.421  17.016  0.00  0.00    +0.000 OA
ATOM      8  N   UNL     1      10.943  15.223  17.338  0.00  0.00    +0.000 N 
ATOM      9  C   UNL     1      12.302  14.824  16.934  0.00  0.00    +0.000 C 
ATOM     10  C   UNL     1      12.333  13.301  16.851  0.00  0.00    +0.000 C 
ATOM     11  C   UNL     1      11.022  12.940  17.473  0.00  0.00    +0.000 A 
ATOM     12  C   UNL     1      10.585  11.657  17.777  0.00  0.00    +0.000 A 
ATOM     13  C   UNL     1       9.304  11.489  18.314  0.00  0.00    +0.000 A 
ATOM     14  C   UNL     1       8.485  12.611  18.528  0.00  0.00    +0.000 A 
ATOM     15  C   UNL     1       8.948  13.905  18.219  0.00  0.00    +0.000 A 
ATOM     16  C   UNL     1      10.226  14.066  17.700  0.00  0.00    +0.000 A 
ENDBRANCH   1  13
BRANCH   3  17
ATOM     17  C   UNL     1       7.796   8.029  17.876  0.00  0.00    +0.000 A 
ATOM     18  C   UNL     1       8.332   7.147  18.838  0.00  0.00    +0.000 A 
ATOM     19  C   UNL     1       7.921   5.810  18.913  0.00  0.00    +0.000 A 
ATOM     20  C   UNL     1       6.973   5.382  18.013  0.00  0.00    +0.000 A 
ATOM     21  C   UNL     1       6.422   6.239  17.090  0.00  0.00    +0.000 A 
ATOM     22  C   UNL     1       6.797   7.568  17.006  0.00  0.00    +0.000 A 
ATOM     23  O   UNL     1       5.511   5.618  16.291  0.00  0.00    +0.000 OA
ATOM     24  C   UNL     1       5.611   4.276  16.792  0.00  0.00    +0.000 C 
ATOM     25  F   UNL     1       4.374   3.849  17.142  0.00  0.00    +0.000 F 
ATOM     26  F   UNL     1       6.052   3.474  15.790  0.00  0.00    +0.000 F 
ATOM     27  O   UNL     1       6.483   4.118  17.919  0.00  0.00    +0.000 OA
ENDBRANCH   3  17
TORSDOF 2
ENDMDL
MODEL 8
REMARK VINA RESULT:      -8.4      1.225      1.767
REMARK  Name = 
REMARK  3 active torsions:
REMARK  status: ('A' for Active; 'I' for Inactive)
REMARK    1  A    between atoms: C_1  and  C_2
REMARK    2  A    between atoms: C_9  and  C_10
REMARK    3  A    between atoms: N_12  and  C_13
REMARK                            x       y       z     vdW  Elec       q    Type
REMARK                         _______ _______ _______ _____ _____    ______ ____
ROOT
ATOM      1  C   UNL     1       1.929   8.905  18.280  0.00  0.00    +0.000 C 
ATOM      2  O   UNL     1       1.978   9.231  17.099  0.00  0.00    +0.000 OA
ATOM      3  N   UNL     1       2.410   7.725  18.825  0.00  0.00    +0.000 N 
ATOM      4  H   UNL     1       2.126   7.501  19.772  0.00  0.00    +0.000 HD
ENDROOT
BRANCH   1  13
ATOM      5  C   UNL     1      -2.008  11.600  23.349  0.00  0.00    +0.000 C 
ATOM      6  C   UNL     1      -1.222  12.799  22.906  0.00  0.00    +0.000 C 
ATOM      7  O   UNL     1      -1.383  13.871  23.497  0.00  0.00    +0.000 OA
ATOM      8  N   UNL     1      -0.329  12.683  21.862  0.00  0.00    +0.000 N 
ATOM      9  C   UNL     1       0.509  13.846  21.526  0.00  0.00    +0.000 C 
ATOM     10  C   UNL     1       1.308  13.495  20.273  0.00  0.00    +0.000 C 
ATOM     11  C   UNL     1       1.034  12.031  20.143  0.00  0.00    +0.000 A 
ATOM     12  C   UNL     1       1.628  11.164  19.236  0.00  0.00    +0.000 A 
ATOM     13  C   UNL     1       1.221   9.825  19.213  0.00  0.00    +0.000 A 
ATOM     14  C   UNL     1       0.221   9.387  20.097  0.00  0.00    +0.000 A 
ATOM     15  C   UNL     1      -0.365  10.280  21.017  0.00  0.00    +0.000 A 
ATOM     16  C   UNL     1       0.054  11.603  21.043  0.00  0.00    +0.000 A 
ENDBRANCH   1  13
BRANCH   3  17
ATOM     17  C   UNL     1       3.071   6.697  18.108  0.00  0.00    +0.000 A 
ATOM     18  C   UNL     1       2.609   5.364  18.074  0.00  0.00    +0.000 A 
ATOM     19  C   UNL     1       3.321   4.361  17.406  0.00  0.00    +0.000 A 
ATOM     20  C   UNL     1       4.492   4.717  16.780  0.00  0.00    +0.000 A 
ATOM     21  C   UNL     1       4.939   6.017  16.780  0.00  0.00    +0.000 A 
ATOM     22  C   UNL     1       4.246   7.031  17.418  0.00  0.00    +0.000 A 
ATOM     23  O   UNL     1       6.117   6.157  16.113  0.00  0.00    +0.000 OA
ATOM     24  C   UNL     1       6.367   4.788  15.757  0.00  0.00    +0.000 C 
ATOM     25  F   UNL     1       6.562   4.718  14.417  0.00  0.00    +0.000 F 
ATOM     26  F   UNL     1       7.516   4.390  16.359  0.00  0.00    +0.000 F 
ATOM     27  O   UNL     1       5.324   3.873  16.115  0.00  0.00    +0.000 OA
ENDBRANCH   3  17
TORSDOF 2
ENDMDL
MODEL 9
REMARK VINA RESULT:      -8.3      6.347      8.042
REMARK  Name = 
REMARK  3 active torsions:
REMARK  status: ('A' for Active; 'I' for Inactive)
REMARK    1  A    between atoms: C_1  and  C_2
REMARK    2  A    between atoms: C_9  and  C_10
REMARK    3  A    between atoms: N_12  and  C_13
REMARK                            x       y       z     vdW  Elec       q    Type
REMARK                         _______ _______ _______ _____ _____    ______ ____
ROOT
ATOM      1  C   UNL     1       8.171   8.373  18.317  0.00  0.00    +0.000 C 
ATOM      2  O   UNL     1       8.700   7.563  19.070  0.00  0.00    +0.000 OA
ATOM      3  N   UNL     1       7.219   8.093  17.349  0.00  0.00    +0.000 N 
ATOM      4  H   UNL     1       7.018   8.818  16.671  0.00  0.00    +0.000 HD
ENDROOT
BRANCH   1  13
ATOM      5  C   UNL     1       8.864  15.264  17.619  0.00  0.00    +0.000 C 
ATOM      6  C   UNL     1       9.864  14.967  18.699  0.00  0.00    +0.000 C 
ATOM      7  O   UNL     1      10.487  15.902  19.210  0.00  0.00    +0.000 OA
ATOM      8  N   UNL     1      10.059  13.666  19.109  0.00  0.00    +0.000 N 
ATOM      9  C   UNL     1      10.961  13.419  20.247  0.00  0.00    +0.000 C 
ATOM     10  C   UNL     1      11.094  11.907  20.413  0.00  0.00    +0.000 C 
ATOM     11  C   UNL     1      10.031  11.409  19.487  0.00  0.00    +0.000 A 
ATOM     12  C   UNL     1       9.621  10.090  19.345  0.00  0.00    +0.000 A 
ATOM     13  C   UNL     1       8.642   9.784  18.393  0.00  0.00    +0.000 A 
ATOM     14  C   UNL     1       8.101  10.808  17.598  0.00  0.00    +0.000 A 
ATOM     15  C   UNL     1       8.524  12.143  17.761  0.00  0.00    +0.000 A 
ATOM     16  C   UNL     1       9.485  12.440  18.717  0.00  0.00    +0.000 A 
ENDBRANCH   1  13
BRANCH   3  17
ATOM     17  C   UNL     1       6.671   6.813  17.080  0.00  0.00    +0.000 A 
ATOM     18  C   UNL     1       7.178   5.954  16.082  0.00  0.00    +0.000 A 
ATOM     19  C   UNL     1       6.575   4.723  15.802  0.00  0.00    +0.000 A 
ATOM     20  C   UNL     1       5.464   4.374  16.534  0.00  0.00    +0.000 A 
ATOM     21  C   UNL     1       4.976   5.189  17.529  0.00  0.00    +0.000 A 
ATOM     22  C   UNL     1       5.565   6.403  17.838  0.00  0.00    +0.000 A 
ATOM     23  O   UNL     1       3.870   4.667  18.126  0.00  0.00    +0.000 OA
ATOM     24  C   UNL     1       3.705   3.472  17.346  0.00  0.00    +0.000 C 
ATOM     25  F   UNL     1       3.654   2.410  18.185  0.00  0.00    +0.000 F 
ATOM     26  F   UNL     1       2.513   3.541  16.700  0.00  0.00    +0.000 F 
ATOM     27  O   UNL     1       4.735   3.239  16.377  0.00  0.00    +0.000 OA
ENDBRANCH   3  17
TORSDOF 2
ENDMDL
