MODEL 1
REMARK VINA RESULT:      -8.5      0.000      0.000
REMARK  Name = 
REMARK  2 active torsions:
REMARK  status: ('A' for Active; 'I' for Inactive)
REMARK    1  A    between atoms: C_8  and  N_9
REMARK    2  A    between atoms: C_18  and  C_19
REMARK                            x       y       z     vdW  Elec       q    Type
REMARK                         _______ _______ _______ _____ _____    ______ ____
ROOT
ATOM      1  N   UNL     1       1.896   6.798  18.790  0.00  0.00    +0.000 N 
ATOM      2  C   UNL     1       3.091   6.119  18.953  0.00  0.00    +0.000 C 
ATOM      3  O   UNL     1       4.063   6.576  19.547  0.00  0.00    +0.000 OA
ATOM      4  N   UNL     1       3.094   4.817  18.424  0.00  0.00    +0.000 N 
ATOM      5  C   UNL     1       2.013   4.260  17.613  0.00  0.00    +0.000 C 
ATOM      6  C   UNL     1       0.963   3.580  18.483  0.00  0.00    +0.000 C 
ATOM      7  C   UNL     1       1.396   2.197  18.964  0.00  0.00    +0.000 C 
ATOM      8  C   UNL     1       2.692   2.181  19.777  0.00  0.00    +0.000 C 
ATOM      9  C   UNL     1       3.936   2.462  18.927  0.00  0.00    +0.000 C 
ATOM     10  C   UNL     1       4.260   3.962  18.724  0.00  0.00    +0.000 C 
ATOM     11  H   UNL     1       1.095   6.235  18.567  0.00  0.00    +0.000 HD
ENDROOT
BRANCH   1  19
ATOM     12  O   UNL     1       0.487  13.103  19.642  0.00  0.00    +0.000 OA
ATOM     13  C   UNL     1       0.572  12.056  20.248  0.00  0.00    +0.000 C 
ATOM     14  N   UNL     1       0.301  11.813  21.561  0.00  0.00    +0.000 N 
ATOM     15  C   UNL     1       0.498  10.509  21.898  0.00  0.00    +0.000 C 
ATOM     16  O   UNL     1       0.346   9.995  22.987  0.00  0.00    +0.000 OA
ATOM     17  C   UNL     1       0.930   9.828  20.679  0.00  0.00    +0.000 A 
ATOM     18  C   UNL     1       1.240   8.498  20.462  0.00  0.00    +0.000 A 
ATOM     19  C   UNL     1       1.599   8.126  19.164  0.00  0.00    +0.000 A 
ATOM     20  C   UNL     1       1.680   9.109  18.142  0.00  0.00    +0.000 A 
ATOM     21  C   UNL     1       1.363  10.450  18.388  0.00  0.00    +0.000 A 
ATOM     22  C   UNL     1       0.983  10.774  19.672  0.00  0.00    +0.000 A 
ATOM     23  H   UNL     1      -0.010  12.519  22.209  0.00  0.00    +0.000 HD
ENDBRANCH   1  19
BRANCH  10  24
ATOM     24  C   UNL     1       5.356   4.145  17.675  0.00  0.00    +0.000 A 
ATOM     25  C   UNL     1       5.146   3.858  16.320  0.00  0.00    +0.000 A 
ATOM     26  C   UNL     1       6.163   4.095  15.409  0.00  0.00    +0.000 A 
ATOM     27  N   UNL     1       7.375   4.575  15.747  0.00  0.00    +0.000 NA
ATOM     28  C   UNL     1       7.573   4.834  17.058  0.00  0.00    +0.000 A 
ATOM     29  C   UNL     1       6.614   4.639  18.043  0.00  0.00    +0.000 A 
ENDBRANCH  10  24
TORSDOF 2
ENDMDL
MODEL 2
REMARK VINA RESULT:      -8.0      2.353      8.158
REMARK  Name = 
REMARK  2 active torsions:
REMARK  status: ('A' for Active; 'I' for Inactive)
REMARK    1  A    between atoms: C_8  and  N_9
REMARK    2  A    between atoms: C_18  and  C_19
REMARK                            x       y       z     vdW  Elec       q    Type
REMARK                         _______ _______ _______ _____ _____    ______ ____
ROOT
ATOM      1  N   UNL     1       1.714   7.850  20.555  0.00  0.00    +0.000 N 
ATOM      2  C   UNL     1       1.327   9.030  19.945  0.00  0.00    +0.000 C 
ATOM      3  O   UNL     1       1.185   9.161  18.734  0.00  0.00    +0.000 OA
ATOM      4  N   UNL     1       1.051  10.080  20.839  0.00  0.00    +0.000 N 
ATOM      5  C   UNL     1       1.309  10.020  22.277  0.00  0.00    +0.000 C 
ATOM      6  C   UNL     1       0.107   9.465  23.031  0.00  0.00    +0.000 C 
ATOM      7  C   UNL     1      -1.007  10.492  23.212  0.00  0.00    +0.000 C 
ATOM      8  C   UNL     1      -1.560  11.071  21.907  0.00  0.00    +0.000 C 
ATOM      9  C   UNL     1      -0.574  12.011  21.205  0.00  0.00    +0.000 C 
ATOM     10  C   UNL     1       0.452  11.309  20.283  0.00  0.00    +0.000 C 
ATOM     11  H   UNL     1       1.509   7.770  21.535  0.00  0.00    +0.000 HD
ENDROOT
BRANCH   1  19
ATOM     12  O   UNL     1       2.836   1.907  18.128  0.00  0.00    +0.000 OA
ATOM     13  C   UNL     1       3.152   3.070  17.985  0.00  0.00    +0.000 C 
ATOM     14  N   UNL     1       3.981   3.613  17.050  0.00  0.00    +0.000 N 
ATOM     15  C   UNL     1       4.098   4.963  17.184  0.00  0.00    +0.000 C 
ATOM     16  O   UNL     1       4.765   5.718  16.507  0.00  0.00    +0.000 OA
ATOM     17  C   UNL     1       3.252   5.341  18.314  0.00  0.00    +0.000 A 
ATOM     18  C   UNL     1       2.993   6.586  18.858  0.00  0.00    +0.000 A 
ATOM     19  C   UNL     1       2.103   6.644  19.933  0.00  0.00    +0.000 A 
ATOM     20  C   UNL     1       1.543   5.448  20.455  0.00  0.00    +0.000 A 
ATOM     21  C   UNL     1       1.823   4.199  19.887  0.00  0.00    +0.000 A 
ATOM     22  C   UNL     1       2.679   4.184  18.808  0.00  0.00    +0.000 A 
ATOM     23  H   UNL     1       4.452   3.077  16.340  0.00  0.00    +0.000 HD
ENDBRANCH   1  19
BRANCH  10  24
ATOM     24  C   UNL     1       1.533  12.287  19.827  0.00  0.00    +0.000 A 
ATOM     25  C   UNL     1       1.950  12.368  18.491  0.00  0.00    +0.000 A 
ATOM     26  C   UNL     1       2.897  13.313  18.131  0.00  0.00    +0.000 A 
ATOM     27  N   UNL     1       3.473  14.166  18.999  0.00  0.00    +0.000 NA
ATOM     28  C   UNL     1       3.075  14.071  20.286  0.00  0.00    +0.000 A 
ATOM     29  C   UNL     1       2.128  13.164  20.742  0.00  0.00    +0.000 A 
ENDBRANCH  10  24
TORSDOF 2
ENDMDL
MODEL 3
REMARK VINA RESULT:      -7.9      0.933      1.787
REMARK  Name = 
REMARK  2 active torsions:
REMARK  status: ('A' for Active; 'I' for Inactive)
REMARK    1  A    between atoms: C_8  and  N_9
REMARK    2  A    between atoms: C_18  and  C_19
REMARK                            x       y       z     vdW  Elec       q    Type
REMARK                         _______ _______ _______ _____ _____    ______ ____
ROOT
ATOM      1  N   UNL     1       1.886   6.746  18.933  0.00  0.00    +0.000 N 
ATOM      2  C   UNL     1       3.072   6.045  19.059  0.00  0.00    +0.000 C 
ATOM      3  O   UNL     1       4.045   6.450  19.687  0.00  0.00    +0.000 OA
ATOM      4  N   UNL     1       3.063   4.780  18.445  0.00  0.00    +0.000 N 
ATOM      5  C   UNL     1       1.982   4.291  17.591  0.00  0.00    +0.000 C 
ATOM      6  C   UNL     1       0.919   3.567  18.409  0.00  0.00    +0.000 C 
ATOM      7  C   UNL     1       1.333   2.151  18.800  0.00  0.00    +0.000 C 
ATOM      8  C   UNL     1       2.623   2.066  19.618  0.00  0.00    +0.000 C 
ATOM      9  C   UNL     1       3.875   2.388  18.797  0.00  0.00    +0.000 C 
ATOM     10  C   UNL     1       4.218   3.894  18.694  0.00  0.00    +0.000 C 
ATOM     11  H   UNL     1       1.079   6.209  18.668  0.00  0.00    +0.000 HD
ENDROOT
BRANCH   1  19
ATOM     12  O   UNL     1       0.465  12.396  21.855  0.00  0.00    +0.000 OA
ATOM     13  C   UNL     1       0.892  11.943  20.813  0.00  0.00    +0.000 C 
ATOM     14  N   UNL     1       1.338  12.617  19.717  0.00  0.00    +0.000 N 
ATOM     15  C   UNL     1       1.756  11.779  18.728  0.00  0.00    +0.000 C 
ATOM     16  O   UNL     1       2.198  12.082  17.639  0.00  0.00    +0.000 OA
ATOM     17  C   UNL     1       1.573  10.421  19.234  0.00  0.00    +0.000 A 
ATOM     18  C   UNL     1       1.859   9.202  18.644  0.00  0.00    +0.000 A 
ATOM     19  C   UNL     1       1.601   8.051  19.392  0.00  0.00    +0.000 A 
ATOM     20  C   UNL     1       1.023   8.160  20.685  0.00  0.00    +0.000 A 
ATOM     21  C   UNL     1       0.742   9.405  21.259  0.00  0.00    +0.000 A 
ATOM     22  C   UNL     1       1.038  10.519  20.505  0.00  0.00    +0.000 A 
ATOM     23  H   UNL     1       1.359  13.622  19.646  0.00  0.00    +0.000 HD
ENDBRANCH   1  19
BRANCH  10  24
ATOM     24  C   UNL     1       5.323   4.132  17.667  0.00  0.00    +0.000 A 
ATOM     25  C   UNL     1       5.140   3.875  16.302  0.00  0.00    +0.000 A 
ATOM     26  C   UNL     1       6.163   4.162  15.413  0.00  0.00    +0.000 A 
ATOM     27  N   UNL     1       7.357   4.665  15.780  0.00  0.00    +0.000 NA
ATOM     28  C   UNL     1       7.529   4.896  17.100  0.00  0.00    +0.000 A 
ATOM     29  C   UNL     1       6.562   4.650  18.065  0.00  0.00    +0.000 A 
ENDBRANCH  10  24
TORSDOF 2
ENDMDL
MODEL 4
REMARK VINA RESULT:      -7.8      2.738      8.071
REMARK  Name = 
REMARK  2 active torsions:
REMARK  status: ('A' for Active; 'I' for Inactive)
REMARK    1  A    between atoms: C_8  and  N_9
REMARK    2  A    between atoms: C_18  and  C_19
REMARK                            x       y       z     vdW  Elec       q    Type
REMARK                         _______ _______ _______ _____ _____    ______ ____
ROOT
ATOM      1  N   UNL     1       1.608   7.920  20.656  0.00  0.00    +0.000 N 
ATOM      2  C   UNL     1       1.255   9.092  20.009  0.00  0.00    +0.000 C 
ATOM      3  O   UNL     1       1.143   9.195  18.791  0.00  0.00    +0.000 OA
ATOM      4  N   UNL     1       0.976  10.166  20.870  0.00  0.00    +0.000 N 
ATOM      5  C   UNL     1       1.198  10.138  22.315  0.00  0.00    +0.000 C 
ATOM      6  C   UNL     1      -0.031   9.620  23.053  0.00  0.00    +0.000 C 
ATOM      7  C   UNL     1      -1.131  10.670  23.182  0.00  0.00    +0.000 C 
ATOM      8  C   UNL     1      -1.643  11.226  21.851  0.00  0.00    +0.000 C 
ATOM      9  C   UNL     1      -0.626  12.132  21.151  0.00  0.00    +0.000 C 
ATOM     10  C   UNL     1       0.410  11.391  20.270  0.00  0.00    +0.000 C 
ATOM     11  H   UNL     1       1.378   7.868  21.632  0.00  0.00    +0.000 HD
ENDROOT
BRANCH   1  19
ATOM     12  O   UNL     1       3.928   2.741  17.452  0.00  0.00    +0.000 OA
ATOM     13  C   UNL     1       3.259   3.042  18.418  0.00  0.00    +0.000 C 
ATOM     14  N   UNL     1       2.703   2.221  19.352  0.00  0.00    +0.000 N 
ATOM     15  C   UNL     1       2.021   2.911  20.309  0.00  0.00    +0.000 C 
ATOM     16  O   UNL     1       1.420   2.458  21.260  0.00  0.00    +0.000 OA
ATOM     17  C   UNL     1       2.155   4.326  19.971  0.00  0.00    +0.000 A 
ATOM     18  C   UNL     1       1.675   5.448  20.622  0.00  0.00    +0.000 A 
ATOM     19  C   UNL     1       1.992   6.694  20.073  0.00  0.00    +0.000 A 
ATOM     20  C   UNL     1       2.736   6.767  18.865  0.00  0.00    +0.000 A 
ATOM     21  C   UNL     1       3.209   5.615  18.224  0.00  0.00    +0.000 A 
ATOM     22  C   UNL     1       2.905   4.407  18.812  0.00  0.00    +0.000 A 
ATOM     23  H   UNL     1       2.787   1.217  19.338  0.00  0.00    +0.000 HD
ENDBRANCH   1  19
BRANCH  10  24
ATOM     24  C   UNL     1       1.517  12.341  19.817  0.00  0.00    +0.000 A 
ATOM     25  C   UNL     1       1.921  12.429  18.478  0.00  0.00    +0.000 A 
ATOM     26  C   UNL     1       2.895  13.349  18.121  0.00  0.00    +0.000 A 
ATOM     27  N   UNL     1       3.508  14.168  18.996  0.00  0.00    +0.000 NA
ATOM     28  C   UNL     1       3.122  14.065  20.286  0.00  0.00    +0.000 A 
ATOM     29  C   UNL     1       2.151  13.183  20.739  0.00  0.00    +0.000 A 
ENDBRANCH  10  24
TORSDOF 2
ENDMDL
MODEL 5
REMARK VINA RESULT:      -7.8      0.883      1.984
REMARK  Name = 
REMARK  2 active torsions:
REMARK  status: ('A' for Active; 'I' for Inactive)
REMARK    1  A    between atoms: C_8  and  N_9
REMARK    2  A    between atoms: C_18  and  C_19
REMARK                            x       y       z     vdW  Elec       q    Type
REMARK                         _______ _______ _______ _____ _____    ______ ____
ROOT
ATOM      1  N   UNL     1       1.796   6.643  19.138  0.00  0.00    +0.000 N 
ATOM      2  C   UNL     1       3.061   6.083  19.119  0.00  0.00    +0.000 C 
ATOM      3  O   UNL     1       4.026   6.549  19.717  0.00  0.00    +0.000 OA
ATOM      4  N   UNL     1       3.152   4.883  18.392  0.00  0.00    +0.000 N 
ATOM      5  C   UNL     1       2.072   4.339  17.571  0.00  0.00    +0.000 C 
ATOM      6  C   UNL     1       1.165   3.425  18.385  0.00  0.00    +0.000 C 
ATOM      7  C   UNL     1       1.768   2.041  18.615  0.00  0.00    +0.000 C 
ATOM      8  C   UNL     1       3.118   2.045  19.336  0.00  0.00    +0.000 C 
ATOM      9  C   UNL     1       4.258   2.586  18.467  0.00  0.00    +0.000 C 
ATOM     10  C   UNL     1       4.417   4.125  18.482  0.00  0.00    +0.000 C 
ATOM     11  H   UNL     1       1.039   6.036  18.877  0.00  0.00    +0.000 HD
ENDROOT
BRANCH   1  19
ATOM     12  O   UNL     1      -0.032  11.813  22.658  0.00  0.00    +0.000 OA
ATOM     13  C   UNL     1       0.357  11.504  21.551  0.00  0.00    +0.000 C 
ATOM     14  N   UNL     1       0.628  12.315  20.492  0.00  0.00    +0.000 N 
ATOM     15  C   UNL     1       1.057  11.620  19.402  0.00  0.00    +0.000 C 
ATOM     16  O   UNL     1       1.367  12.063  18.317  0.00  0.00    +0.000 OA
ATOM     17  C   UNL     1       1.078  10.212  19.794  0.00  0.00    +0.000 A 
ATOM     18  C   UNL     1       1.455   9.091  19.076  0.00  0.00    +0.000 A 
ATOM     19  C   UNL     1       1.399   7.859  19.733  0.00  0.00    +0.000 A 
ATOM     20  C   UNL     1       0.922   7.790  21.069  0.00  0.00    +0.000 A 
ATOM     21  C   UNL     1       0.546   8.939  21.774  0.00  0.00    +0.000 A 
ATOM     22  C   UNL     1       0.644  10.139  21.105  0.00  0.00    +0.000 A 
ATOM     23  H   UNL     1       0.524  13.317  20.511  0.00  0.00    +0.000 HD
ENDBRANCH   1  19
BRANCH  10  24
ATOM     24  C   UNL     1       5.405   4.582  17.411  0.00  0.00    +0.000 A 
ATOM     25  C   UNL     1       6.339   5.601  17.643  0.00  0.00    +0.000 A 
ATOM     26  C   UNL     1       7.244   5.933  16.649  0.00  0.00    +0.000 A 
ATOM     27  N   UNL     1       7.278   5.345  15.438  0.00  0.00    +0.000 NA
ATOM     28  C   UNL     1       6.365   4.374  15.219  0.00  0.00    +0.000 A 
ATOM     29  C   UNL     1       5.424   3.965  16.154  0.00  0.00    +0.000 A 
ENDBRANCH  10  24
TORSDOF 2
ENDMDL
MODEL 6
REMARK VINA RESULT:      -7.5      1.741      3.509
REMARK  Name = 
REMARK  2 active torsions:
REMARK  status: ('A' for Active; 'I' for Inactive)
REMARK    1  A    between atoms: C_8  and  N_9
REMARK    2  A    between atoms: C_18  and  C_19
REMARK                            x       y       z     vdW  Elec       q    Type
REMARK                         _______ _______ _______ _____ _____    ______ ____
ROOT
ATOM      1  N   UNL     1       2.688   7.686  18.602  0.00  0.00    +0.000 N 
ATOM      2  C   UNL     1       2.505   6.317  18.503  0.00  0.00    +0.000 C 
ATOM      3  O   UNL     1       1.412   5.765  18.580  0.00  0.00    +0.000 OA
ATOM      4  N   UNL     1       3.683   5.593  18.250  0.00  0.00    +0.000 N 
ATOM      5  C   UNL     1       5.022   6.178  18.260  0.00  0.00    +0.000 C 
ATOM      6  C   UNL     1       5.407   6.702  16.881  0.00  0.00    +0.000 C 
ATOM      7  C   UNL     1       5.833   5.593  15.923  0.00  0.00    +0.000 C 
ATOM      8  C   UNL     1       4.774   4.515  15.683  0.00  0.00    +0.000 C 
ATOM      9  C   UNL     1       4.553   3.611  16.901  0.00  0.00    +0.000 C 
ATOM     10  C   UNL     1       3.546   4.155  17.943  0.00  0.00    +0.000 C 
ATOM     11  H   UNL     1       3.550   8.045  18.232  0.00  0.00    +0.000 HD
ENDROOT
BRANCH   1  19
ATOM     12  O   UNL     1      -2.050  12.131  19.120  0.00  0.00    +0.000 OA
ATOM     13  C   UNL     1      -1.273  11.484  19.791  0.00  0.00    +0.000 C 
ATOM     14  N   UNL     1      -1.152  11.447  21.147  0.00  0.00    +0.000 N 
ATOM     15  C   UNL     1      -0.173  10.595  21.558  0.00  0.00    +0.000 C 
ATOM     16  O   UNL     1       0.170  10.356  22.697  0.00  0.00    +0.000 OA
ATOM     17  C   UNL     1       0.397  10.008  20.347  0.00  0.00    +0.000 A 
ATOM     18  C   UNL     1       1.401   9.068  20.198  0.00  0.00    +0.000 A 
ATOM     19  C   UNL     1       1.718   8.667  18.898  0.00  0.00    +0.000 A 
ATOM     20  C   UNL     1       1.050   9.258  17.792  0.00  0.00    +0.000 A 
ATOM     21  C   UNL     1       0.038  10.208  17.970  0.00  0.00    +0.000 A 
ATOM     22  C   UNL     1      -0.270  10.555  19.267  0.00  0.00    +0.000 A 
ATOM     23  H   UNL     1      -1.724  11.988  21.776  0.00  0.00    +0.000 HD
ENDBRANCH   1  19
BRANCH  10  24
ATOM     24  C   UNL     1       3.577   3.318  19.220  0.00  0.00    +0.000 A 
ATOM     25  C   UNL     1       4.672   2.510  19.555  0.00  0.00    +0.000 A 
ATOM     26  C   UNL     1       4.663   1.815  20.753  0.00  0.00    +0.000 A 
ATOM     27  N   UNL     1       3.642   1.847  21.630  0.00  0.00    +0.000 NA
ATOM     28  C   UNL     1       2.585   2.616  21.292  0.00  0.00    +0.000 A 
ATOM     29  C   UNL     1       2.505   3.355  20.119  0.00  0.00    +0.000 A 
ENDBRANCH  10  24
TORSDOF 2
ENDMDL
MODEL 7
REMARK VINA RESULT:      -7.5      0.881      1.062
REMARK  Name = 
REMARK  2 active torsions:
REMARK  status: ('A' for Active; 'I' for Inactive)
REMARK    1  A    between atoms: C_8  and  N_9
REMARK    2  A    between atoms: C_18  and  C_19
REMARK                            x       y       z     vdW  Elec       q    Type
REMARK                         _______ _______ _______ _____ _____    ______ ____
ROOT
ATOM      1  N   UNL     1       1.704   6.920  19.137  0.00  0.00    +0.000 N 
ATOM      2  C   UNL     1       2.969   6.404  18.912  0.00  0.00    +0.000 C 
ATOM      3  O   UNL     1       4.008   7.014  19.143  0.00  0.00    +0.000 OA
ATOM      4  N   UNL     1       2.978   5.081  18.439  0.00  0.00    +0.000 N 
ATOM      5  C   UNL     1       1.779   4.345  18.039  0.00  0.00    +0.000 C 
ATOM      6  C   UNL     1       1.171   3.599  19.221  0.00  0.00    +0.000 C 
ATOM      7  C   UNL     1       1.920   2.313  19.561  0.00  0.00    +0.000 C 
ATOM      8  C   UNL     1       3.399   2.508  19.903  0.00  0.00    +0.000 C 
ATOM      9  C   UNL     1       4.250   2.884  18.686  0.00  0.00    +0.000 C 
ATOM     10  C   UNL     1       4.283   4.396  18.355  0.00  0.00    +0.000 C 
ATOM     11  H   UNL     1       0.958   6.250  19.201  0.00  0.00    +0.000 HD
ENDROOT
BRANCH   1  19
ATOM     12  O   UNL     1       0.100  13.142  20.222  0.00  0.00    +0.000 OA
ATOM     13  C   UNL     1       0.215  12.076  20.789  0.00  0.00    +0.000 C 
ATOM     14  N   UNL     1      -0.050  11.775  22.090  0.00  0.00    +0.000 N 
ATOM     15  C   UNL     1       0.186  10.466  22.379  0.00  0.00    +0.000 C 
ATOM     16  O   UNL     1       0.048   9.907  23.447  0.00  0.00    +0.000 OA
ATOM     17  C   UNL     1       0.642   9.845  21.136  0.00  0.00    +0.000 A 
ATOM     18  C   UNL     1       0.993   8.534  20.870  0.00  0.00    +0.000 A 
ATOM     19  C   UNL     1       1.366   8.223  19.560  0.00  0.00    +0.000 A 
ATOM     20  C   UNL     1       1.418   9.247  18.576  0.00  0.00    +0.000 A 
ATOM     21  C   UNL     1       1.059  10.567  18.872  0.00  0.00    +0.000 A 
ATOM     22  C   UNL     1       0.667  10.830  20.166  0.00  0.00    +0.000 A 
ATOM     23  H   UNL     1      -0.385  12.446  22.764  0.00  0.00    +0.000 HD
ENDBRANCH   1  19
BRANCH  10  24
ATOM     24  C   UNL     1       4.946   4.643  17.001  0.00  0.00    +0.000 A 
ATOM     25  C   UNL     1       4.899   5.891  16.365  0.00  0.00    +0.000 A 
ATOM     26  C   UNL     1       5.566   6.067  15.163  0.00  0.00    +0.000 A 
ATOM     27  N   UNL     1       6.254   5.092  14.538  0.00  0.00    +0.000 NA
ATOM     28  C   UNL     1       6.281   3.889  15.152  0.00  0.00    +0.000 A 
ATOM     29  C   UNL     1       5.653   3.619  16.360  0.00  0.00    +0.000 A 
ENDBRANCH  10  24
TORSDOF 2
ENDMDL
MODEL 8
REMARK VINA RESULT:      -7.4      2.567      8.591
REMARK  Name = 
REMARK  2 active torsions:
REMARK  status: ('A' for Active; 'I' for Inactive)
REMARK    1  A    between atoms: C_8  and  N_9
REMARK    2  A    between atoms: C_18  and  C_19
REMARK                            x       y       z     vdW  Elec       q    Type
REMARK                         _______ _______ _______ _____ _____    ______ ____
ROOT
ATOM      1  N   UNL     1       1.371   8.720  18.837  0.00  0.00    +0.000 N 
ATOM      2  C   UNL     1       1.500  10.088  18.675  0.00  0.00    +0.000 C 
ATOM      3  O   UNL     1       2.517  10.637  18.263  0.00  0.00    +0.000 OA
ATOM      4  N   UNL     1       0.336  10.818  18.972  0.00  0.00    +0.000 N 
ATOM      5  C   UNL     1      -0.865  10.237  19.571  0.00  0.00    +0.000 C 
ATOM      6  C   UNL     1      -1.822   9.725  18.501  0.00  0.00    +0.000 C 
ATOM      7  C   UNL     1      -2.621  10.843  17.836  0.00  0.00    +0.000 C 
ATOM      8  C   UNL     1      -1.771  11.919  17.158  0.00  0.00    +0.000 C 
ATOM      9  C   UNL     1      -1.029  12.813  18.158  0.00  0.00    +0.000 C 
ATOM     10  C   UNL     1       0.332  12.258  18.644  0.00  0.00    +0.000 C 
ATOM     11  H   UNL     1       0.432   8.366  18.884  0.00  0.00    +0.000 HD
ENDROOT
BRANCH   1  19
ATOM     12  O   UNL     1       5.571   3.738  18.736  0.00  0.00    +0.000 OA
ATOM     13  C   UNL     1       5.230   4.709  18.094  0.00  0.00    +0.000 C 
ATOM     14  N   UNL     1       5.686   5.124  16.880  0.00  0.00    +0.000 N 
ATOM     15  C   UNL     1       5.065   6.259  16.453  0.00  0.00    +0.000 C 
ATOM     16  O   UNL     1       5.261   6.865  15.421  0.00  0.00    +0.000 OA
ATOM     17  C   UNL     1       4.099   6.615  17.490  0.00  0.00    +0.000 A 
ATOM     18  C   UNL     1       3.197   7.663  17.548  0.00  0.00    +0.000 A 
ATOM     19  C   UNL     1       2.366   7.733  18.668  0.00  0.00    +0.000 A 
ATOM     20  C   UNL     1       2.501   6.779  19.712  0.00  0.00    +0.000 A 
ATOM     21  C   UNL     1       3.423   5.729  19.630  0.00  0.00    +0.000 A 
ATOM     22  C   UNL     1       4.204   5.673  18.496  0.00  0.00    +0.000 A 
ATOM     23  H   UNL     1       6.400   4.645  16.355  0.00  0.00    +0.000 HD
ENDBRANCH   1  19
BRANCH  10  24
ATOM     24  C   UNL     1       0.873  13.086  19.808  0.00  0.00    +0.000 A 
ATOM     25  C   UNL     1       0.062  13.488  20.878  0.00  0.00    +0.000 A 
ATOM     26  C   UNL     1       0.625  14.192  21.930  0.00  0.00    +0.000 A 
ATOM     27  N   UNL     1       1.924  14.543  21.988  0.00  0.00    +0.000 NA
ATOM     28  C   UNL     1       2.694  14.164  20.945  0.00  0.00    +0.000 A 
ATOM     29  C   UNL     1       2.225  13.449  19.851  0.00  0.00    +0.000 A 
ENDBRANCH  10  24
TORSDOF 2
ENDMDL
MODEL 9
REMARK VINA RESULT:      -7.3      2.792      8.415
REMARK  Name = 
REMARK  2 active torsions:
REMARK  status: ('A' for Active; 'I' for Inactive)
REMARK    1  A    between atoms: C_8  and  N_9
REMARK    2  A    between atoms: C_18  and  C_19
REMARK                            x       y       z     vdW  Elec       q    Type
REMARK                         _______ _______ _______ _____ _____    ______ ____
ROOT
ATOM      1  N   UNL     1       1.789   8.808  18.942  0.00  0.00    +0.000 N 
ATOM      2  C   UNL     1       1.968  10.082  18.432  0.00  0.00    +0.000 C 
ATOM      3  O   UNL     1       2.689  10.341  17.474  0.00  0.00    +0.000 OA
ATOM      4  N   UNL     1       1.206  11.074  19.073  0.00  0.00    +0.000 N 
ATOM      5  C   UNL     1       0.420  10.848  20.285  0.00  0.00    +0.000 C 
ATOM      6  C   UNL     1      -0.998  10.402  19.948  0.00  0.00    +0.000 C 
ATOM      7  C   UNL     1      -1.894  11.557  19.509  0.00  0.00    +0.000 C 
ATOM      8  C   UNL     1      -1.392  12.325  18.284  0.00  0.00    +0.000 C 
ATOM      9  C   UNL     1      -0.152  13.175  18.578  0.00  0.00    +0.000 C 
ATOM     10  C   UNL     1       1.196  12.421  18.470  0.00  0.00    +0.000 C 
ATOM     11  H   UNL     1       0.971   8.669  19.509  0.00  0.00    +0.000 HD
ENDROOT
BRANCH   1  19
ATOM     12  O   UNL     1       4.158   2.896  17.558  0.00  0.00    +0.000 OA
ATOM     13  C   UNL     1       4.292   4.067  17.271  0.00  0.00    +0.000 C 
ATOM     14  N   UNL     1       5.125   4.623  16.348  0.00  0.00    +0.000 N 
ATOM     15  C   UNL     1       5.001   5.977  16.286  0.00  0.00    +0.000 C 
ATOM     16  O   UNL     1       5.610   6.744  15.569  0.00  0.00    +0.000 OA
ATOM     17  C   UNL     1       3.976   6.342  17.261  0.00  0.00    +0.000 A 
ATOM     18  C   UNL     1       3.452   7.582  17.583  0.00  0.00    +0.000 A 
ATOM     19  C   UNL     1       2.443   7.620  18.549  0.00  0.00    +0.000 A 
ATOM     20  C   UNL     1       2.030   6.422  19.190  0.00  0.00    +0.000 A 
ATOM     21  C   UNL     1       2.577   5.181  18.847  0.00  0.00    +0.000 A 
ATOM     22  C   UNL     1       3.547   5.177  17.868  0.00  0.00    +0.000 A 
ATOM     23  H   UNL     1       5.760   4.091  15.774  0.00  0.00    +0.000 HD
ENDBRANCH   1  19
BRANCH  10  24
ATOM     24  C   UNL     1       2.342  13.273  19.013  0.00  0.00    +0.000 A 
ATOM     25  C   UNL     1       3.288  13.874  18.172  0.00  0.00    +0.000 A 
ATOM     26  C   UNL     1       4.272  14.679  18.721  0.00  0.00    +0.000 A 
ATOM     27  N   UNL     1       4.398  14.914  20.041  0.00  0.00    +0.000 NA
ATOM     28  C   UNL     1       3.490  14.319  20.845  0.00  0.00    +0.000 A 
ATOM     29  C   UNL     1       2.463  13.504  20.389  0.00  0.00    +0.000 A 
ENDBRANCH  10  24
TORSDOF 2
ENDMDL
