MODEL 1
REMARK VINA RESULT:      -9.0      0.000      0.000
REMARK  Name = 
REMARK  9 active torsions:
REMARK  status: ('A' for Active; 'I' for Inactive)
REMARK    1  A    between atoms: C_1  and  C_2
REMARK    2  A    between atoms: C_2  and  C_4
REMARK    3  A    between atoms: N_11  and  C_12
REMARK    4  A    between atoms: C_14  and  C_15
REMARK    5  A    between atoms: C_15  and  C_16
REMARK    6  A    between atoms: C_15  and  C_17
REMARK    7  A    between atoms: C_17  and  C_18
REMARK    8  A    between atoms: N_22  and  C_23
REMARK    9  A    between atoms: C_26  and  C_27
REMARK                            x       y       z     vdW  Elec       q    Type
REMARK                         _______ _______ _______ _____ _____    ______ ____
ROOT
ATOM      1  C   UNL     1       2.937   5.793  18.913  0.00  0.00    +0.000 A 
ATOM      2  C   UNL     1       3.865   5.662  17.856  0.00  0.00    +0.000 A 
ATOM      3  C   UNL     1       4.531   4.457  17.571  0.00  0.00    +0.000 A 
ATOM      4  C   UNL     1       4.258   3.348  18.368  0.00  0.00    +0.000 A 
ATOM      5  C   UNL     1       3.330   3.439  19.401  0.00  0.00    +0.000 A 
ATOM      6  C   UNL     1       2.648   4.642  19.680  0.00  0.00    +0.000 A 
ATOM      7  C   UNL     1       1.586   4.565  20.742  0.00  0.00    +0.000 C 
ENDROOT
BRANCH   1  15
ATOM      8  C   UNL     1       0.849   9.861  21.059  0.00  0.00    +0.000 A 
ATOM      9  C   UNL     1       0.451  11.094  20.511  0.00  0.00    +0.000 A 
ATOM     10  C   UNL     1       0.648  11.385  19.147  0.00  0.00    +0.000 A 
ATOM     11  C   UNL     1       1.257  10.455  18.310  0.00  0.00    +0.000 A 
ATOM     12  C   UNL     1       1.642   9.248  18.868  0.00  0.00    +0.000 A 
ATOM     13  C   UNL     1       1.445   8.936  20.207  0.00  0.00    +0.000 A 
ATOM     14  C   UNL     1       1.898   7.532  20.456  0.00  0.00    +0.000 C 
ATOM     15  N   UNL     1       2.343   7.072  19.145  0.00  0.00    +0.000 N 
ATOM     16  C   UNL     1       2.250   8.096  18.198  0.00  0.00    +0.000 C 
ATOM     17  O   UNL     1       2.556   8.130  17.019  0.00  0.00    +0.000 OA
BRANCH   8  19
ATOM     18  C   UNL     1      -0.776   9.258  22.977  0.00  0.00    +0.000 C 
ATOM     19  C   UNL     1       0.626   9.536  22.499  0.00  0.00    +0.000 C 
ATOM     20  O   UNL     1       1.580   9.516  23.274  0.00  0.00    +0.000 OA
ENDBRANCH   8  19
ENDBRANCH   1  15
BRANCH   3  21
ATOM     21  C   UNL     1       5.537   4.336  16.434  0.00  0.00    +0.000 C 
ATOM     22  C   UNL     1       5.265   5.394  15.355  0.00  0.00    +0.000 C 
BRANCH  21  23
ATOM     23  C   UNL     1       7.001   4.435  16.903  0.00  0.00    +0.000 C 
BRANCH  23  24
ATOM     24  C   UNL     1       7.406   5.825  17.266  0.00  0.00    +0.000 A 
ATOM     25  N   UNL     1       7.546   6.843  16.439  0.00  0.00    +0.000 NA
ATOM     26  N   UNL     1       7.907   7.947  17.177  0.00  0.00    +0.000 NA
ATOM     27  C   UNL     1       7.972   7.582  18.434  0.00  0.00    +0.000 A 
ATOM     28  N   UNL     1       7.667   6.261  18.539  0.00  0.00    +0.000 N 
ATOM     29  C   UNL     1       7.604   5.500  19.756  0.00  0.00    +0.000 C 
ENDBRANCH  23  24
ENDBRANCH  21  23
ENDBRANCH   3  21
TORSDOF 5
ENDMDL
MODEL 2
REMARK VINA RESULT:      -9.0      1.698      2.643
REMARK  Name = 
REMARK  9 active torsions:
REMARK  status: ('A' for Active; 'I' for Inactive)
REMARK    1  A    between atoms: C_1  and  C_2
REMARK    2  A    between atoms: C_2  and  C_4
REMARK    3  A    between atoms: N_11  and  C_12
REMARK    4  A    between atoms: C_14  and  C_15
REMARK    5  A    between atoms: C_15  and  C_16
REMARK    6  A    between atoms: C_15  and  C_17
REMARK    7  A    between atoms: C_17  and  C_18
REMARK    8  A    between atoms: N_22  and  C_23
REMARK    9  A    between atoms: C_26  and  C_27
REMARK                            x       y       z     vdW  Elec       q    Type
REMARK                         _______ _______ _______ _____ _____    ______ ____
ROOT
ATOM      1  C   UNL     1       2.924   6.405  18.567  0.00  0.00    +0.000 A 
ATOM      2  C   UNL     1       4.093   6.537  17.785  0.00  0.00    +0.000 A 
ATOM      3  C   UNL     1       4.872   5.436  17.388  0.00  0.00    +0.000 A 
ATOM      4  C   UNL     1       4.468   4.164  17.784  0.00  0.00    +0.000 A 
ATOM      5  C   UNL     1       3.306   4.000  18.534  0.00  0.00    +0.000 A 
ATOM      6  C   UNL     1       2.514   5.100  18.920  0.00  0.00    +0.000 A 
ATOM      7  C   UNL     1       1.225   4.768  19.621  0.00  0.00    +0.000 C 
ENDROOT
BRANCH   1  15
ATOM      8  C   UNL     1       0.598  10.032  21.203  0.00  0.00    +0.000 A 
ATOM      9  C   UNL     1       0.042  11.258  20.797  0.00  0.00    +0.000 A 
ATOM     10  C   UNL     1       0.111  11.683  19.457  0.00  0.00    +0.000 A 
ATOM     11  C   UNL     1       0.748  10.898  18.501  0.00  0.00    +0.000 A 
ATOM     12  C   UNL     1       1.291   9.695  18.920  0.00  0.00    +0.000 A 
ATOM     13  C   UNL     1       1.222   9.251  20.235  0.00  0.00    +0.000 A 
ATOM     14  C   UNL     1       1.829   7.886  20.326  0.00  0.00    +0.000 C 
ATOM     15  N   UNL     1       2.224   7.590  18.953  0.00  0.00    +0.000 N 
ATOM     16  C   UNL     1       1.961   8.675  18.111  0.00  0.00    +0.000 C 
ATOM     17  O   UNL     1       2.177   8.841  16.924  0.00  0.00    +0.000 OA
BRANCH   8  19
ATOM     18  C   UNL     1      -0.830   9.166  23.177  0.00  0.00    +0.000 C 
ATOM     19  C   UNL     1       0.513   9.564  22.619  0.00  0.00    +0.000 C 
ATOM     20  O   UNL     1       1.527   9.527  23.311  0.00  0.00    +0.000 OA
ENDBRANCH   8  19
ENDBRANCH   1  15
BRANCH   3  21
ATOM     21  C   UNL     1       6.137   5.597  16.554  0.00  0.00    +0.000 C 
ATOM     22  C   UNL     1       7.345   5.895  17.453  0.00  0.00    +0.000 C 
BRANCH  21  23
ATOM     23  C   UNL     1       6.438   4.377  15.663  0.00  0.00    +0.000 C 
BRANCH  23  24
ATOM     24  C   UNL     1       7.018   4.750  14.339  0.00  0.00    +0.000 A 
ATOM     25  N   UNL     1       8.033   5.564  14.128  0.00  0.00    +0.000 NA
ATOM     26  N   UNL     1       8.265   5.618  12.772  0.00  0.00    +0.000 NA
ATOM     27  C   UNL     1       7.393   4.832  12.189  0.00  0.00    +0.000 A 
ATOM     28  N   UNL     1       6.590   4.267  13.129  0.00  0.00    +0.000 N 
ATOM     29  C   UNL     1       5.531   3.327  12.886  0.00  0.00    +0.000 C 
ENDBRANCH  23  24
ENDBRANCH  21  23
ENDBRANCH   3  21
TORSDOF 5
ENDMDL
MODEL 3
REMARK VINA RESULT:      -8.9      2.151      3.531
REMARK  Name = 
REMARK  9 active torsions:
REMARK  status: ('A' for Active; 'I' for Inactive)
REMARK    1  A    between atoms: C_1  and  C_2
REMARK    2  A    between atoms: C_2  and  C_4
REMARK    3  A    between atoms: N_11  and  C_12
REMARK    4  A    between atoms: C_14  and  C_15
REMARK    5  A    between atoms: C_15  and  C_16
REMARK    6  A    between atoms: C_15  and  C_17
REMARK    7  A    between atoms: C_17  and  C_18
REMARK    8  A    between atoms: N_22  and  C_23
REMARK    9  A    between atoms: C_26  and  C_27
REMARK                            x       y       z     vdW  Elec       q    Type
REMARK                         _______ _______ _______ _____ _____    ______ ____
ROOT
ATOM      1  C   UNL     1       3.050   6.023  18.257  0.00  0.00    +0.000 A 
ATOM      2  C   UNL     1       4.322   6.331  17.727  0.00  0.00    +0.000 A 
ATOM      3  C   UNL     1       5.058   5.429  16.939  0.00  0.00    +0.000 A 
ATOM      4  C   UNL     1       4.502   4.180  16.673  0.00  0.00    +0.000 A 
ATOM      5  C   UNL     1       3.239   3.856  17.161  0.00  0.00    +0.000 A 
ATOM      6  C   UNL     1       2.492   4.765  17.938  0.00  0.00    +0.000 A 
ATOM      7  C   UNL     1       1.096   4.331  18.295  0.00  0.00    +0.000 C 
ENDROOT
BRANCH   1  15
ATOM      8  C   UNL     1       0.718  10.169  19.960  0.00  0.00    +0.000 A 
ATOM      9  C   UNL     1       0.196  10.481  21.227  0.00  0.00    +0.000 A 
ATOM     10  C   UNL     1       0.233   9.549  22.282  0.00  0.00    +0.000 A 
ATOM     11  C   UNL     1       0.780   8.284  22.086  0.00  0.00    +0.000 A 
ATOM     12  C   UNL     1       1.288   7.996  20.831  0.00  0.00    +0.000 A 
ATOM     13  C   UNL     1       1.274   8.905  19.781  0.00  0.00    +0.000 A 
ATOM     14  C   UNL     1       1.972   8.305  18.601  0.00  0.00    +0.000 C 
ATOM     15  N   UNL     1       2.400   6.995  19.079  0.00  0.00    +0.000 N 
ATOM     16  C   UNL     1       1.955   6.770  20.386  0.00  0.00    +0.000 C 
ATOM     17  O   UNL     1       2.066   5.801  21.116  0.00  0.00    +0.000 OA
BRANCH   8  19
ATOM     18  C   UNL     1      -0.611  11.480  18.171  0.00  0.00    +0.000 C 
ATOM     19  C   UNL     1       0.702  11.157  18.841  0.00  0.00    +0.000 C 
ATOM     20  O   UNL     1       1.751  11.678  18.471  0.00  0.00    +0.000 OA
ENDBRANCH   8  19
ENDBRANCH   1  15
BRANCH   3  21
ATOM     21  C   UNL     1       6.434   5.773  16.383  0.00  0.00    +0.000 C 
ATOM     22  C   UNL     1       7.365   6.256  17.504  0.00  0.00    +0.000 C 
BRANCH  21  23
ATOM     23  C   UNL     1       7.093   4.608  15.623  0.00  0.00    +0.000 C 
BRANCH  23  24
ATOM     24  C   UNL     1       7.420   4.944  14.206  0.00  0.00    +0.000 A 
ATOM     25  N   UNL     1       8.366   5.764  13.793  0.00  0.00    +0.000 NA
ATOM     26  N   UNL     1       8.350   5.777  12.416  0.00  0.00    +0.000 NA
ATOM     27  C   UNL     1       7.403   4.961  12.022  0.00  0.00    +0.000 A 
ATOM     28  N   UNL     1       6.792   4.416  13.108  0.00  0.00    +0.000 N 
ATOM     29  C   UNL     1       5.723   3.455  13.087  0.00  0.00    +0.000 C 
ENDBRANCH  23  24
ENDBRANCH  21  23
ENDBRANCH   3  21
TORSDOF 5
ENDMDL
MODEL 4
REMARK VINA RESULT:      -8.9      0.727      1.224
REMARK  Name = 
REMARK  9 active torsions:
REMARK  status: ('A' for Active; 'I' for Inactive)
REMARK    1  A    between atoms: C_1  and  C_2
REMARK    2  A    between atoms: C_2  and  C_4
REMARK    3  A    between atoms: N_11  and  C_12
REMARK    4  A    between atoms: C_14  and  C_15
REMARK    5  A    between atoms: C_15  and  C_16
REMARK    6  A    between atoms: C_15  and  C_17
REMARK    7  A    between atoms: C_17  and  C_18
REMARK    8  A    between atoms: N_22  and  C_23
REMARK    9  A    between atoms: C_26  and  C_27
REMARK                            x       y       z     vdW  Elec       q    Type
REMARK                         _______ _______ _______ _____ _____    ______ ____
ROOT
ATOM      1  C   UNL     1       2.943   5.769  18.472  0.00  0.00    +0.000 A 
ATOM      2  C   UNL     1       3.955   5.683  17.491  0.00  0.00    +0.000 A 
ATOM      3  C   UNL     1       4.570   4.469  17.134  0.00  0.00    +0.000 A 
ATOM      4  C   UNL     1       4.156   3.307  17.779  0.00  0.00    +0.000 A 
ATOM      5  C   UNL     1       3.143   3.356  18.733  0.00  0.00    +0.000 A 
ATOM      6  C   UNL     1       2.514   4.569  19.081  0.00  0.00    +0.000 A 
ATOM      7  C   UNL     1       1.355   4.458  20.033  0.00  0.00    +0.000 C 
ENDROOT
BRANCH   1  15
ATOM      8  C   UNL     1       1.041   9.777  20.888  0.00  0.00    +0.000 A 
ATOM      9  C   UNL     1       0.705  11.062  20.426  0.00  0.00    +0.000 A 
ATOM     10  C   UNL     1       0.921  11.435  19.086  0.00  0.00    +0.000 A 
ATOM     11  C   UNL     1       1.489  10.536  18.187  0.00  0.00    +0.000 A 
ATOM     12  C   UNL     1       1.814   9.278  18.661  0.00  0.00    +0.000 A 
ATOM     13  C   UNL     1       1.596   8.884  19.976  0.00  0.00    +0.000 A 
ATOM     14  C   UNL     1       1.981   7.446  20.130  0.00  0.00    +0.000 C 
ATOM     15  N   UNL     1       2.409   7.056  18.790  0.00  0.00    +0.000 N 
ATOM     16  C   UNL     1       2.369   8.146  17.915  0.00  0.00    +0.000 C 
ATOM     17  O   UNL     1       2.681   8.246  16.742  0.00  0.00    +0.000 OA
BRANCH   8  19
ATOM     18  C   UNL     1      -0.615   9.078  22.747  0.00  0.00    +0.000 C 
ATOM     19  C   UNL     1       0.797   9.365  22.303  0.00  0.00    +0.000 C 
ATOM     20  O   UNL     1       1.741   9.283  23.085  0.00  0.00    +0.000 OA
ENDBRANCH   8  19
ENDBRANCH   1  15
BRANCH   3  21
ATOM     21  C   UNL     1       5.668   4.396  16.082  0.00  0.00    +0.000 C 
ATOM     22  C   UNL     1       5.066   4.391  14.670  0.00  0.00    +0.000 C 
BRANCH  21  23
ATOM     23  C   UNL     1       6.704   5.528  16.202  0.00  0.00    +0.000 C 
BRANCH  23  24
ATOM     24  C   UNL     1       7.329   5.608  17.555  0.00  0.00    +0.000 A 
ATOM     25  N   UNL     1       7.602   4.595  18.354  0.00  0.00    +0.000 NA
ATOM     26  N   UNL     1       8.192   5.094  19.493  0.00  0.00    +0.000 NA
ATOM     27  C   UNL     1       8.274   6.396  19.360  0.00  0.00    +0.000 A 
ATOM     28  N   UNL     1       7.745   6.764  18.163  0.00  0.00    +0.000 N 
ATOM     29  C   UNL     1       7.675   8.102  17.642  0.00  0.00    +0.000 C 
ENDBRANCH  23  24
ENDBRANCH  21  23
ENDBRANCH   3  21
TORSDOF 5
ENDMDL
MODEL 5
REMARK VINA RESULT:      -8.8      1.426      2.305
REMARK  Name = 
REMARK  9 active torsions:
REMARK  status: ('A' for Active; 'I' for Inactive)
REMARK    1  A    between atoms: C_1  and  C_2
REMARK    2  A    between atoms: C_2  and  C_4
REMARK    3  A    between atoms: N_11  and  C_12
REMARK    4  A    between atoms: C_14  and  C_15
REMARK    5  A    between atoms: C_15  and  C_16
REMARK    6  A    between atoms: C_15  and  C_17
REMARK    7  A    between atoms: C_17  and  C_18
REMARK    8  A    between atoms: N_22  and  C_23
REMARK    9  A    between atoms: C_26  and  C_27
REMARK                            x       y       z     vdW  Elec       q    Type
REMARK                         _______ _______ _______ _____ _____    ______ ____
ROOT
ATOM      1  C   UNL     1       3.180   6.320  19.330  0.00  0.00    +0.000 A 
ATOM      2  C   UNL     1       4.504   6.472  18.862  0.00  0.00    +0.000 A 
ATOM      3  C   UNL     1       5.434   5.418  18.849  0.00  0.00    +0.000 A 
ATOM      4  C   UNL     1       5.025   4.172  19.318  0.00  0.00    +0.000 A 
ATOM      5  C   UNL     1       3.719   3.984  19.762  0.00  0.00    +0.000 A 
ATOM      6  C   UNL     1       2.779   5.035  19.762  0.00  0.00    +0.000 A 
ATOM      7  C   UNL     1       1.376   4.662  20.153  0.00  0.00    +0.000 C 
ENDROOT
BRANCH   1  15
ATOM      8  C   UNL     1       0.139  10.101  20.736  0.00  0.00    +0.000 A 
ATOM      9  C   UNL     1      -0.449  11.139  19.993  0.00  0.00    +0.000 A 
ATOM     10  C   UNL     1      -0.198  11.283  18.615  0.00  0.00    +0.000 A 
ATOM     11  C   UNL     1       0.655  10.401  17.958  0.00  0.00    +0.000 A 
ATOM     12  C   UNL     1       1.225   9.387  18.707  0.00  0.00    +0.000 A 
ATOM     13  C   UNL     1       0.981   9.219  20.064  0.00  0.00    +0.000 A 
ATOM     14  C   UNL     1       1.683   7.987  20.542  0.00  0.00    +0.000 C 
ATOM     15  N   UNL     1       2.323   7.464  19.339  0.00  0.00    +0.000 N 
ATOM     16  C   UNL     1       2.108   8.312  18.249  0.00  0.00    +0.000 C 
ATOM     17  O   UNL     1       2.500   8.254  17.097  0.00  0.00    +0.000 OA
BRANCH   8  19
ATOM     18  C   UNL     1      -0.571   8.576  22.699  0.00  0.00    +0.000 C 
ATOM     19  C   UNL     1      -0.136   9.928  22.194  0.00  0.00    +0.000 C 
ATOM     20  O   UNL     1      -0.021  10.886  22.954  0.00  0.00    +0.000 OA
ENDBRANCH   8  19
ENDBRANCH   1  15
BRANCH   3  21
ATOM     21  C   UNL     1       6.861   5.602  18.350  0.00  0.00    +0.000 C 
ATOM     22  C   UNL     1       7.829   5.776  19.529  0.00  0.00    +0.000 C 
BRANCH  21  23
ATOM     23  C   UNL     1       7.344   4.453  17.446  0.00  0.00    +0.000 C 
BRANCH  23  24
ATOM     24  C   UNL     1       6.967   4.638  16.013  0.00  0.00    +0.000 A 
ATOM     25  N   UNL     1       7.652   5.298  15.101  0.00  0.00    +0.000 NA
ATOM     26  N   UNL     1       6.972   5.210  13.907  0.00  0.00    +0.000 NA
ATOM     27  C   UNL     1       5.894   4.494  14.116  0.00  0.00    +0.000 A 
ATOM     28  N   UNL     1       5.847   4.114  15.421  0.00  0.00    +0.000 N 
ATOM     29  C   UNL     1       4.834   3.297  16.030  0.00  0.00    +0.000 C 
ENDBRANCH  23  24
ENDBRANCH  21  23
ENDBRANCH   3  21
TORSDOF 5
ENDMDL
MODEL 6
REMARK VINA RESULT:      -8.7      1.621      2.825
REMARK  Name = 
REMARK  9 active torsions:
REMARK  status: ('A' for Active; 'I' for Inactive)
REMARK    1  A    between atoms: C_1  and  C_2
REMARK    2  A    between atoms: C_2  and  C_4
REMARK    3  A    between atoms: N_11  and  C_12
REMARK    4  A    between atoms: C_14  and  C_15
REMARK    5  A    between atoms: C_15  and  C_16
REMARK    6  A    between atoms: C_15  and  C_17
REMARK    7  A    between atoms: C_17  and  C_18
REMARK    8  A    between atoms: N_22  and  C_23
REMARK    9  A    between atoms: C_26  and  C_27
REMARK                            x       y       z     vdW  Elec       q    Type
REMARK                         _______ _______ _______ _____ _____    ______ ____
ROOT
ATOM      1  C   UNL     1       2.857   5.118  18.131  0.00  0.00    +0.000 A 
ATOM      2  C   UNL     1       4.045   5.255  17.380  0.00  0.00    +0.000 A 
ATOM      3  C   UNL     1       4.596   4.203  16.626  0.00  0.00    +0.000 A 
ATOM      4  C   UNL     1       3.935   2.977  16.624  0.00  0.00    +0.000 A 
ATOM      5  C   UNL     1       2.749   2.819  17.335  0.00  0.00    +0.000 A 
ATOM      6  C   UNL     1       2.185   3.876  18.078  0.00  0.00    +0.000 A 
ATOM      7  C   UNL     1       0.841   3.602  18.696  0.00  0.00    +0.000 C 
ENDROOT
BRANCH   1  15
ATOM      8  C   UNL     1       1.097   9.633  19.560  0.00  0.00    +0.000 A 
ATOM      9  C   UNL     1       0.778  10.140  20.832  0.00  0.00    +0.000 A 
ATOM     10  C   UNL     1       0.890   9.341  21.986  0.00  0.00    +0.000 A 
ATOM     11  C   UNL     1       1.310   8.018  21.889  0.00  0.00    +0.000 A 
ATOM     12  C   UNL     1       1.618   7.536  20.628  0.00  0.00    +0.000 A 
ATOM     13  C   UNL     1       1.526   8.311  19.479  0.00  0.00    +0.000 A 
ATOM     14  C   UNL     1       2.009   7.514  18.308  0.00  0.00    +0.000 C 
ATOM     15  N   UNL     1       2.400   6.236  18.895  0.00  0.00    +0.000 N 
ATOM     16  C   UNL     1       2.124   6.211  20.266  0.00  0.00    +0.000 C 
ATOM     17  O   UNL     1       2.262   5.330  21.096  0.00  0.00    +0.000 OA
BRANCH   8  19
ATOM     18  C   UNL     1       2.173  11.341  17.946  0.00  0.00    +0.000 C 
ATOM     19  C   UNL     1       0.999  10.478  18.333  0.00  0.00    +0.000 C 
ATOM     20  O   UNL     1      -0.035  10.472  17.669  0.00  0.00    +0.000 OA
ENDBRANCH   8  19
ENDBRANCH   1  15
BRANCH   3  21
ATOM     21  C   UNL     1       5.884   4.365  15.830  0.00  0.00    +0.000 C 
ATOM     22  C   UNL     1       5.608   4.253  14.324  0.00  0.00    +0.000 C 
BRANCH  21  23
ATOM     23  C   UNL     1       6.623   5.683  16.128  0.00  0.00    +0.000 C 
BRANCH  23  24
ATOM     24  C   UNL     1       7.268   5.701  17.474  0.00  0.00    +0.000 A 
ATOM     25  N   UNL     1       7.529   4.654  18.232  0.00  0.00    +0.000 NA
ATOM     26  N   UNL     1       8.146   5.100  19.379  0.00  0.00    +0.000 NA
ATOM     27  C   UNL     1       8.254   6.403  19.291  0.00  0.00    +0.000 A 
ATOM     28  N   UNL     1       7.717   6.825  18.115  0.00  0.00    +0.000 N 
ATOM     29  C   UNL     1       7.670   8.182  17.643  0.00  0.00    +0.000 C 
ENDBRANCH  23  24
ENDBRANCH  21  23
ENDBRANCH   3  21
TORSDOF 5
ENDMDL
MODEL 7
REMARK VINA RESULT:      -8.6      2.112      4.389
REMARK  Name = 
REMARK  9 active torsions:
REMARK  status: ('A' for Active; 'I' for Inactive)
REMARK    1  A    between atoms: C_1  and  C_2
REMARK    2  A    between atoms: C_2  and  C_4
REMARK    3  A    between atoms: N_11  and  C_12
REMARK    4  A    between atoms: C_14  and  C_15
REMARK    5  A    between atoms: C_15  and  C_16
REMARK    6  A    between atoms: C_15  and  C_17
REMARK    7  A    between atoms: C_17  and  C_18
REMARK    8  A    between atoms: N_22  and  C_23
REMARK    9  A    between atoms: C_26  and  C_27
REMARK                            x       y       z     vdW  Elec       q    Type
REMARK                         _______ _______ _______ _____ _____    ______ ____
ROOT
ATOM      1  C   UNL     1       1.531   8.713  19.757  0.00  0.00    +0.000 A 
ATOM      2  C   UNL     1       1.971   7.489  20.307  0.00  0.00    +0.000 A 
ATOM      3  C   UNL     1       2.619   6.500  19.546  0.00  0.00    +0.000 A 
ATOM      4  C   UNL     1       2.833   6.745  18.192  0.00  0.00    +0.000 A 
ATOM      5  C   UNL     1       2.433   7.953  17.626  0.00  0.00    +0.000 A 
ATOM      6  C   UNL     1       1.798   8.953  18.390  0.00  0.00    +0.000 A 
ATOM      7  C   UNL     1       1.531  10.252  17.681  0.00  0.00    +0.000 C 
ENDROOT
BRANCH   1  15
ATOM      8  C   UNL     1      -0.129  12.906  22.035  0.00  0.00    +0.000 A 
ATOM      9  C   UNL     1      -1.103  13.092  23.032  0.00  0.00    +0.000 A 
ATOM     10  C   UNL     1      -1.842  12.008  23.543  0.00  0.00    +0.000 A 
ATOM     11  C   UNL     1      -1.631  10.721  23.058  0.00  0.00    +0.000 A 
ATOM     12  C   UNL     1      -0.669  10.557  22.076  0.00  0.00    +0.000 A 
ATOM     13  C   UNL     1       0.081  11.611  21.568  0.00  0.00    +0.000 A 
ATOM     14  C   UNL     1       1.080  11.078  20.590  0.00  0.00    +0.000 C 
ATOM     15  N   UNL     1       0.847   9.637  20.607  0.00  0.00    +0.000 N 
ATOM     16  C   UNL     1      -0.225   9.313  21.444  0.00  0.00    +0.000 C 
ATOM     17  O   UNL     1      -0.753   8.245  21.695  0.00  0.00    +0.000 OA
BRANCH   8  19
ATOM     18  C   UNL     1       0.166  14.794  20.294  0.00  0.00    +0.000 C 
ATOM     19  C   UNL     1       0.673  14.046  21.501  0.00  0.00    +0.000 C 
ATOM     20  O   UNL     1       1.737  14.347  22.037  0.00  0.00    +0.000 OA
ENDBRANCH   8  19
ENDBRANCH   1  15
BRANCH   3  21
ATOM     21  C   UNL     1       3.077   5.181  20.153  0.00  0.00    +0.000 C 
ATOM     22  C   UNL     1       1.909   4.471  20.852  0.00  0.00    +0.000 C 
BRANCH  21  23
ATOM     23  C   UNL     1       3.726   4.232  19.128  0.00  0.00    +0.000 C 
BRANCH  23  24
ATOM     24  C   UNL     1       5.163   4.542  18.873  0.00  0.00    +0.000 A 
ATOM     25  N   UNL     1       6.048   4.948  19.761  0.00  0.00    +0.000 NA
ATOM     26  N   UNL     1       7.259   5.098  19.123  0.00  0.00    +0.000 NA
ATOM     27  C   UNL     1       7.088   4.772  17.865  0.00  0.00    +0.000 A 
ATOM     28  N   UNL     1       5.791   4.417  17.660  0.00  0.00    +0.000 N 
ATOM     29  C   UNL     1       5.220   3.972  16.419  0.00  0.00    +0.000 C 
ENDBRANCH  23  24
ENDBRANCH  21  23
ENDBRANCH   3  21
TORSDOF 5
ENDMDL
MODEL 8
REMARK VINA RESULT:      -8.4      3.074      8.098
REMARK  Name = 
REMARK  9 active torsions:
REMARK  status: ('A' for Active; 'I' for Inactive)
REMARK    1  A    between atoms: C_1  and  C_2
REMARK    2  A    between atoms: C_2  and  C_4
REMARK    3  A    between atoms: N_11  and  C_12
REMARK    4  A    between atoms: C_14  and  C_15
REMARK    5  A    between atoms: C_15  and  C_16
REMARK    6  A    between atoms: C_15  and  C_17
REMARK    7  A    between atoms: C_17  and  C_18
REMARK    8  A    between atoms: N_22  and  C_23
REMARK    9  A    between atoms: C_26  and  C_27
REMARK                            x       y       z     vdW  Elec       q    Type
REMARK                         _______ _______ _______ _____ _____    ______ ____
ROOT
ATOM      1  C   UNL     1       2.191   7.275  19.337  0.00  0.00    +0.000 A 
ATOM      2  C   UNL     1       1.761   8.548  18.902  0.00  0.00    +0.000 A 
ATOM      3  C   UNL     1       0.816   9.316  19.605  0.00  0.00    +0.000 A 
ATOM      4  C   UNL     1       0.286   8.793  20.782  0.00  0.00    +0.000 A 
ATOM      5  C   UNL     1       0.709   7.552  21.250  0.00  0.00    +0.000 A 
ATOM      6  C   UNL     1       1.668   6.786  20.555  0.00  0.00    +0.000 A 
ATOM      7  C   UNL     1       2.121   5.524  21.236  0.00  0.00    +0.000 C 
ENDROOT
BRANCH   1  15
ATOM      8  C   UNL     1       6.397   5.632  17.072  0.00  0.00    +0.000 A 
ATOM      9  C   UNL     1       6.612   4.562  16.186  0.00  0.00    +0.000 A 
ATOM     10  C   UNL     1       5.562   3.700  15.813  0.00  0.00    +0.000 A 
ATOM     11  C   UNL     1       4.283   3.884  16.329  0.00  0.00    +0.000 A 
ATOM     12  C   UNL     1       4.092   4.942  17.201  0.00  0.00    +0.000 A 
ATOM     13  C   UNL     1       5.110   5.812  17.572  0.00  0.00    +0.000 A 
ATOM     14  C   UNL     1       4.547   6.882  18.453  0.00  0.00    +0.000 C 
ATOM     15  N   UNL     1       3.126   6.557  18.529  0.00  0.00    +0.000 N 
ATOM     16  C   UNL     1       2.845   5.376  17.836  0.00  0.00    +0.000 C 
ATOM     17  O   UNL     1       1.807   4.755  17.695  0.00  0.00    +0.000 OA
BRANCH   8  19
ATOM     18  C   UNL     1       8.089   6.462  18.843  0.00  0.00    +0.000 C 
ATOM     19  C   UNL     1       7.499   6.563  17.458  0.00  0.00    +0.000 C 
ATOM     20  O   UNL     1       7.897   7.403  16.656  0.00  0.00    +0.000 OA
ENDBRANCH   8  19
ENDBRANCH   1  15
BRANCH   3  21
ATOM     21  C   UNL     1       0.356  10.683  19.115  0.00  0.00    +0.000 C 
ATOM     22  C   UNL     1       1.559  11.605  18.874  0.00  0.00    +0.000 C 
BRANCH  21  23
ATOM     23  C   UNL     1      -0.511  10.614  17.844  0.00  0.00    +0.000 C 
BRANCH  23  24
ATOM     24  C   UNL     1      -1.911  11.081  18.066  0.00  0.00    +0.000 A 
ATOM     25  N   UNL     1      -2.382  11.662  19.152  0.00  0.00    +0.000 NA
ATOM     26  N   UNL     1      -3.710  11.955  18.941  0.00  0.00    +0.000 NA
ATOM     27  C   UNL     1      -4.017  11.554  17.731  0.00  0.00    +0.000 A 
ATOM     28  N   UNL     1      -2.923  10.999  17.145  0.00  0.00    +0.000 N 
ATOM     29  C   UNL     1      -2.853  10.468  15.811  0.00  0.00    +0.000 C 
ENDBRANCH  23  24
ENDBRANCH  21  23
ENDBRANCH   3  21
TORSDOF 5
ENDMDL
MODEL 9
REMARK VINA RESULT:      -8.4      2.416      3.736
REMARK  Name = 
REMARK  9 active torsions:
REMARK  status: ('A' for Active; 'I' for Inactive)
REMARK    1  A    between atoms: C_1  and  C_2
REMARK    2  A    between atoms: C_2  and  C_4
REMARK    3  A    between atoms: N_11  and  C_12
REMARK    4  A    between atoms: C_14  and  C_15
REMARK    5  A    between atoms: C_15  and  C_16
REMARK    6  A    between atoms: C_15  and  C_17
REMARK    7  A    between atoms: C_17  and  C_18
REMARK    8  A    between atoms: N_22  and  C_23
REMARK    9  A    between atoms: C_26  and  C_27
REMARK                            x       y       z     vdW  Elec       q    Type
REMARK                         _______ _______ _______ _____ _____    ______ ____
ROOT
ATOM      1  C   UNL     1       3.066   5.980  18.189  0.00  0.00    +0.000 A 
ATOM      2  C   UNL     1       4.263   6.322  17.523  0.00  0.00    +0.000 A 
ATOM      3  C   UNL     1       4.978   5.413  16.724  0.00  0.00    +0.000 A 
ATOM      4  C   UNL     1       4.477   4.121  16.586  0.00  0.00    +0.000 A 
ATOM      5  C   UNL     1       3.286   3.760  17.210  0.00  0.00    +0.000 A 
ATOM      6  C   UNL     1       2.558   4.675  17.999  0.00  0.00    +0.000 A 
ATOM      7  C   UNL     1       1.230   4.189  18.511  0.00  0.00    +0.000 C 
ENDROOT
BRANCH   1  15
ATOM      8  C   UNL     1       0.772  10.153  19.876  0.00  0.00    +0.000 A 
ATOM      9  C   UNL     1       0.282  10.487  21.151  0.00  0.00    +0.000 A 
ATOM     10  C   UNL     1       0.347   9.574  22.221  0.00  0.00    +0.000 A 
ATOM     11  C   UNL     1       0.891   8.307  22.033  0.00  0.00    +0.000 A 
ATOM     12  C   UNL     1       1.367   7.996  20.771  0.00  0.00    +0.000 A 
ATOM     13  C   UNL     1       1.325   8.887  19.706  0.00  0.00    +0.000 A 
ATOM     14  C   UNL     1       1.993   8.266  18.519  0.00  0.00    +0.000 C 
ATOM     15  N   UNL     1       2.435   6.965  19.010  0.00  0.00    +0.000 N 
ATOM     16  C   UNL     1       2.025   6.764  20.332  0.00  0.00    +0.000 C 
ATOM     17  O   UNL     1       2.156   5.808  21.076  0.00  0.00    +0.000 OA
BRANCH   8  19
ATOM     18  C   UNL     1       1.925  11.996  18.476  0.00  0.00    +0.000 C 
ATOM     19  C   UNL     1       0.725  11.121  18.741  0.00  0.00    +0.000 C 
ATOM     20  O   UNL     1      -0.289  11.204  18.052  0.00  0.00    +0.000 OA
ENDBRANCH   8  19
ENDBRANCH   1  15
BRANCH   3  21
ATOM     21  C   UNL     1       6.274   5.796  16.022  0.00  0.00    +0.000 C 
ATOM     22  C   UNL     1       7.161   6.644  16.944  0.00  0.00    +0.000 C 
BRANCH  21  23
ATOM     23  C   UNL     1       7.070   4.582  15.507  0.00  0.00    +0.000 C 
BRANCH  23  24
ATOM     24  C   UNL     1       6.833   4.299  14.061  0.00  0.00    +0.000 A 
ATOM     25  N   UNL     1       5.906   3.507  13.558  0.00  0.00    +0.000 NA
ATOM     26  N   UNL     1       6.013   3.540  12.186  0.00  0.00    +0.000 NA
ATOM     27  C   UNL     1       6.993   4.355  11.883  0.00  0.00    +0.000 A 
ATOM     28  N   UNL     1       7.538   4.854  13.025  0.00  0.00    +0.000 N 
ATOM     29  C   UNL     1       8.617   5.800  13.107  0.00  0.00    +0.000 C 
ENDBRANCH  23  24
ENDBRANCH  21  23
ENDBRANCH   3  21
TORSDOF 5
ENDMDL
