MODEL 1
REMARK VINA RESULT:      -7.9      0.000      0.000
REMARK  Name = 
REMARK  5 active torsions:
REMARK  status: ('A' for Active; 'I' for Inactive)
REMARK    1  A    between atoms: C_1  and  C_2
REMARK    2  A    between atoms: C_4  and  C_5
REMARK    3  A    between atoms: N_7  and  C_8
REMARK    4  A    between atoms: C_13  and  N_14
REMARK    5  A    between atoms: N_20  and  C_21
REMARK                            x       y       z     vdW  Elec       q    Type
REMARK                         _______ _______ _______ _____ _____    ______ ____
ROOT
ATOM      1  C   UNL     1       3.156   6.476  19.176  0.00  0.00    +0.000 C 
ATOM      2  O   UNL     1       3.792   5.810  19.992  0.00  0.00    +0.000 OA
ATOM      3  N   UNL     1       3.317   6.391  17.799  0.00  0.00    +0.000 N 
ATOM      4  H   UNL     1       2.855   7.121  17.251  0.00  0.00    +0.000 HD
ENDROOT
BRANCH   1   8
ATOM      5  C   UNL     1      -0.286   8.665  21.940  0.00  0.00    +0.000 C 
ATOM      6  C   UNL     1       0.759   8.442  20.911  0.00  0.00    +0.000 A 
ATOM      7  N   UNL     1       1.505   7.364  20.828  0.00  0.00    +0.000 NA
ATOM      8  C   UNL     1       2.174   7.495  19.630  0.00  0.00    +0.000 A 
ATOM      9  N   UNL     1       1.834   8.604  18.944  0.00  0.00    +0.000 NA
ATOM     10  N   UNL     1       1.012   9.255  19.818  0.00  0.00    +0.000 N 
BRANCH  10  11
ATOM     11  C   UNL     1       0.553  10.574  19.554  0.00  0.00    +0.000 A 
ATOM     12  C   UNL     1      -0.537  10.772  18.691  0.00  0.00    +0.000 A 
ATOM     13  C   UNL     1      -1.004  12.069  18.446  0.00  0.00    +0.000 A 
ATOM     14  C   UNL     1      -0.363  13.158  19.026  0.00  0.00    +0.000 A 
ATOM     15  F   UNL     1      -0.798  14.399  18.773  0.00  0.00    +0.000 F 
ATOM     16  C   UNL     1       0.737  12.979  19.855  0.00  0.00    +0.000 A 
ATOM     17  C   UNL     1       1.193  11.687  20.122  0.00  0.00    +0.000 A 
ENDBRANCH  10  11
ENDBRANCH   1   8
BRANCH   3  18
ATOM     18  C   UNL     1       4.191   5.519  17.088  0.00  0.00    +0.000 A 
ATOM     19  C   UNL     1       5.220   6.014  16.280  0.00  0.00    +0.000 A 
ATOM     20  C   UNL     1       6.069   5.155  15.584  0.00  0.00    +0.000 A 
ATOM     21  C   UNL     1       5.886   3.797  15.722  0.00  0.00    +0.000 A 
ATOM     22  N   UNL     1       4.922   3.256  16.492  0.00  0.00    +0.000 NA
ATOM     23  C   UNL     1       4.083   4.114  17.163  0.00  0.00    +0.000 A 
BRANCH  23  24
ATOM     24  N   UNL     1       3.030   3.488  17.902  0.00  0.00    +0.000 N 
ATOM     25  C   UNL     1       3.189   2.578  18.932  0.00  0.00    +0.000 A 
ATOM     26  C   UNL     1       1.936   2.156  19.305  0.00  0.00    +0.000 A 
ATOM     27  C   UNL     1       1.064   2.878  18.477  0.00  0.00    +0.000 A 
ATOM     28  N   UNL     1       1.705   3.703  17.644  0.00  0.00    +0.000 NA
ENDBRANCH  23  24
ENDBRANCH   3  18
TORSDOF 4
ENDMDL
MODEL 2
REMARK VINA RESULT:      -7.9      2.176      3.471
REMARK  Name = 
REMARK  5 active torsions:
REMARK  status: ('A' for Active; 'I' for Inactive)
REMARK    1  A    between atoms: C_1  and  C_2
REMARK    2  A    between atoms: C_4  and  C_5
REMARK    3  A    between atoms: N_7  and  C_8
REMARK    4  A    between atoms: C_13  and  N_14
REMARK    5  A    between atoms: N_20  and  C_21
REMARK                            x       y       z     vdW  Elec       q    Type
REMARK                         _______ _______ _______ _____ _____    ______ ____
ROOT
ATOM      1  C   UNL     1       3.535   5.951  17.629  0.00  0.00    +0.000 C 
ATOM      2  O   UNL     1       3.407   4.758  17.900  0.00  0.00    +0.000 OA
ATOM      3  N   UNL     1       4.428   6.450  16.689  0.00  0.00    +0.000 N 
ATOM      4  H   UNL     1       4.553   7.466  16.690  0.00  0.00    +0.000 HD
ENDROOT
BRANCH   1   8
ATOM      5  C   UNL     1       1.225   8.242  21.329  0.00  0.00    +0.000 C 
ATOM      6  C   UNL     1       1.850   7.979  20.010  0.00  0.00    +0.000 A 
ATOM      7  N   UNL     1       2.545   6.903  19.716  0.00  0.00    +0.000 NA
ATOM      8  C   UNL     1       2.749   6.982  18.355  0.00  0.00    +0.000 A 
ATOM      9  N   UNL     1       2.165   8.055  17.786  0.00  0.00    +0.000 NA
ATOM     10  N   UNL     1       1.685   8.741  18.864  0.00  0.00    +0.000 N 
BRANCH  10  11
ATOM     11  C   UNL     1       1.132  10.042  18.723  0.00  0.00    +0.000 A 
ATOM     12  C   UNL     1      -0.258  10.199  18.609  0.00  0.00    +0.000 A 
ATOM     13  C   UNL     1      -0.807  11.482  18.491  0.00  0.00    +0.000 A 
ATOM     14  C   UNL     1       0.028  12.592  18.447  0.00  0.00    +0.000 A 
ATOM     15  F   UNL     1      -0.498  13.816  18.312  0.00  0.00    +0.000 F 
ATOM     16  C   UNL     1       1.408  12.449  18.525  0.00  0.00    +0.000 A 
ATOM     17  C   UNL     1       1.960  11.175  18.667  0.00  0.00    +0.000 A 
ENDBRANCH  10  11
ENDBRANCH   1   8
BRANCH   3  18
ATOM     18  C   UNL     1       5.311   5.700  15.859  0.00  0.00    +0.000 A 
ATOM     19  C   UNL     1       4.829   4.859  14.850  0.00  0.00    +0.000 A 
ATOM     20  C   UNL     1       5.699   4.126  14.045  0.00  0.00    +0.000 A 
ATOM     21  C   UNL     1       7.054   4.260  14.250  0.00  0.00    +0.000 A 
ATOM     22  N   UNL     1       7.582   5.060  15.196  0.00  0.00    +0.000 NA
ATOM     23  C   UNL     1       6.714   5.768  15.992  0.00  0.00    +0.000 A 
BRANCH  23  24
ATOM     24  N   UNL     1       7.325   6.541  17.030  0.00  0.00    +0.000 N 
ATOM     25  C   UNL     1       7.741   6.064  18.261  0.00  0.00    +0.000 A 
ATOM     26  C   UNL     1       8.186   7.140  18.989  0.00  0.00    +0.000 A 
ATOM     27  C   UNL     1       8.038   8.234  18.123  0.00  0.00    +0.000 A 
ATOM     28  N   UNL     1       7.544   7.886  16.931  0.00  0.00    +0.000 NA
ENDBRANCH  23  24
ENDBRANCH   3  18
TORSDOF 4
ENDMDL
MODEL 3
REMARK VINA RESULT:      -7.8      2.022      2.189
REMARK  Name = 
REMARK  5 active torsions:
REMARK  status: ('A' for Active; 'I' for Inactive)
REMARK    1  A    between atoms: C_1  and  C_2
REMARK    2  A    between atoms: C_4  and  C_5
REMARK    3  A    between atoms: N_7  and  C_8
REMARK    4  A    between atoms: C_13  and  N_14
REMARK    5  A    between atoms: N_20  and  C_21
REMARK                            x       y       z     vdW  Elec       q    Type
REMARK                         _______ _______ _______ _____ _____    ______ ____
ROOT
ATOM      1  C   UNL     1       2.058   8.472  18.401  0.00  0.00    +0.000 C 
ATOM      2  O   UNL     1       2.166   8.981  17.286  0.00  0.00    +0.000 OA
ATOM      3  N   UNL     1       2.618   7.252  18.763  0.00  0.00    +0.000 N 
ATOM      4  H   UNL     1       2.304   6.868  19.658  0.00  0.00    +0.000 HD
ENDROOT
BRANCH   1   8
ATOM      5  C   UNL     1      -0.099   9.224  22.766  0.00  0.00    +0.000 C 
ATOM      6  C   UNL     1       0.417   9.454  21.394  0.00  0.00    +0.000 A 
ATOM      7  N   UNL     1       1.186   8.615  20.738  0.00  0.00    +0.000 NA
ATOM      8  C   UNL     1       1.246   9.126  19.459  0.00  0.00    +0.000 A 
ATOM      9  N   UNL     1       0.501  10.237  19.290  0.00  0.00    +0.000 NA
ATOM     10  N   UNL     1       0.062  10.498  20.555  0.00  0.00    +0.000 N 
BRANCH  10  11
ATOM     11  C   UNL     1      -0.633  11.699  20.861  0.00  0.00    +0.000 A 
ATOM     12  C   UNL     1      -1.853  11.978  20.225  0.00  0.00    +0.000 A 
ATOM     13  C   UNL     1      -2.550  13.150  20.540  0.00  0.00    +0.000 A 
ATOM     14  C   UNL     1      -2.013  14.054  21.450  0.00  0.00    +0.000 A 
ATOM     15  F   UNL     1      -2.671  15.185  21.734  0.00  0.00    +0.000 F 
ATOM     16  C   UNL     1      -0.790  13.807  22.061  0.00  0.00    +0.000 A 
ATOM     17  C   UNL     1      -0.102  12.628  21.770  0.00  0.00    +0.000 A 
ENDBRANCH  10  11
ENDBRANCH   1   8
BRANCH   3  18
ATOM     18  C   UNL     1       3.428   6.404  17.954  0.00  0.00    +0.000 A 
ATOM     19  C   UNL     1       4.368   6.926  17.059  0.00  0.00    +0.000 A 
ATOM     20  C   UNL     1       5.154   6.091  16.268  0.00  0.00    +0.000 A 
ATOM     21  C   UNL     1       5.000   4.728  16.398  0.00  0.00    +0.000 A 
ATOM     22  N   UNL     1       4.121   4.162  17.248  0.00  0.00    +0.000 NA
ATOM     23  C   UNL     1       3.343   4.997  18.013  0.00  0.00    +0.000 A 
BRANCH  23  24
ATOM     24  N   UNL     1       2.373   4.345  18.839  0.00  0.00    +0.000 N 
ATOM     25  C   UNL     1       1.573   3.278  18.467  0.00  0.00    +0.000 A 
ATOM     26  C   UNL     1       0.725   3.016  19.514  0.00  0.00    +0.000 A 
ATOM     27  C   UNL     1       1.089   3.945  20.500  0.00  0.00    +0.000 A 
ATOM     28  N   UNL     1       2.097   4.736  20.119  0.00  0.00    +0.000 NA
ENDBRANCH  23  24
ENDBRANCH   3  18
TORSDOF 4
ENDMDL
MODEL 4
REMARK VINA RESULT:      -7.5      2.548      4.108
REMARK  Name = 
REMARK  5 active torsions:
REMARK  status: ('A' for Active; 'I' for Inactive)
REMARK    1  A    between atoms: C_1  and  C_2
REMARK    2  A    between atoms: C_4  and  C_5
REMARK    3  A    between atoms: N_7  and  C_8
REMARK    4  A    between atoms: C_13  and  N_14
REMARK    5  A    between atoms: N_20  and  C_21
REMARK                            x       y       z     vdW  Elec       q    Type
REMARK                         _______ _______ _______ _____ _____    ______ ____
ROOT
ATOM      1  C   UNL     1       3.998   6.828  17.089  0.00  0.00    +0.000 C 
ATOM      2  O   UNL     1       4.217   7.805  16.374  0.00  0.00    +0.000 OA
ATOM      3  N   UNL     1       4.516   5.559  16.862  0.00  0.00    +0.000 N 
ATOM      4  H   UNL     1       4.115   4.807  17.429  0.00  0.00    +0.000 HD
ENDROOT
BRANCH   1   8
ATOM      5  C   UNL     1       1.383   5.482  21.042  0.00  0.00    +0.000 C 
ATOM      6  C   UNL     1       2.054   6.320  20.018  0.00  0.00    +0.000 A 
ATOM      7  N   UNL     1       2.874   5.861  19.100  0.00  0.00    +0.000 NA
ATOM      8  C   UNL     1       3.087   6.932  18.258  0.00  0.00    +0.000 A 
ATOM      9  N   UNL     1       2.390   8.033  18.603  0.00  0.00    +0.000 NA
ATOM     10  N   UNL     1       1.818   7.666  19.786  0.00  0.00    +0.000 N 
BRANCH  10  11
ATOM     11  C   UNL     1       1.118   8.607  20.589  0.00  0.00    +0.000 A 
ATOM     12  C   UNL     1       1.220   8.542  21.988  0.00  0.00    +0.000 A 
ATOM     13  C   UNL     1       0.549   9.481  22.779  0.00  0.00    +0.000 A 
ATOM     14  C   UNL     1      -0.249  10.449  22.180  0.00  0.00    +0.000 A 
ATOM     15  F   UNL     1      -0.907  11.333  22.941  0.00  0.00    +0.000 F 
ATOM     16  C   UNL     1      -0.386  10.505  20.799  0.00  0.00    +0.000 A 
ATOM     17  C   UNL     1       0.300   9.586  20.003  0.00  0.00    +0.000 A 
ENDBRANCH  10  11
ENDBRANCH   1   8
BRANCH   3  18
ATOM     18  C   UNL     1       5.400   5.165  15.817  0.00  0.00    +0.000 A 
ATOM     19  C   UNL     1       4.953   4.413  14.725  0.00  0.00    +0.000 A 
ATOM     20  C   UNL     1       5.825   4.029  13.707  0.00  0.00    +0.000 A 
ATOM     21  C   UNL     1       7.143   4.422  13.788  0.00  0.00    +0.000 A 
ATOM     22  N   UNL     1       7.634   5.155  14.806  0.00  0.00    +0.000 NA
ATOM     23  C   UNL     1       6.767   5.517  15.809  0.00  0.00    +0.000 A 
BRANCH  23  24
ATOM     24  N   UNL     1       7.357   6.226  16.903  0.00  0.00    +0.000 N 
ATOM     25  C   UNL     1       7.693   5.689  18.134  0.00  0.00    +0.000 A 
ATOM     26  C   UNL     1       8.145   6.719  18.922  0.00  0.00    +0.000 A 
ATOM     27  C   UNL     1       8.084   7.848  18.091  0.00  0.00    +0.000 A 
ATOM     28  N   UNL     1       7.636   7.563  16.865  0.00  0.00    +0.000 NA
ENDBRANCH  23  24
ENDBRANCH   3  18
TORSDOF 4
ENDMDL
MODEL 5
REMARK VINA RESULT:      -7.5      1.836      2.151
REMARK  Name = 
REMARK  5 active torsions:
REMARK  status: ('A' for Active; 'I' for Inactive)
REMARK    1  A    between atoms: C_1  and  C_2
REMARK    2  A    between atoms: C_4  and  C_5
REMARK    3  A    between atoms: N_7  and  C_8
REMARK    4  A    between atoms: C_13  and  N_14
REMARK    5  A    between atoms: N_20  and  C_21
REMARK                            x       y       z     vdW  Elec       q    Type
REMARK                         _______ _______ _______ _____ _____    ______ ____
ROOT
ATOM      1  C   UNL     1       2.220   8.263  18.373  0.00  0.00    +0.000 C 
ATOM      2  O   UNL     1       2.332   8.698  17.228  0.00  0.00    +0.000 OA
ATOM      3  N   UNL     1       2.771   7.066  18.815  0.00  0.00    +0.000 N 
ATOM      4  H   UNL     1       2.455   6.743  19.733  0.00  0.00    +0.000 HD
ENDROOT
BRANCH   1   8
ATOM      5  C   UNL     1      -0.026   9.259  22.644  0.00  0.00    +0.000 C 
ATOM      6  C   UNL     1       0.543   9.419  21.283  0.00  0.00    +0.000 A 
ATOM      7  N   UNL     1       1.286   8.523  20.676  0.00  0.00    +0.000 NA
ATOM      8  C   UNL     1       1.412   8.990  19.386  0.00  0.00    +0.000 A 
ATOM      9  N   UNL     1       0.731  10.132  19.160  0.00  0.00    +0.000 NA
ATOM     10  N   UNL     1       0.269  10.454  20.403  0.00  0.00    +0.000 N 
BRANCH  10  11
ATOM     11  C   UNL     1      -0.372  11.698  20.651  0.00  0.00    +0.000 A 
ATOM     12  C   UNL     1       0.331  12.728  21.295  0.00  0.00    +0.000 A 
ATOM     13  C   UNL     1      -0.291  13.961  21.520  0.00  0.00    +0.000 A 
ATOM     14  C   UNL     1      -1.616  14.149  21.143  0.00  0.00    +0.000 A 
ATOM     15  F   UNL     1      -2.216  15.322  21.379  0.00  0.00    +0.000 F 
ATOM     16  C   UNL     1      -2.335  13.128  20.535  0.00  0.00    +0.000 A 
ATOM     17  C   UNL     1      -1.713  11.903  20.286  0.00  0.00    +0.000 A 
ENDBRANCH  10  11
ENDBRANCH   1   8
BRANCH   3  18
ATOM     18  C   UNL     1       3.576   6.161  18.064  0.00  0.00    +0.000 A 
ATOM     19  C   UNL     1       4.452   6.613  17.071  0.00  0.00    +0.000 A 
ATOM     20  C   UNL     1       5.234   5.722  16.338  0.00  0.00    +0.000 A 
ATOM     21  C   UNL     1       5.141   4.377  16.624  0.00  0.00    +0.000 A 
ATOM     22  N   UNL     1       4.325   3.879  17.573  0.00  0.00    +0.000 NA
ATOM     23  C   UNL     1       3.550   4.767  18.281  0.00  0.00    +0.000 A 
BRANCH  23  24
ATOM     24  N   UNL     1       2.646   4.178  19.221  0.00  0.00    +0.000 N 
ATOM     25  C   UNL     1       2.999   3.526  20.389  0.00  0.00    +0.000 A 
ATOM     26  C   UNL     1       1.846   3.035  20.950  0.00  0.00    +0.000 A 
ATOM     27  C   UNL     1       0.828   3.455  20.082  0.00  0.00    +0.000 A 
ATOM     28  N   UNL     1       1.290   4.166  19.049  0.00  0.00    +0.000 NA
ENDBRANCH  23  24
ENDBRANCH   3  18
TORSDOF 4
ENDMDL
MODEL 6
REMARK VINA RESULT:      -7.4      3.913      9.363
REMARK  Name = 
REMARK  5 active torsions:
REMARK  status: ('A' for Active; 'I' for Inactive)
REMARK    1  A    between atoms: C_1  and  C_2
REMARK    2  A    between atoms: C_4  and  C_5
REMARK    3  A    between atoms: N_7  and  C_8
REMARK    4  A    between atoms: C_13  and  N_14
REMARK    5  A    between atoms: N_20  and  C_21
REMARK                            x       y       z     vdW  Elec       q    Type
REMARK                         _______ _______ _______ _____ _____    ______ ____
ROOT
ATOM      1  C   UNL     1       0.531   9.905  22.022  0.00  0.00    +0.000 C 
ATOM      2  O   UNL     1       0.726   9.755  23.228  0.00  0.00    +0.000 OA
ATOM      3  N   UNL     1      -0.219  10.937  21.472  0.00  0.00    +0.000 N 
ATOM      4  H   UNL     1      -0.444  10.842  20.478  0.00  0.00    +0.000 HD
ENDROOT
BRANCH   1   8
ATOM      5  C   UNL     1       2.203   8.075  17.764  0.00  0.00    +0.000 C 
ATOM      6  C   UNL     1       1.870   8.207  19.204  0.00  0.00    +0.000 A 
ATOM      7  N   UNL     1       1.427   9.308  19.768  0.00  0.00    +0.000 NA
ATOM      8  C   UNL     1       1.062   8.924  21.040  0.00  0.00    +0.000 A 
ATOM      9  N   UNL     1       1.225   7.606  21.271  0.00  0.00    +0.000 NA
ATOM     10  N   UNL     1       1.841   7.178  20.131  0.00  0.00    +0.000 N 
BRANCH  10  11
ATOM     11  C   UNL     1       2.352   5.856  20.022  0.00  0.00    +0.000 A 
ATOM     12  C   UNL     1       1.573   4.771  20.455  0.00  0.00    +0.000 A 
ATOM     13  C   UNL     1       2.066   3.467  20.328  0.00  0.00    +0.000 A 
ATOM     14  C   UNL     1       3.339   3.253  19.814  0.00  0.00    +0.000 A 
ATOM     15  F   UNL     1       3.816   2.006  19.714  0.00  0.00    +0.000 F 
ATOM     16  C   UNL     1       4.133   4.319  19.413  0.00  0.00    +0.000 A 
ATOM     17  C   UNL     1       3.639   5.621  19.513  0.00  0.00    +0.000 A 
ENDBRANCH  10  11
ENDBRANCH   1   8
BRANCH   3  18
ATOM     18  C   UNL     1      -0.853  12.005  22.169  0.00  0.00    +0.000 A 
ATOM     19  C   UNL     1      -1.977  11.788  22.973  0.00  0.00    +0.000 A 
ATOM     20  C   UNL     1      -2.595  12.839  23.650  0.00  0.00    +0.000 A 
ATOM     21  C   UNL     1      -2.063  14.103  23.525  0.00  0.00    +0.000 A 
ATOM     22  N   UNL     1      -0.978  14.377  22.776  0.00  0.00    +0.000 NA
ATOM     23  C   UNL     1      -0.385  13.335  22.104  0.00  0.00    +0.000 A 
BRANCH  23  24
ATOM     24  N   UNL     1       0.714  13.695  21.262  0.00  0.00    +0.000 N 
ATOM     25  C   UNL     1       0.665  14.566  20.188  0.00  0.00    +0.000 A 
ATOM     26  C   UNL     1       1.906  14.563  19.599  0.00  0.00    +0.000 A 
ATOM     27  C   UNL     1       2.666  13.688  20.389  0.00  0.00    +0.000 A 
ATOM     28  N   UNL     1       1.971  13.177  21.409  0.00  0.00    +0.000 NA
ENDBRANCH  23  24
ENDBRANCH   3  18
TORSDOF 4
ENDMDL
MODEL 7
REMARK VINA RESULT:      -7.4      2.250      3.704
REMARK  Name = 
REMARK  5 active torsions:
REMARK  status: ('A' for Active; 'I' for Inactive)
REMARK    1  A    between atoms: C_1  and  C_2
REMARK    2  A    between atoms: C_4  and  C_5
REMARK    3  A    between atoms: N_7  and  C_8
REMARK    4  A    between atoms: C_13  and  N_14
REMARK    5  A    between atoms: N_20  and  C_21
REMARK                            x       y       z     vdW  Elec       q    Type
REMARK                         _______ _______ _______ _____ _____    ______ ____
ROOT
ATOM      1  C   UNL     1       2.308   6.808  18.657  0.00  0.00    +0.000 C 
ATOM      2  O   UNL     1       1.872   6.148  17.714  0.00  0.00    +0.000 OA
ATOM      3  N   UNL     1       3.077   6.286  19.689  0.00  0.00    +0.000 N 
ATOM      4  H   UNL     1       3.222   6.904  20.492  0.00  0.00    +0.000 HD
ENDROOT
BRANCH   1   8
ATOM      5  C   UNL     1       2.423  11.662  17.820  0.00  0.00    +0.000 C 
ATOM      6  C   UNL     1       1.999  10.330  18.318  0.00  0.00    +0.000 A 
ATOM      7  N   UNL     1       2.523   9.189  17.932  0.00  0.00    +0.000 NA
ATOM      8  C   UNL     1       1.983   8.252  18.787  0.00  0.00    +0.000 A 
ATOM      9  N   UNL     1       1.170   8.783  19.721  0.00  0.00    +0.000 NA
ATOM     10  N   UNL     1       1.102  10.094  19.347  0.00  0.00    +0.000 N 
BRANCH  10  11
ATOM     11  C   UNL     1       0.201  10.994  19.978  0.00  0.00    +0.000 A 
ATOM     12  C   UNL     1      -1.013  11.317  19.352  0.00  0.00    +0.000 A 
ATOM     13  C   UNL     1      -1.912  12.186  19.982  0.00  0.00    +0.000 A 
ATOM     14  C   UNL     1      -1.581  12.759  21.204  0.00  0.00    +0.000 A 
ATOM     15  F   UNL     1      -2.433  13.607  21.794  0.00  0.00    +0.000 F 
ATOM     16  C   UNL     1      -0.368  12.475  21.819  0.00  0.00    +0.000 A 
ATOM     17  C   UNL     1       0.522  11.591  21.208  0.00  0.00    +0.000 A 
ENDBRANCH  10  11
ENDBRANCH   1   8
BRANCH   3  18
ATOM     18  C   UNL     1       3.526   4.941  19.832  0.00  0.00    +0.000 A 
ATOM     19  C   UNL     1       2.758   3.980  20.497  0.00  0.00    +0.000 A 
ATOM     20  C   UNL     1       3.206   2.667  20.636  0.00  0.00    +0.000 A 
ATOM     21  C   UNL     1       4.421   2.326  20.085  0.00  0.00    +0.000 A 
ATOM     22  N   UNL     1       5.204   3.201  19.423  0.00  0.00    +0.000 NA
ATOM     23  C   UNL     1       4.757   4.495  19.304  0.00  0.00    +0.000 A 
BRANCH  23  24
ATOM     24  N   UNL     1       5.661   5.399  18.662  0.00  0.00    +0.000 N 
ATOM     25  C   UNL     1       6.964   5.659  19.050  0.00  0.00    +0.000 A 
ATOM     26  C   UNL     1       7.448   6.647  18.228  0.00  0.00    +0.000 A 
ATOM     27  C   UNL     1       6.392   6.916  17.344  0.00  0.00    +0.000 A 
ATOM     28  N   UNL     1       5.318   6.155  17.576  0.00  0.00    +0.000 NA
ENDBRANCH  23  24
ENDBRANCH   3  18
TORSDOF 4
ENDMDL
MODEL 8
REMARK VINA RESULT:      -7.3      1.949      3.551
REMARK  Name = 
REMARK  5 active torsions:
REMARK  status: ('A' for Active; 'I' for Inactive)
REMARK    1  A    between atoms: C_1  and  C_2
REMARK    2  A    between atoms: C_4  and  C_5
REMARK    3  A    between atoms: N_7  and  C_8
REMARK    4  A    between atoms: C_13  and  N_14
REMARK    5  A    between atoms: N_20  and  C_21
REMARK                            x       y       z     vdW  Elec       q    Type
REMARK                         _______ _______ _______ _____ _____    ______ ____
ROOT
ATOM      1  C   UNL     1       2.055   6.278  20.070  0.00  0.00    +0.000 C 
ATOM      2  O   UNL     1       2.215   5.664  21.124  0.00  0.00    +0.000 OA
ATOM      3  N   UNL     1       2.246   5.730  18.807  0.00  0.00    +0.000 N 
ATOM      4  H   UNL     1       2.249   6.396  18.030  0.00  0.00    +0.000 HD
ENDROOT
BRANCH   1   8
ATOM      5  C   UNL     1       1.474  10.908  18.490  0.00  0.00    +0.000 C 
ATOM      6  C   UNL     1       1.364   9.679  19.313  0.00  0.00    +0.000 A 
ATOM      7  N   UNL     1       1.806   8.497  18.949  0.00  0.00    +0.000 NA
ATOM      8  C   UNL     1       1.683   7.716  20.078  0.00  0.00    +0.000 A 
ATOM      9  N   UNL     1       1.216   8.390  21.148  0.00  0.00    +0.000 NA
ATOM     10  N   UNL     1       0.915   9.613  20.622  0.00  0.00    +0.000 N 
BRANCH  10  11
ATOM     11  C   UNL     1       0.228  10.595  21.387  0.00  0.00    +0.000 A 
ATOM     12  C   UNL     1       0.456  11.957  21.137  0.00  0.00    +0.000 A 
ATOM     13  C   UNL     1      -0.235  12.926  21.875  0.00  0.00    +0.000 A 
ATOM     14  C   UNL     1      -1.113  12.536  22.880  0.00  0.00    +0.000 A 
ATOM     15  F   UNL     1      -1.757  13.465  23.598  0.00  0.00    +0.000 F 
ATOM     16  C   UNL     1      -1.323  11.192  23.160  0.00  0.00    +0.000 A 
ATOM     17  C   UNL     1      -0.656  10.221  22.412  0.00  0.00    +0.000 A 
ENDBRANCH  10  11
ENDBRANCH   1   8
BRANCH   3  18
ATOM     18  C   UNL     1       2.615   4.390  18.498  0.00  0.00    +0.000 A 
ATOM     19  C   UNL     1       1.738   3.321  18.714  0.00  0.00    +0.000 A 
ATOM     20  C   UNL     1       2.108   2.011  18.413  0.00  0.00    +0.000 A 
ATOM     21  C   UNL     1       3.357   1.788  17.877  0.00  0.00    +0.000 A 
ATOM     22  N   UNL     1       4.244   2.773  17.635  0.00  0.00    +0.000 NA
ATOM     23  C   UNL     1       3.872   4.058  17.948  0.00  0.00    +0.000 A 
BRANCH  23  24
ATOM     24  N   UNL     1       4.879   5.054  17.744  0.00  0.00    +0.000 N 
ATOM     25  C   UNL     1       6.202   4.966  18.141  0.00  0.00    +0.000 A 
ATOM     26  C   UNL     1       6.803   6.163  17.838  0.00  0.00    +0.000 A 
ATOM     27  C   UNL     1       5.789   6.919  17.231  0.00  0.00    +0.000 A 
ATOM     28  N   UNL     1       4.632   6.257  17.144  0.00  0.00    +0.000 NA
ENDBRANCH  23  24
ENDBRANCH   3  18
TORSDOF 4
ENDMDL
MODEL 9
REMARK VINA RESULT:      -7.3      2.237      2.945
REMARK  Name = 
REMARK  5 active torsions:
REMARK  status: ('A' for Active; 'I' for Inactive)
REMARK    1  A    between atoms: C_1  and  C_2
REMARK    2  A    between atoms: C_4  and  C_5
REMARK    3  A    between atoms: N_7  and  C_8
REMARK    4  A    between atoms: C_13  and  N_14
REMARK    5  A    between atoms: N_20  and  C_21
REMARK                            x       y       z     vdW  Elec       q    Type
REMARK                         _______ _______ _______ _____ _____    ______ ____
ROOT
ATOM      1  C   UNL     1       2.084   7.902  17.866  0.00  0.00    +0.000 C 
ATOM      2  O   UNL     1       1.268   7.208  17.263  0.00  0.00    +0.000 OA
ATOM      3  N   UNL     1       3.436   7.602  17.980  0.00  0.00    +0.000 N 
ATOM      4  H   UNL     1       3.962   8.168  18.652  0.00  0.00    +0.000 HD
ENDROOT
BRANCH   1   8
ATOM      5  C   UNL     1       1.698  12.669  19.053  0.00  0.00    +0.000 C 
ATOM      6  C   UNL     1       1.442  11.209  18.995  0.00  0.00    +0.000 A 
ATOM      7  N   UNL     1       2.020  10.384  18.152  0.00  0.00    +0.000 NA
ATOM      8  C   UNL     1       1.652   9.128  18.586  0.00  0.00    +0.000 A 
ATOM      9  N   UNL     1       0.896   9.146  19.702  0.00  0.00    +0.000 NA
ATOM     10  N   UNL     1       0.679  10.480  19.893  0.00  0.00    +0.000 N 
BRANCH  10  11
ATOM     11  C   UNL     1      -0.227  10.944  20.886  0.00  0.00    +0.000 A 
ATOM     12  C   UNL     1      -0.183  10.399  22.179  0.00  0.00    +0.000 A 
ATOM     13  C   UNL     1      -1.059  10.869  23.163  0.00  0.00    +0.000 A 
ATOM     14  C   UNL     1      -1.998  11.845  22.847  0.00  0.00    +0.000 A 
ATOM     15  F   UNL     1      -2.850  12.277  23.785  0.00  0.00    +0.000 F 
ATOM     16  C   UNL     1      -2.075  12.369  21.564  0.00  0.00    +0.000 A 
ATOM     17  C   UNL     1      -1.188  11.922  20.584  0.00  0.00    +0.000 A 
ENDBRANCH  10  11
ENDBRANCH   1   8
BRANCH   3  18
ATOM     18  C   UNL     1       4.122   6.492  17.409  0.00  0.00    +0.000 A 
ATOM     19  C   UNL     1       5.015   6.653  16.344  0.00  0.00    +0.000 A 
ATOM     20  C   UNL     1       5.679   5.561  15.787  0.00  0.00    +0.000 A 
ATOM     21  C   UNL     1       5.452   4.312  16.322  0.00  0.00    +0.000 A 
ATOM     22  N   UNL     1       4.613   4.091  17.352  0.00  0.00    +0.000 NA
ATOM     23  C   UNL     1       3.955   5.174  17.884  0.00  0.00    +0.000 A 
BRANCH  23  24
ATOM     24  N   UNL     1       3.019   4.872  18.923  0.00  0.00    +0.000 N 
ATOM     25  C   UNL     1       1.913   4.047  18.808  0.00  0.00    +0.000 A 
ATOM     26  C   UNL     1       1.234   4.100  20.000  0.00  0.00    +0.000 A 
ATOM     27  C   UNL     1       2.005   4.954  20.804  0.00  0.00    +0.000 A 
ATOM     28  N   UNL     1       3.095   5.407  20.179  0.00  0.00    +0.000 NA
ENDBRANCH  23  24
ENDBRANCH   3  18
TORSDOF 4
ENDMDL
