MODEL 1
REMARK VINA RESULT:      -8.2      0.000      0.000
REMARK  Name = 
REMARK  6 active torsions:
REMARK  status: ('A' for Active; 'I' for Inactive)
REMARK    1  A    between atoms: C_1  and  C_2
REMARK    2  A    between atoms: C_2  and  N_3
REMARK    3  A    between atoms: C_7  and  C_8
REMARK    4  A    between atoms: C_8  and  N_9
REMARK    5  A    between atoms: N_16  and  C_17
REMARK    6  A    between atoms: C_21  and  C_22
REMARK                            x       y       z     vdW  Elec       q    Type
REMARK                         _______ _______ _______ _____ _____    ______ ____
ROOT
ATOM      1  N   UNL     1       6.866   5.425  16.436  0.00  0.00    +0.000 N 
ATOM      2  C   UNL     1       6.210   6.657  16.509  0.00  0.00    +0.000 A 
ATOM      3  N   UNL     1       5.278   6.968  17.366  0.00  0.00    +0.000 NA
ATOM      4  C   UNL     1       4.990   5.939  18.219  0.00  0.00    +0.000 A 
ATOM      5  C   UNL     1       5.774   4.823  18.387  0.00  0.00    +0.000 A 
ATOM      6  C   UNL     1       5.032   3.923  19.139  0.00  0.00    +0.000 A 
ATOM      7  N   UNL     1       3.857   4.440  19.485  0.00  0.00    +0.000 NA
ATOM      8  N   UNL     1       3.877   5.736  19.026  0.00  0.00    +0.000 N 
ATOM      9  C   UNL     1       6.985   4.725  17.636  0.00  0.00    +0.000 A 
ATOM     10  O   UNL     1       7.955   4.057  17.978  0.00  0.00    +0.000 OA
ENDROOT
BRANCH   8  11
ATOM     11  C   UNL     1       2.833   6.625  19.413  0.00  0.00    +0.000 A 
ATOM     12  C   UNL     1       2.150   6.352  20.611  0.00  0.00    +0.000 A 
ATOM     13  C   UNL     1       1.186   7.230  21.098  0.00  0.00    +0.000 A 
ATOM     14  C   UNL     1       0.869   8.377  20.377  0.00  0.00    +0.000 A 
ATOM     15  C   UNL     1       1.505   8.655  19.153  0.00  0.00    +0.000 A 
ATOM     16  C   UNL     1       2.506   7.774  18.682  0.00  0.00    +0.000 A 
BRANCH  15  17
ATOM     17  C   UNL     1       1.112   9.868  18.351  0.00  0.00    +0.000 C 
ATOM     18  F   UNL     1       0.042   9.657  17.538  0.00  0.00    +0.000 F 
ATOM     19  F   UNL     1       0.777  10.932  19.141  0.00  0.00    +0.000 F 
ATOM     20  F   UNL     1       2.114  10.304  17.539  0.00  0.00    +0.000 F 
ENDBRANCH  15  17
ENDBRANCH   8  11
BRANCH   1  21
ATOM     21  C   UNL     1       6.334   4.513  15.431  0.00  0.00    +0.000 C 
BRANCH  21  26
ATOM     22  N   UNL     1       6.461   4.031  12.950  0.00  0.00    +0.000 N 
ATOM     23  N   UNL     1       7.218   4.370  11.889  0.00  0.00    +0.000 NA
ATOM     24  C   UNL     1       8.041   5.277  12.414  0.00  0.00    +0.000 A 
ATOM     25  N   UNL     1       7.844   5.538  13.737  0.00  0.00    +0.000 NA
ATOM     26  C   UNL     1       6.857   4.730  14.065  0.00  0.00    +0.000 A 
BRANCH  22  28
ATOM     27  C   UNL     1       4.556   3.347  11.513  0.00  0.00    +0.000 C 
ATOM     28  C   UNL     1       5.374   3.092  12.769  0.00  0.00    +0.000 C 
ENDBRANCH  22  28
ENDBRANCH  21  26
ENDBRANCH   1  21
TORSDOF 5
ENDMDL
MODEL 2
REMARK VINA RESULT:      -8.1      3.974      7.497
REMARK  Name = 
REMARK  6 active torsions:
REMARK  status: ('A' for Active; 'I' for Inactive)
REMARK    1  A    between atoms: C_1  and  C_2
REMARK    2  A    between atoms: C_2  and  N_3
REMARK    3  A    between atoms: C_7  and  C_8
REMARK    4  A    between atoms: C_8  and  N_9
REMARK    5  A    between atoms: N_16  and  C_17
REMARK    6  A    between atoms: C_21  and  C_22
REMARK                            x       y       z     vdW  Elec       q    Type
REMARK                         _______ _______ _______ _____ _____    ______ ____
ROOT
ATOM      1  N   UNL     1       5.224   4.175  19.242  0.00  0.00    +0.000 N 
ATOM      2  C   UNL     1       5.057   3.314  18.154  0.00  0.00    +0.000 A 
ATOM      3  N   UNL     1       5.564   3.490  16.966  0.00  0.00    +0.000 NA
ATOM      4  C   UNL     1       6.301   4.638  16.879  0.00  0.00    +0.000 A 
ATOM      5  C   UNL     1       6.735   5.370  17.957  0.00  0.00    +0.000 A 
ATOM      6  C   UNL     1       7.229   6.566  17.457  0.00  0.00    +0.000 A 
ATOM      7  N   UNL     1       7.170   6.592  16.128  0.00  0.00    +0.000 NA
ATOM      8  N   UNL     1       6.714   5.348  15.757  0.00  0.00    +0.000 N 
ATOM      9  C   UNL     1       6.414   4.902  19.268  0.00  0.00    +0.000 A 
ATOM     10  O   UNL     1       7.062   5.172  20.274  0.00  0.00    +0.000 OA
ENDROOT
BRANCH   8  11
ATOM     11  C   UNL     1       6.727   4.988  14.379  0.00  0.00    +0.000 A 
ATOM     12  C   UNL     1       7.865   5.322  13.625  0.00  0.00    +0.000 A 
ATOM     13  C   UNL     1       7.987   4.916  12.299  0.00  0.00    +0.000 A 
ATOM     14  C   UNL     1       6.958   4.196  11.700  0.00  0.00    +0.000 A 
ATOM     15  C   UNL     1       5.789   3.883  12.417  0.00  0.00    +0.000 A 
ATOM     16  C   UNL     1       5.687   4.272  13.773  0.00  0.00    +0.000 A 
BRANCH  15  17
ATOM     17  C   UNL     1       4.656   3.155  11.742  0.00  0.00    +0.000 C 
ATOM     18  F   UNL     1       4.134   3.828  10.681  0.00  0.00    +0.000 F 
ATOM     19  F   UNL     1       5.032   1.933  11.260  0.00  0.00    +0.000 F 
ATOM     20  F   UNL     1       3.610   2.922  12.583  0.00  0.00    +0.000 F 
ENDBRANCH  15  17
ENDBRANCH   8  11
BRANCH   1  21
ATOM     21  C   UNL     1       4.121   5.104  19.456  0.00  0.00    +0.000 C 
BRANCH  21  26
ATOM     22  N   UNL     1       2.115   3.583  19.201  0.00  0.00    +0.000 N 
ATOM     23  N   UNL     1       1.074   3.409  18.365  0.00  0.00    +0.000 NA
ATOM     24  C   UNL     1       1.212   4.440  17.532  0.00  0.00    +0.000 A 
ATOM     25  N   UNL     1       2.270   5.257  17.796  0.00  0.00    +0.000 NA
ATOM     26  C   UNL     1       2.841   4.692  18.841  0.00  0.00    +0.000 A 
BRANCH  22  28
ATOM     27  C   UNL     1       1.587   3.152  21.589  0.00  0.00    +0.000 C 
ATOM     28  C   UNL     1       2.279   2.678  20.320  0.00  0.00    +0.000 C 
ENDBRANCH  22  28
ENDBRANCH  21  26
ENDBRANCH   1  21
TORSDOF 5
ENDMDL
MODEL 3
REMARK VINA RESULT:      -7.9      3.918      7.519
REMARK  Name = 
REMARK  6 active torsions:
REMARK  status: ('A' for Active; 'I' for Inactive)
REMARK    1  A    between atoms: C_1  and  C_2
REMARK    2  A    between atoms: C_2  and  N_3
REMARK    3  A    between atoms: C_7  and  C_8
REMARK    4  A    between atoms: C_8  and  N_9
REMARK    5  A    between atoms: N_16  and  C_17
REMARK    6  A    between atoms: C_21  and  C_22
REMARK                            x       y       z     vdW  Elec       q    Type
REMARK                         _______ _______ _______ _____ _____    ______ ____
ROOT
ATOM      1  N   UNL     1       5.297   4.329  19.299  0.00  0.00    +0.000 N 
ATOM      2  C   UNL     1       5.106   3.458  18.223  0.00  0.00    +0.000 A 
ATOM      3  N   UNL     1       5.611   3.608  17.030  0.00  0.00    +0.000 NA
ATOM      4  C   UNL     1       6.373   4.738  16.925  0.00  0.00    +0.000 A 
ATOM      5  C   UNL     1       6.828   5.474  17.992  0.00  0.00    +0.000 A 
ATOM      6  C   UNL     1       7.345   6.652  17.474  0.00  0.00    +0.000 A 
ATOM      7  N   UNL     1       7.280   6.663  16.145  0.00  0.00    +0.000 NA
ATOM      8  N   UNL     1       6.795   5.425  15.792  0.00  0.00    +0.000 N 
ATOM      9  C   UNL     1       6.504   5.029  19.311  0.00  0.00    +0.000 A 
ATOM     10  O   UNL     1       7.163   5.297  20.309  0.00  0.00    +0.000 OA
ENDROOT
BRANCH   8  11
ATOM     11  C   UNL     1       6.793   5.047  14.419  0.00  0.00    +0.000 A 
ATOM     12  C   UNL     1       7.913   5.390  13.643  0.00  0.00    +0.000 A 
ATOM     13  C   UNL     1       8.022   4.968  12.322  0.00  0.00    +0.000 A 
ATOM     14  C   UNL     1       6.995   4.225  11.747  0.00  0.00    +0.000 A 
ATOM     15  C   UNL     1       5.842   3.903  12.485  0.00  0.00    +0.000 A 
ATOM     16  C   UNL     1       5.755   4.308  13.838  0.00  0.00    +0.000 A 
BRANCH  15  17
ATOM     17  C   UNL     1       4.711   3.149  11.838  0.00  0.00    +0.000 C 
ATOM     18  F   UNL     1       5.053   1.893  11.441  0.00  0.00    +0.000 F 
ATOM     19  F   UNL     1       3.637   2.998  12.670  0.00  0.00    +0.000 F 
ATOM     20  F   UNL     1       4.237   3.773  10.723  0.00  0.00    +0.000 F 
ENDBRANCH  15  17
ENDBRANCH   8  11
BRANCH   1  21
ATOM     21  C   UNL     1       4.217   5.284  19.507  0.00  0.00    +0.000 C 
BRANCH  21  26
ATOM     22  N   UNL     1       1.856   4.447  19.152  0.00  0.00    +0.000 N 
ATOM     23  N   UNL     1       0.810   4.022  19.885  0.00  0.00    +0.000 NA
ATOM     24  C   UNL     1       1.321   4.011  21.116  0.00  0.00    +0.000 A 
ATOM     25  N   UNL     1       2.625   4.394  21.203  0.00  0.00    +0.000 NA
ATOM     26  C   UNL     1       2.943   4.684  19.957  0.00  0.00    +0.000 A 
BRANCH  22  28
ATOM     27  C   UNL     1       2.036   3.227  16.997  0.00  0.00    +0.000 C 
ATOM     28  C   UNL     1       1.719   4.530  17.712  0.00  0.00    +0.000 C 
ENDBRANCH  22  28
ENDBRANCH  21  26
ENDBRANCH   1  21
TORSDOF 5
ENDMDL
MODEL 4
REMARK VINA RESULT:      -7.7      3.603      7.829
REMARK  Name = 
REMARK  6 active torsions:
REMARK  status: ('A' for Active; 'I' for Inactive)
REMARK    1  A    between atoms: C_1  and  C_2
REMARK    2  A    between atoms: C_2  and  N_3
REMARK    3  A    between atoms: C_7  and  C_8
REMARK    4  A    between atoms: C_8  and  N_9
REMARK    5  A    between atoms: N_16  and  C_17
REMARK    6  A    between atoms: C_21  and  C_22
REMARK                            x       y       z     vdW  Elec       q    Type
REMARK                         _______ _______ _______ _____ _____    ______ ____
ROOT
ATOM      1  N   UNL     1       5.014   4.346  19.150  0.00  0.00    +0.000 N 
ATOM      2  C   UNL     1       4.752   3.536  18.043  0.00  0.00    +0.000 A 
ATOM      3  N   UNL     1       5.315   3.651  16.872  0.00  0.00    +0.000 NA
ATOM      4  C   UNL     1       6.219   4.675  16.826  0.00  0.00    +0.000 A 
ATOM      5  C   UNL     1       6.726   5.317  17.929  0.00  0.00    +0.000 A 
ATOM      6  C   UNL     1       7.409   6.432  17.465  0.00  0.00    +0.000 A 
ATOM      7  N   UNL     1       7.393   6.486  16.136  0.00  0.00    +0.000 NA
ATOM      8  N   UNL     1       6.767   5.331  15.730  0.00  0.00    +0.000 N 
ATOM      9  C   UNL     1       6.300   4.884  19.222  0.00  0.00    +0.000 A 
ATOM     10  O   UNL     1       6.951   5.038  20.250  0.00  0.00    +0.000 OA
ENDROOT
BRANCH   8  11
ATOM     11  C   UNL     1       6.766   4.993  14.346  0.00  0.00    +0.000 A 
ATOM     12  C   UNL     1       7.863   5.404  13.570  0.00  0.00    +0.000 A 
ATOM     13  C   UNL     1       7.975   5.025  12.236  0.00  0.00    +0.000 A 
ATOM     14  C   UNL     1       6.974   4.256  11.650  0.00  0.00    +0.000 A 
ATOM     15  C   UNL     1       5.843   3.865  12.389  0.00  0.00    +0.000 A 
ATOM     16  C   UNL     1       5.754   4.227  13.753  0.00  0.00    +0.000 A 
BRANCH  15  17
ATOM     17  C   UNL     1       4.737   3.084  11.730  0.00  0.00    +0.000 C 
ATOM     18  F   UNL     1       3.634   2.941  12.513  0.00  0.00    +0.000 F 
ATOM     19  F   UNL     1       4.302   3.666  10.573  0.00  0.00    +0.000 F 
ATOM     20  F   UNL     1       5.119   1.820  11.394  0.00  0.00    +0.000 F 
ENDBRANCH  15  17
ENDBRANCH   8  11
BRANCH   1  21
ATOM     21  C   UNL     1       4.059   5.427  19.352  0.00  0.00    +0.000 C 
BRANCH  21  26
ATOM     22  N   UNL     1       1.751   5.738  20.343  0.00  0.00    +0.000 N 
ATOM     23  N   UNL     1       0.652   5.004  20.601  0.00  0.00    +0.000 NA
ATOM     24  C   UNL     1       0.971   3.828  20.063  0.00  0.00    +0.000 A 
ATOM     25  N   UNL     1       2.199   3.776  19.474  0.00  0.00    +0.000 NA
ATOM     26  C   UNL     1       2.686   4.984  19.676  0.00  0.00    +0.000 A 
BRANCH  22  28
ATOM     27  C   UNL     1       1.827   8.084  19.534  0.00  0.00    +0.000 C 
ATOM     28  C   UNL     1       1.771   7.136  20.721  0.00  0.00    +0.000 C 
ENDBRANCH  22  28
ENDBRANCH  21  26
ENDBRANCH   1  21
TORSDOF 5
ENDMDL
MODEL 5
REMARK VINA RESULT:      -7.5      4.242      5.917
REMARK  Name = 
REMARK  6 active torsions:
REMARK  status: ('A' for Active; 'I' for Inactive)
REMARK    1  A    between atoms: C_1  and  C_2
REMARK    2  A    between atoms: C_2  and  N_3
REMARK    3  A    between atoms: C_7  and  C_8
REMARK    4  A    between atoms: C_8  and  N_9
REMARK    5  A    between atoms: N_16  and  C_17
REMARK    6  A    between atoms: C_21  and  C_22
REMARK                            x       y       z     vdW  Elec       q    Type
REMARK                         _______ _______ _______ _____ _____    ______ ____
ROOT
ATOM      1  N   UNL     1       2.865   6.240  18.044  0.00  0.00    +0.000 N 
ATOM      2  C   UNL     1       2.849   7.365  17.216  0.00  0.00    +0.000 A 
ATOM      3  N   UNL     1       2.393   8.541  17.546  0.00  0.00    +0.000 NA
ATOM      4  C   UNL     1       1.913   8.573  18.826  0.00  0.00    +0.000 A 
ATOM      5  C   UNL     1       2.150   7.606  19.772  0.00  0.00    +0.000 A 
ATOM      6  C   UNL     1       1.308   7.876  20.841  0.00  0.00    +0.000 A 
ATOM      7  N   UNL     1       0.602   8.984  20.628  0.00  0.00    +0.000 NA
ATOM      8  N   UNL     1       1.065   9.490  19.436  0.00  0.00    +0.000 N 
ATOM      9  C   UNL     1       2.968   6.491  19.413  0.00  0.00    +0.000 A 
ATOM     10  O   UNL     1       3.603   5.816  20.215  0.00  0.00    +0.000 OA
ENDROOT
BRANCH   8  11
ATOM     11  C   UNL     1       0.643  10.787  19.024  0.00  0.00    +0.000 A 
ATOM     12  C   UNL     1      -0.695  10.946  18.627  0.00  0.00    +0.000 A 
ATOM     13  C   UNL     1      -1.199  12.202  18.305  0.00  0.00    +0.000 A 
ATOM     14  C   UNL     1      -0.362  13.313  18.344  0.00  0.00    +0.000 A 
ATOM     15  C   UNL     1       0.993  13.179  18.696  0.00  0.00    +0.000 A 
ATOM     16  C   UNL     1       1.488  11.903  19.053  0.00  0.00    +0.000 A 
BRANCH  15  17
ATOM     17  C   UNL     1       1.905  14.377  18.678  0.00  0.00    +0.000 C 
ATOM     18  F   UNL     1       2.904  14.285  17.759  0.00  0.00    +0.000 F 
ATOM     19  F   UNL     1       1.241  15.537  18.392  0.00  0.00    +0.000 F 
ATOM     20  F   UNL     1       2.522  14.583  19.875  0.00  0.00    +0.000 F 
ENDBRANCH  15  17
ENDBRANCH   8  11
BRANCH   1  21
ATOM     21  C   UNL     1       1.757   5.316  17.835  0.00  0.00    +0.000 C 
BRANCH  21  26
ATOM     22  N   UNL     1       1.826   3.146  19.134  0.00  0.00    +0.000 N 
ATOM     23  N   UNL     1       2.388   1.926  19.040  0.00  0.00    +0.000 NA
ATOM     24  C   UNL     1       2.978   1.983  17.846  0.00  0.00    +0.000 A 
ATOM     25  N   UNL     1       2.816   3.160  17.179  0.00  0.00    +0.000 NA
ATOM     26  C   UNL     1       2.103   3.890  18.012  0.00  0.00    +0.000 A 
BRANCH  22  28
ATOM     27  C   UNL     1       1.440   2.717  21.548  0.00  0.00    +0.000 C 
ATOM     28  C   UNL     1       1.016   3.461  20.292  0.00  0.00    +0.000 C 
ENDBRANCH  22  28
ENDBRANCH  21  26
ENDBRANCH   1  21
TORSDOF 5
ENDMDL
MODEL 6
REMARK VINA RESULT:      -7.5      1.889      2.419
REMARK  Name = 
REMARK  6 active torsions:
REMARK  status: ('A' for Active; 'I' for Inactive)
REMARK    1  A    between atoms: C_1  and  C_2
REMARK    2  A    between atoms: C_2  and  N_3
REMARK    3  A    between atoms: C_7  and  C_8
REMARK    4  A    between atoms: C_8  and  N_9
REMARK    5  A    between atoms: N_16  and  C_17
REMARK    6  A    between atoms: C_21  and  C_22
REMARK                            x       y       z     vdW  Elec       q    Type
REMARK                         _______ _______ _______ _____ _____    ______ ____
ROOT
ATOM      1  N   UNL     1       5.743   4.966  16.355  0.00  0.00    +0.000 N 
ATOM      2  C   UNL     1       5.827   6.306  16.739  0.00  0.00    +0.000 A 
ATOM      3  N   UNL     1       4.941   6.947  17.449  0.00  0.00    +0.000 NA
ATOM      4  C   UNL     1       3.882   6.156  17.797  0.00  0.00    +0.000 A 
ATOM      5  C   UNL     1       3.867   4.786  17.701  0.00  0.00    +0.000 A 
ATOM      6  C   UNL     1       2.556   4.384  17.914  0.00  0.00    +0.000 A 
ATOM      7  N   UNL     1       1.773   5.425  18.185  0.00  0.00    +0.000 NA
ATOM      8  N   UNL     1       2.613   6.512  18.240  0.00  0.00    +0.000 N 
ATOM      9  C   UNL     1       5.040   4.127  17.220  0.00  0.00    +0.000 A 
ATOM     10  O   UNL     1       5.332   2.965  17.480  0.00  0.00    +0.000 OA
ENDROOT
BRANCH   8  11
ATOM     11  C   UNL     1       2.105   7.757  18.708  0.00  0.00    +0.000 A 
ATOM     12  C   UNL     1       2.028   8.821  17.793  0.00  0.00    +0.000 A 
ATOM     13  C   UNL     1       1.454  10.035  18.156  0.00  0.00    +0.000 A 
ATOM     14  C   UNL     1       0.976  10.213  19.450  0.00  0.00    +0.000 A 
ATOM     15  C   UNL     1       1.078   9.182  20.402  0.00  0.00    +0.000 A 
ATOM     16  C   UNL     1       1.634   7.941  20.015  0.00  0.00    +0.000 A 
BRANCH  15  17
ATOM     17  C   UNL     1       0.613   9.405  21.817  0.00  0.00    +0.000 C 
ATOM     18  F   UNL     1       0.188  10.676  22.054  0.00  0.00    +0.000 F 
ATOM     19  F   UNL     1      -0.431   8.593  22.159  0.00  0.00    +0.000 F 
ATOM     20  F   UNL     1       1.592   9.165  22.733  0.00  0.00    +0.000 F 
ENDBRANCH  15  17
ENDBRANCH   8  11
BRANCH   1  21
ATOM     21  C   UNL     1       5.239   4.751  15.005  0.00  0.00    +0.000 C 
BRANCH  21  26
ATOM     22  N   UNL     1       6.226   4.079  12.774  0.00  0.00    +0.000 N 
ATOM     23  N   UNL     1       7.375   4.226  12.089  0.00  0.00    +0.000 NA
ATOM     24  C   UNL     1       8.070   5.040  12.884  0.00  0.00    +0.000 A 
ATOM     25  N   UNL     1       7.427   5.421  14.023  0.00  0.00    +0.000 NA
ATOM     26  C   UNL     1       6.272   4.791  13.948  0.00  0.00    +0.000 A 
BRANCH  22  28
ATOM     27  C   UNL     1       5.641   2.085  11.415  0.00  0.00    +0.000 C 
ATOM     28  C   UNL     1       5.154   3.297  12.192  0.00  0.00    +0.000 C 
ENDBRANCH  22  28
ENDBRANCH  21  26
ENDBRANCH   1  21
TORSDOF 5
ENDMDL
MODEL 7
REMARK VINA RESULT:      -7.5      2.760      4.439
REMARK  Name = 
REMARK  6 active torsions:
REMARK  status: ('A' for Active; 'I' for Inactive)
REMARK    1  A    between atoms: C_1  and  C_2
REMARK    2  A    between atoms: C_2  and  N_3
REMARK    3  A    between atoms: C_7  and  C_8
REMARK    4  A    between atoms: C_8  and  N_9
REMARK    5  A    between atoms: N_16  and  C_17
REMARK    6  A    between atoms: C_21  and  C_22
REMARK                            x       y       z     vdW  Elec       q    Type
REMARK                         _______ _______ _______ _____ _____    ______ ____
ROOT
ATOM      1  N   UNL     1       4.046   5.009  19.107  0.00  0.00    +0.000 N 
ATOM      2  C   UNL     1       3.204   5.128  20.216  0.00  0.00    +0.000 A 
ATOM      3  N   UNL     1       2.350   6.092  20.417  0.00  0.00    +0.000 NA
ATOM      4  C   UNL     1       2.352   7.010  19.404  0.00  0.00    +0.000 A 
ATOM      5  C   UNL     1       2.933   6.814  18.175  0.00  0.00    +0.000 A 
ATOM      6  C   UNL     1       2.933   8.042  17.530  0.00  0.00    +0.000 A 
ATOM      7  N   UNL     1       2.340   8.974  18.272  0.00  0.00    +0.000 NA
ATOM      8  N   UNL     1       1.865   8.312  19.380  0.00  0.00    +0.000 N 
ATOM      9  C   UNL     1       3.569   5.560  17.917  0.00  0.00    +0.000 A 
ATOM     10  O   UNL     1       3.730   5.087  16.798  0.00  0.00    +0.000 OA
ENDROOT
BRANCH   8  11
ATOM     11  C   UNL     1       1.003   9.000  20.282  0.00  0.00    +0.000 A 
ATOM     12  C   UNL     1       1.032   8.622  21.635  0.00  0.00    +0.000 A 
ATOM     13  C   UNL     1       0.289   9.314  22.586  0.00  0.00    +0.000 A 
ATOM     14  C   UNL     1      -0.519  10.377  22.191  0.00  0.00    +0.000 A 
ATOM     15  C   UNL     1      -0.602  10.752  20.838  0.00  0.00    +0.000 A 
ATOM     16  C   UNL     1       0.182  10.063  19.883  0.00  0.00    +0.000 A 
BRANCH  15  17
ATOM     17  C   UNL     1      -1.524  11.864  20.413  0.00  0.00    +0.000 C 
ATOM     18  F   UNL     1      -0.871  12.958  19.937  0.00  0.00    +0.000 F 
ATOM     19  F   UNL     1      -2.383  11.481  19.422  0.00  0.00    +0.000 F 
ATOM     20  F   UNL     1      -2.305  12.315  21.434  0.00  0.00    +0.000 F 
ENDBRANCH  15  17
ENDBRANCH   8  11
BRANCH   1  21
ATOM     21  C   UNL     1       5.403   5.495  19.319  0.00  0.00    +0.000 C 
BRANCH  21  26
ATOM     22  N   UNL     1       6.781   6.271  17.344  0.00  0.00    +0.000 N 
ATOM     23  N   UNL     1       7.483   5.738  16.326  0.00  0.00    +0.000 NA
ATOM     24  C   UNL     1       7.422   4.435  16.599  0.00  0.00    +0.000 A 
ATOM     25  N   UNL     1       6.733   4.114  17.730  0.00  0.00    +0.000 NA
ATOM     26  C   UNL     1       6.318   5.282  18.178  0.00  0.00    +0.000 A 
BRANCH  22  28
ATOM     27  C   UNL     1       7.984   8.397  17.788  0.00  0.00    +0.000 C 
ATOM     28  C   UNL     1       6.671   7.711  17.446  0.00  0.00    +0.000 C 
ENDBRANCH  22  28
ENDBRANCH  21  26
ENDBRANCH   1  21
TORSDOF 5
ENDMDL
MODEL 8
REMARK VINA RESULT:      -7.4      3.096      4.696
REMARK  Name = 
REMARK  6 active torsions:
REMARK  status: ('A' for Active; 'I' for Inactive)
REMARK    1  A    between atoms: C_1  and  C_2
REMARK    2  A    between atoms: C_2  and  N_3
REMARK    3  A    between atoms: C_7  and  C_8
REMARK    4  A    between atoms: C_8  and  N_9
REMARK    5  A    between atoms: N_16  and  C_17
REMARK    6  A    between atoms: C_21  and  C_22
REMARK                            x       y       z     vdW  Elec       q    Type
REMARK                         _______ _______ _______ _____ _____    ______ ____
ROOT
ATOM      1  N   UNL     1       4.044   5.074  19.116  0.00  0.00    +0.000 N 
ATOM      2  C   UNL     1       3.147   5.392  20.139  0.00  0.00    +0.000 A 
ATOM      3  N   UNL     1       2.326   6.405  20.138  0.00  0.00    +0.000 NA
ATOM      4  C   UNL     1       2.428   7.157  19.001  0.00  0.00    +0.000 A 
ATOM      5  C   UNL     1       3.068   6.754  17.854  0.00  0.00    +0.000 A 
ATOM      6  C   UNL     1       3.160   7.869  17.034  0.00  0.00    +0.000 A 
ATOM      7  N   UNL     1       2.568   8.924  17.589  0.00  0.00    +0.000 NA
ATOM      8  N   UNL     1       2.001   8.456  18.751  0.00  0.00    +0.000 N 
ATOM      9  C   UNL     1       3.661   5.454  17.829  0.00  0.00    +0.000 A 
ATOM     10  O   UNL     1       3.864   4.810  16.806  0.00  0.00    +0.000 OA
ENDROOT
BRANCH   8  11
ATOM     11  C   UNL     1       1.121   9.304  19.483  0.00  0.00    +0.000 A 
ATOM     12  C   UNL     1       0.546  10.393  18.806  0.00  0.00    +0.000 A 
ATOM     13  C   UNL     1      -0.396  11.205  19.430  0.00  0.00    +0.000 A 
ATOM     14  C   UNL     1      -0.753  10.958  20.752  0.00  0.00    +0.000 A 
ATOM     15  C   UNL     1      -0.164   9.901  21.469  0.00  0.00    +0.000 A 
ATOM     16  C   UNL     1       0.769   9.062  20.816  0.00  0.00    +0.000 A 
BRANCH  15  17
ATOM     17  C   UNL     1      -0.512   9.678  22.917  0.00  0.00    +0.000 C 
ATOM     18  F   UNL     1      -1.297  10.657  23.443  0.00  0.00    +0.000 F 
ATOM     19  F   UNL     1      -1.190   8.508  23.118  0.00  0.00    +0.000 F 
ATOM     20  F   UNL     1       0.588   9.616  23.717  0.00  0.00    +0.000 F 
ENDBRANCH  15  17
ENDBRANCH   8  11
BRANCH   1  21
ATOM     21  C   UNL     1       5.407   5.538  19.338  0.00  0.00    +0.000 C 
BRANCH  21  26
ATOM     22  N   UNL     1       6.807   6.271  17.362  0.00  0.00    +0.000 N 
ATOM     23  N   UNL     1       7.514   5.717  16.359  0.00  0.00    +0.000 NA
ATOM     24  C   UNL     1       7.440   4.419  16.652  0.00  0.00    +0.000 A 
ATOM     25  N   UNL     1       6.739   4.121  17.782  0.00  0.00    +0.000 NA
ATOM     26  C   UNL     1       6.330   5.299  18.208  0.00  0.00    +0.000 A 
BRANCH  22  28
ATOM     27  C   UNL     1       8.024   8.395  17.780  0.00  0.00    +0.000 C 
ATOM     28  C   UNL     1       6.708   7.714  17.440  0.00  0.00    +0.000 C 
ENDBRANCH  22  28
ENDBRANCH  21  26
ENDBRANCH   1  21
TORSDOF 5
ENDMDL
MODEL 9
REMARK VINA RESULT:      -7.3      5.652      9.561
REMARK  Name = 
REMARK  6 active torsions:
REMARK  status: ('A' for Active; 'I' for Inactive)
REMARK    1  A    between atoms: C_1  and  C_2
REMARK    2  A    between atoms: C_2  and  N_3
REMARK    3  A    between atoms: C_7  and  C_8
REMARK    4  A    between atoms: C_8  and  N_9
REMARK    5  A    between atoms: N_16  and  C_17
REMARK    6  A    between atoms: C_21  and  C_22
REMARK                            x       y       z     vdW  Elec       q    Type
REMARK                         _______ _______ _______ _____ _____    ______ ____
ROOT
ATOM      1  N   UNL     1      -0.406  11.361  20.232  0.00  0.00    +0.000 N 
ATOM      2  C   UNL     1      -0.350  10.195  21.000  0.00  0.00    +0.000 A 
ATOM      3  N   UNL     1       0.409   9.164  20.755  0.00  0.00    +0.000 NA
ATOM      4  C   UNL     1       1.175   9.335  19.636  0.00  0.00    +0.000 A 
ATOM      5  C   UNL     1       1.379  10.539  19.007  0.00  0.00    +0.000 A 
ATOM      6  C   UNL     1       1.999  10.259  17.798  0.00  0.00    +0.000 A 
ATOM      7  N   UNL     1       2.234   8.956  17.669  0.00  0.00    +0.000 NA
ATOM      8  N   UNL     1       1.841   8.393  18.860  0.00  0.00    +0.000 N 
ATOM      9  C   UNL     1       0.767  11.705  19.560  0.00  0.00    +0.000 A 
ATOM     10  O   UNL     1       1.184  12.846  19.395  0.00  0.00    +0.000 OA
ENDROOT
BRANCH   8  11
ATOM     11  C   UNL     1       2.148   7.026  19.115  0.00  0.00    +0.000 A 
ATOM     12  C   UNL     1       1.873   6.519  20.396  0.00  0.00    +0.000 A 
ATOM     13  C   UNL     1       2.058   5.171  20.686  0.00  0.00    +0.000 A 
ATOM     14  C   UNL     1       2.550   4.315  19.705  0.00  0.00    +0.000 A 
ATOM     15  C   UNL     1       2.875   4.801  18.426  0.00  0.00    +0.000 A 
ATOM     16  C   UNL     1       2.654   6.166  18.131  0.00  0.00    +0.000 A 
BRANCH  15  17
ATOM     17  C   UNL     1       3.464   3.879  17.390  0.00  0.00    +0.000 C 
ATOM     18  F   UNL     1       4.238   4.519  16.472  0.00  0.00    +0.000 F 
ATOM     19  F   UNL     1       4.258   2.913  17.940  0.00  0.00    +0.000 F 
ATOM     20  F   UNL     1       2.511   3.220  16.675  0.00  0.00    +0.000 F 
ENDBRANCH  15  17
ENDBRANCH   8  11
BRANCH   1  21
ATOM     21  C   UNL     1      -1.506  11.407  19.277  0.00  0.00    +0.000 C 
BRANCH  21  26
ATOM     22  N   UNL     1      -3.939  12.087  19.140  0.00  0.00    +0.000 N 
ATOM     23  N   UNL     1      -4.794  12.923  19.758  0.00  0.00    +0.000 NA
ATOM     24  C   UNL     1      -4.044  13.405  20.748  0.00  0.00    +0.000 A 
ATOM     25  N   UNL     1      -2.773  12.918  20.798  0.00  0.00    +0.000 NA
ATOM     26  C   UNL     1      -2.716  12.102  19.765  0.00  0.00    +0.000 A 
BRANCH  22  28
ATOM     27  C   UNL     1      -5.905  11.024  18.059  0.00  0.00    +0.000 C 
ATOM     28  C   UNL     1      -4.410  11.298  18.020  0.00  0.00    +0.000 C 
ENDBRANCH  22  28
ENDBRANCH  21  26
ENDBRANCH   1  21
TORSDOF 5
ENDMDL
