MODEL 1
REMARK VINA RESULT:      -9.0      0.000      0.000
REMARK  Name = 
REMARK  6 active torsions:
REMARK  status: ('A' for Active; 'I' for Inactive)
REMARK    1  A    between atoms: C_1  and  C_2
REMARK    2  A    between atoms: C_2  and  C_3
REMARK    3  A    between atoms: C_2  and  C_10
REMARK    4  A    between atoms: C_3  and  C_4
REMARK    5  A    between atoms: N_8  and  C_9
REMARK    6  A    between atoms: C_14  and  N_15
REMARK                            x       y       z     vdW  Elec       q    Type
REMARK                         _______ _______ _______ _____ _____    ______ ____
ROOT
ATOM      1  C   UNL     1       4.469   4.966  17.131  0.00  0.00    +0.000 A 
ATOM      2  C   UNL     1       3.655   3.833  17.010  0.00  0.00    +0.000 A 
ATOM      3  C   UNL     1       2.362   3.838  17.528  0.00  0.00    +0.000 A 
ATOM      4  C   UNL     1       1.863   4.970  18.182  0.00  0.00    +0.000 A 
ATOM      5  C   UNL     1       2.652   6.110  18.344  0.00  0.00    +0.000 A 
ATOM      6  C   UNL     1       3.951   6.088  17.804  0.00  0.00    +0.000 A 
ENDROOT
BRANCH   5   7
ATOM      7  N   UNL     1       2.193   7.255  19.051  0.00  0.00    +0.000 N 
ATOM      8  C   UNL     1       1.913   7.210  20.482  0.00  0.00    +0.000 C 
ATOM      9  C   UNL     1       1.364   8.555  20.764  0.00  0.00    +0.000 A 
ATOM     10  C   UNL     1       0.889   9.104  21.924  0.00  0.00    +0.000 A 
ATOM     11  N   UNL     1       0.404  10.364  21.966  0.00  0.00    +0.000 NA
ATOM     12  C   UNL     1       0.400  11.085  20.809  0.00  0.00    +0.000 A 
ATOM     13  C   UNL     1       0.865  10.612  19.594  0.00  0.00    +0.000 A 
ATOM     14  C   UNL     1       1.348   9.324  19.613  0.00  0.00    +0.000 A 
ATOM     15  C   UNL     1       1.885   8.510  18.514  0.00  0.00    +0.000 C 
ATOM     16  O   UNL     1       1.994   8.948  17.383  0.00  0.00    +0.000 OA
ENDBRANCH   5   7
BRANCH   1  18
ATOM     17  C   UNL     1       6.925   4.497  17.666  0.00  0.00    +0.000 C 
ATOM     18  C   UNL     1       5.900   4.929  16.603  0.00  0.00    +0.000 C 
BRANCH  18  19
ATOM     19  C   UNL     1       5.948   4.034  15.346  0.00  0.00    +0.000 C 
BRANCH  19  20
ATOM     20  C   UNL     1       6.801   4.596  14.260  0.00  0.00    +0.000 A 
ATOM     21  N   UNL     1       7.747   5.503  14.411  0.00  0.00    +0.000 NA
ATOM     22  N   UNL     1       8.297   5.759  13.179  0.00  0.00    +0.000 NA
ATOM     23  C   UNL     1       7.683   5.000  12.304  0.00  0.00    +0.000 A 
ATOM     24  N   UNL     1       6.736   4.254  12.936  0.00  0.00    +0.000 N 
ATOM     25  C   UNL     1       5.860   3.298  12.315  0.00  0.00    +0.000 C 
ENDBRANCH  19  20
ENDBRANCH  18  19
ENDBRANCH   1  18
TORSDOF 4
ENDMDL
MODEL 2
REMARK VINA RESULT:      -8.4      1.977      3.044
REMARK  Name = 
REMARK  6 active torsions:
REMARK  status: ('A' for Active; 'I' for Inactive)
REMARK    1  A    between atoms: C_1  and  C_2
REMARK    2  A    between atoms: C_2  and  C_3
REMARK    3  A    between atoms: C_2  and  C_10
REMARK    4  A    between atoms: C_3  and  C_4
REMARK    5  A    between atoms: N_8  and  C_9
REMARK    6  A    between atoms: C_14  and  N_15
REMARK                            x       y       z     vdW  Elec       q    Type
REMARK                         _______ _______ _______ _____ _____    ______ ____
ROOT
ATOM      1  C   UNL     1       4.250   4.560  16.826  0.00  0.00    +0.000 A 
ATOM      2  C   UNL     1       3.463   3.409  16.941  0.00  0.00    +0.000 A 
ATOM      3  C   UNL     1       2.278   3.436  17.674  0.00  0.00    +0.000 A 
ATOM      4  C   UNL     1       1.865   4.612  18.311  0.00  0.00    +0.000 A 
ATOM      5  C   UNL     1       2.634   5.774  18.239  0.00  0.00    +0.000 A 
ATOM      6  C   UNL     1       3.820   5.728  17.485  0.00  0.00    +0.000 A 
ENDROOT
BRANCH   5   7
ATOM      7  N   UNL     1       2.268   6.968  18.920  0.00  0.00    +0.000 N 
ATOM      8  C   UNL     1       1.987   6.978  20.351  0.00  0.00    +0.000 C 
ATOM      9  C   UNL     1       1.547   8.368  20.602  0.00  0.00    +0.000 A 
ATOM     10  C   UNL     1       1.118   8.979  21.750  0.00  0.00    +0.000 A 
ATOM     11  N   UNL     1       0.735  10.275  21.762  0.00  0.00    +0.000 NA
ATOM     12  C   UNL     1       0.787  10.967  20.590  0.00  0.00    +0.000 A 
ATOM     13  C   UNL     1       1.211  10.431  19.386  0.00  0.00    +0.000 A 
ATOM     14  C   UNL     1       1.590   9.109  19.434  0.00  0.00    +0.000 A 
ATOM     15  C   UNL     1       2.060   8.231  18.355  0.00  0.00    +0.000 C 
ATOM     16  O   UNL     1       2.201   8.633  17.214  0.00  0.00    +0.000 OA
ENDBRANCH   5   7
BRANCH   1  18
ATOM     17  C   UNL     1       5.387   4.206  14.564  0.00  0.00    +0.000 C 
ATOM     18  C   UNL     1       5.569   4.502  16.062  0.00  0.00    +0.000 C 
BRANCH  18  19
ATOM     19  C   UNL     1       6.351   5.810  16.311  0.00  0.00    +0.000 C 
BRANCH  19  20
ATOM     20  C   UNL     1       7.121   5.798  17.586  0.00  0.00    +0.000 A 
ATOM     21  N   UNL     1       7.363   4.739  18.333  0.00  0.00    +0.000 NA
ATOM     22  N   UNL     1       8.098   5.139  19.422  0.00  0.00    +0.000 NA
ATOM     23  C   UNL     1       8.297   6.431  19.314  0.00  0.00    +0.000 A 
ATOM     24  N   UNL     1       7.702   6.888  18.179  0.00  0.00    +0.000 N 
ATOM     25  C   UNL     1       7.704   8.248  17.712  0.00  0.00    +0.000 C 
ENDBRANCH  19  20
ENDBRANCH  18  19
ENDBRANCH   1  18
TORSDOF 4
ENDMDL
MODEL 3
REMARK VINA RESULT:      -8.0      1.275      1.674
REMARK  Name = 
REMARK  6 active torsions:
REMARK  status: ('A' for Active; 'I' for Inactive)
REMARK    1  A    between atoms: C_1  and  C_2
REMARK    2  A    between atoms: C_2  and  C_3
REMARK    3  A    between atoms: C_2  and  C_10
REMARK    4  A    between atoms: C_3  and  C_4
REMARK    5  A    between atoms: N_8  and  C_9
REMARK    6  A    between atoms: C_14  and  N_15
REMARK                            x       y       z     vdW  Elec       q    Type
REMARK                         _______ _______ _______ _____ _____    ______ ____
ROOT
ATOM      1  C   UNL     1       4.895   4.979  17.598  0.00  0.00    +0.000 A 
ATOM      2  C   UNL     1       4.464   3.776  18.168  0.00  0.00    +0.000 A 
ATOM      3  C   UNL     1       3.318   3.744  18.961  0.00  0.00    +0.000 A 
ATOM      4  C   UNL     1       2.589   4.914  19.203  0.00  0.00    +0.000 A 
ATOM      5  C   UNL     1       3.000   6.137  18.671  0.00  0.00    +0.000 A 
ATOM      6  C   UNL     1       4.153   6.146  17.865  0.00  0.00    +0.000 A 
ENDROOT
BRANCH   5   7
ATOM      7  N   UNL     1       2.312   7.351  18.943  0.00  0.00    +0.000 N 
ATOM      8  C   UNL     1       2.284   8.449  17.984  0.00  0.00    +0.000 C 
ATOM      9  C   UNL     1       1.573   9.522  18.714  0.00  0.00    +0.000 A 
ATOM     10  C   UNL     1       1.268  10.805  18.347  0.00  0.00    +0.000 A 
ATOM     11  N   UNL     1       0.620  11.646  19.183  0.00  0.00    +0.000 NA
ATOM     12  C   UNL     1       0.274  11.180  20.416  0.00  0.00    +0.000 A 
ATOM     13  C   UNL     1       0.538   9.898  20.867  0.00  0.00    +0.000 A 
ATOM     14  C   UNL     1       1.198   9.086  19.973  0.00  0.00    +0.000 A 
ATOM     15  C   UNL     1       1.652   7.698  20.128  0.00  0.00    +0.000 C 
ATOM     16  O   UNL     1       1.444   7.063  21.147  0.00  0.00    +0.000 OA
ENDBRANCH   5   7
BRANCH   1  18
ATOM     17  C   UNL     1       7.405   4.497  17.549  0.00  0.00    +0.000 C 
ATOM     18  C   UNL     1       6.179   5.009  16.774  0.00  0.00    +0.000 C 
BRANCH  18  19
ATOM     19  C   UNL     1       5.950   4.232  15.460  0.00  0.00    +0.000 C 
BRANCH  19  20
ATOM     20  C   UNL     1       6.821   4.699  14.345  0.00  0.00    +0.000 A 
ATOM     21  N   UNL     1       7.792   5.587  14.442  0.00  0.00    +0.000 NA
ATOM     22  N   UNL     1       8.353   5.748  13.199  0.00  0.00    +0.000 NA
ATOM     23  C   UNL     1       7.721   4.951  12.371  0.00  0.00    +0.000 A 
ATOM     24  N   UNL     1       6.752   4.274  13.045  0.00  0.00    +0.000 N 
ATOM     25  C   UNL     1       5.851   3.304  12.482  0.00  0.00    +0.000 C 
ENDBRANCH  19  20
ENDBRANCH  18  19
ENDBRANCH   1  18
TORSDOF 4
ENDMDL
MODEL 4
REMARK VINA RESULT:      -7.9      2.322      3.696
REMARK  Name = 
REMARK  6 active torsions:
REMARK  status: ('A' for Active; 'I' for Inactive)
REMARK    1  A    between atoms: C_1  and  C_2
REMARK    2  A    between atoms: C_2  and  C_3
REMARK    3  A    between atoms: C_2  and  C_10
REMARK    4  A    between atoms: C_3  and  C_4
REMARK    5  A    between atoms: N_8  and  C_9
REMARK    6  A    between atoms: C_14  and  N_15
REMARK                            x       y       z     vdW  Elec       q    Type
REMARK                         _______ _______ _______ _____ _____    ______ ____
ROOT
ATOM      1  C   UNL     1       3.004   6.335  19.222  0.00  0.00    +0.000 A 
ATOM      2  C   UNL     1       3.342   6.670  17.906  0.00  0.00    +0.000 A 
ATOM      3  C   UNL     1       2.921   7.880  17.357  0.00  0.00    +0.000 A 
ATOM      4  C   UNL     1       2.150   8.771  18.112  0.00  0.00    +0.000 A 
ATOM      5  C   UNL     1       1.773   8.463  19.420  0.00  0.00    +0.000 A 
ATOM      6  C   UNL     1       2.217   7.242  19.958  0.00  0.00    +0.000 A 
ENDROOT
BRANCH   5   7
ATOM      7  N   UNL     1       0.945   9.323  20.192  0.00  0.00    +0.000 N 
ATOM      8  C   UNL     1       0.695   9.079  21.608  0.00  0.00    +0.000 C 
ATOM      9  C   UNL     1      -0.286  10.128  21.966  0.00  0.00    +0.000 A 
ATOM     10  C   UNL     1      -0.924  10.391  23.149  0.00  0.00    +0.000 A 
ATOM     11  N   UNL     1      -1.815  11.400  23.263  0.00  0.00    +0.000 NA
ATOM     12  C   UNL     1      -2.067  12.158  22.160  0.00  0.00    +0.000 A 
ATOM     13  C   UNL     1      -1.465  11.965  20.928  0.00  0.00    +0.000 A 
ATOM     14  C   UNL     1      -0.566  10.925  20.871  0.00  0.00    +0.000 A 
ATOM     15  C   UNL     1       0.222  10.431  19.734  0.00  0.00    +0.000 C 
ATOM     16  O   UNL     1       0.173  10.961  18.639  0.00  0.00    +0.000 OA
ENDBRANCH   5   7
BRANCH   1  18
ATOM     17  C   UNL     1       2.291   4.255  20.526  0.00  0.00    +0.000 C 
ATOM     18  C   UNL     1       3.428   4.985  19.792  0.00  0.00    +0.000 C 
BRANCH  18  19
ATOM     19  C   UNL     1       4.037   4.131  18.659  0.00  0.00    +0.000 C 
BRANCH  19  20
ATOM     20  C   UNL     1       5.488   4.395  18.443  0.00  0.00    +0.000 A 
ATOM     21  N   UNL     1       6.361   4.723  19.376  0.00  0.00    +0.000 NA
ATOM     22  N   UNL     1       7.588   4.884  18.778  0.00  0.00    +0.000 NA
ATOM     23  C   UNL     1       7.441   4.643  17.498  0.00  0.00    +0.000 A 
ATOM     24  N   UNL     1       6.141   4.334  17.241  0.00  0.00    +0.000 N 
ATOM     25  C   UNL     1       5.589   4.003  15.955  0.00  0.00    +0.000 C 
ENDBRANCH  19  20
ENDBRANCH  18  19
ENDBRANCH   1  18
TORSDOF 4
ENDMDL
MODEL 5
REMARK VINA RESULT:      -7.9      2.653      4.324
REMARK  Name = 
REMARK  6 active torsions:
REMARK  status: ('A' for Active; 'I' for Inactive)
REMARK    1  A    between atoms: C_1  and  C_2
REMARK    2  A    between atoms: C_2  and  C_3
REMARK    3  A    between atoms: C_2  and  C_10
REMARK    4  A    between atoms: C_3  and  C_4
REMARK    5  A    between atoms: N_8  and  C_9
REMARK    6  A    between atoms: C_14  and  N_15
REMARK                            x       y       z     vdW  Elec       q    Type
REMARK                         _______ _______ _______ _____ _____    ______ ____
ROOT
ATOM      1  C   UNL     1       2.745   6.789  19.367  0.00  0.00    +0.000 A 
ATOM      2  C   UNL     1       3.154   7.108  18.067  0.00  0.00    +0.000 A 
ATOM      3  C   UNL     1       2.722   8.288  17.463  0.00  0.00    +0.000 A 
ATOM      4  C   UNL     1       1.870   9.163  18.144  0.00  0.00    +0.000 A 
ATOM      5  C   UNL     1       1.421   8.869  19.433  0.00  0.00    +0.000 A 
ATOM      6  C   UNL     1       1.877   7.680  20.028  0.00  0.00    +0.000 A 
ENDROOT
BRANCH   5   7
ATOM      7  N   UNL     1       0.512   9.712  20.129  0.00  0.00    +0.000 N 
ATOM      8  C   UNL     1      -0.531  10.456  19.431  0.00  0.00    +0.000 C 
ATOM      9  C   UNL     1      -1.148  11.266  20.505  0.00  0.00    +0.000 A 
ATOM     10  C   UNL     1      -2.158  12.189  20.463  0.00  0.00    +0.000 A 
ATOM     11  N   UNL     1      -2.566  12.844  21.572  0.00  0.00    +0.000 NA
ATOM     12  C   UNL     1      -1.939  12.561  22.748  0.00  0.00    +0.000 A 
ATOM     13  C   UNL     1      -0.913  11.641  22.882  0.00  0.00    +0.000 A 
ATOM     14  C   UNL     1      -0.541  11.003  21.721  0.00  0.00    +0.000 A 
ATOM     15  C   UNL     1       0.512  10.004  21.498  0.00  0.00    +0.000 C 
ATOM     16  O   UNL     1       1.201   9.582  22.409  0.00  0.00    +0.000 OA
ENDBRANCH   5   7
BRANCH   1  18
ATOM     17  C   UNL     1       2.066   4.781  20.796  0.00  0.00    +0.000 C 
ATOM     18  C   UNL     1       3.184   5.471  19.997  0.00  0.00    +0.000 C 
BRANCH  18  19
ATOM     19  C   UNL     1       3.765   4.558  18.896  0.00  0.00    +0.000 C 
BRANCH  19  20
ATOM     20  C   UNL     1       5.240   4.703  18.734  0.00  0.00    +0.000 A 
ATOM     21  N   UNL     1       6.090   5.055  19.679  0.00  0.00    +0.000 NA
ATOM     22  N   UNL     1       7.351   5.077  19.135  0.00  0.00    +0.000 NA
ATOM     23  C   UNL     1       7.247   4.730  17.875  0.00  0.00    +0.000 A 
ATOM     24  N   UNL     1       5.942   4.487  17.578  0.00  0.00    +0.000 N 
ATOM     25  C   UNL     1       5.428   4.078  16.299  0.00  0.00    +0.000 C 
ENDBRANCH  19  20
ENDBRANCH  18  19
ENDBRANCH   1  18
TORSDOF 4
ENDMDL
MODEL 6
REMARK VINA RESULT:      -7.9      2.549      4.220
REMARK  Name = 
REMARK  6 active torsions:
REMARK  status: ('A' for Active; 'I' for Inactive)
REMARK    1  A    between atoms: C_1  and  C_2
REMARK    2  A    between atoms: C_2  and  C_3
REMARK    3  A    between atoms: C_2  and  C_10
REMARK    4  A    between atoms: C_3  and  C_4
REMARK    5  A    between atoms: N_8  and  C_9
REMARK    6  A    between atoms: C_14  and  N_15
REMARK                            x       y       z     vdW  Elec       q    Type
REMARK                         _______ _______ _______ _____ _____    ______ ____
ROOT
ATOM      1  C   UNL     1       2.525   6.817  19.422  0.00  0.00    +0.000 A 
ATOM      2  C   UNL     1       2.621   7.069  18.049  0.00  0.00    +0.000 A 
ATOM      3  C   UNL     1       2.152   8.270  17.520  0.00  0.00    +0.000 A 
ATOM      4  C   UNL     1       1.573   9.234  18.353  0.00  0.00    +0.000 A 
ATOM      5  C   UNL     1       1.439   9.010  19.724  0.00  0.00    +0.000 A 
ATOM      6  C   UNL     1       1.928   7.796  20.239  0.00  0.00    +0.000 A 
ENDROOT
BRANCH   5   7
ATOM      7  N   UNL     1       0.805   9.947  20.586  0.00  0.00    +0.000 N 
ATOM      8  C   UNL     1      -0.139   9.525  21.614  0.00  0.00    +0.000 C 
ATOM      9  C   UNL     1      -0.623  10.806  22.177  0.00  0.00    +0.000 A 
ATOM     10  C   UNL     1      -1.549  11.062  23.152  0.00  0.00    +0.000 A 
ATOM     11  N   UNL     1      -1.868  12.325  23.511  0.00  0.00    +0.000 NA
ATOM     12  C   UNL     1      -1.239  13.350  22.871  0.00  0.00    +0.000 A 
ATOM     13  C   UNL     1      -0.289  13.181  21.878  0.00  0.00    +0.000 A 
ATOM     14  C   UNL     1      -0.003  11.875  21.555  0.00  0.00    +0.000 A 
ATOM     15  C   UNL     1       0.921  11.341  20.546  0.00  0.00    +0.000 C 
ATOM     16  O   UNL     1       1.609  12.070  19.853  0.00  0.00    +0.000 OA
ENDBRANCH   5   7
BRANCH   1  18
ATOM     17  C   UNL     1       1.906   4.735  20.770  0.00  0.00    +0.000 C 
ATOM     18  C   UNL     1       2.996   5.477  19.980  0.00  0.00    +0.000 C 
BRANCH  18  19
ATOM     19  C   UNL     1       3.566   4.625  18.825  0.00  0.00    +0.000 C 
BRANCH  19  20
ATOM     20  C   UNL     1       5.047   4.731  18.695  0.00  0.00    +0.000 A 
ATOM     21  N   UNL     1       5.892   4.989  19.674  0.00  0.00    +0.000 NA
ATOM     22  N   UNL     1       7.162   5.006  19.151  0.00  0.00    +0.000 NA
ATOM     23  C   UNL     1       7.067   4.751  17.868  0.00  0.00    +0.000 A 
ATOM     24  N   UNL     1       5.760   4.573  17.537  0.00  0.00    +0.000 N 
ATOM     25  C   UNL     1       5.254   4.271  16.225  0.00  0.00    +0.000 C 
ENDBRANCH  19  20
ENDBRANCH  18  19
ENDBRANCH   1  18
TORSDOF 4
ENDMDL
MODEL 7
REMARK VINA RESULT:      -7.9      1.914      2.936
REMARK  Name = 
REMARK  6 active torsions:
REMARK  status: ('A' for Active; 'I' for Inactive)
REMARK    1  A    between atoms: C_1  and  C_2
REMARK    2  A    between atoms: C_2  and  C_3
REMARK    3  A    between atoms: C_2  and  C_10
REMARK    4  A    between atoms: C_3  and  C_4
REMARK    5  A    between atoms: N_8  and  C_9
REMARK    6  A    between atoms: C_14  and  N_15
REMARK                            x       y       z     vdW  Elec       q    Type
REMARK                         _______ _______ _______ _____ _____    ______ ____
ROOT
ATOM      1  C   UNL     1       4.482   4.500  17.623  0.00  0.00    +0.000 A 
ATOM      2  C   UNL     1       4.307   3.444  18.524  0.00  0.00    +0.000 A 
ATOM      3  C   UNL     1       3.482   3.597  19.637  0.00  0.00    +0.000 A 
ATOM      4  C   UNL     1       2.826   4.810  19.872  0.00  0.00    +0.000 A 
ATOM      5  C   UNL     1       2.993   5.895  19.009  0.00  0.00    +0.000 A 
ATOM      6  C   UNL     1       3.821   5.715  17.886  0.00  0.00    +0.000 A 
ENDROOT
BRANCH   5   7
ATOM      7  N   UNL     1       2.383   7.156  19.251  0.00  0.00    +0.000 N 
ATOM      8  C   UNL     1       1.790   7.485  20.542  0.00  0.00    +0.000 C 
ATOM      9  C   UNL     1       1.188   8.817  20.311  0.00  0.00    +0.000 A 
ATOM     10  C   UNL     1       0.463   9.629  21.141  0.00  0.00    +0.000 A 
ATOM     11  N   UNL     1      -0.023  10.818  20.722  0.00  0.00    +0.000 NA
ATOM     12  C   UNL     1       0.229  11.194  19.437  0.00  0.00    +0.000 A 
ATOM     13  C   UNL     1       0.955  10.438  18.532  0.00  0.00    +0.000 A 
ATOM     14  C   UNL     1       1.426   9.239  19.015  0.00  0.00    +0.000 A 
ATOM     15  C   UNL     1       2.199   8.194  18.330  0.00  0.00    +0.000 C 
ATOM     16  O   UNL     1       2.556   8.312  17.172  0.00  0.00    +0.000 OA
ENDBRANCH   5   7
BRANCH   1  18
ATOM     17  C   UNL     1       5.160   5.343  15.306  0.00  0.00    +0.000 C 
ATOM     18  C   UNL     1       5.427   4.335  16.436  0.00  0.00    +0.000 C 
BRANCH  18  19
ATOM     19  C   UNL     1       6.884   4.395  16.943  0.00  0.00    +0.000 C 
BRANCH  19  20
ATOM     20  C   UNL     1       7.327   5.776  17.288  0.00  0.00    +0.000 A 
ATOM     21  N   UNL     1       7.461   6.778  16.442  0.00  0.00    +0.000 NA
ATOM     22  N   UNL     1       7.890   7.878  17.144  0.00  0.00    +0.000 NA
ATOM     23  C   UNL     1       8.000   7.528  18.403  0.00  0.00    +0.000 A 
ATOM     24  N   UNL     1       7.659   6.218  18.541  0.00  0.00    +0.000 N 
ATOM     25  C   UNL     1       7.648   5.473  19.770  0.00  0.00    +0.000 C 
ENDBRANCH  19  20
ENDBRANCH  18  19
ENDBRANCH   1  18
TORSDOF 4
ENDMDL
MODEL 8
REMARK VINA RESULT:      -7.8      3.912      5.295
REMARK  Name = 
REMARK  6 active torsions:
REMARK  status: ('A' for Active; 'I' for Inactive)
REMARK    1  A    between atoms: C_1  and  C_2
REMARK    2  A    between atoms: C_2  and  C_3
REMARK    3  A    between atoms: C_2  and  C_10
REMARK    4  A    between atoms: C_3  and  C_4
REMARK    5  A    between atoms: N_8  and  C_9
REMARK    6  A    between atoms: C_14  and  N_15
REMARK                            x       y       z     vdW  Elec       q    Type
REMARK                         _______ _______ _______ _____ _____    ______ ____
ROOT
ATOM      1  C   UNL     1       2.314   7.233  19.568  0.00  0.00    +0.000 A 
ATOM      2  C   UNL     1       2.733   7.537  18.268  0.00  0.00    +0.000 A 
ATOM      3  C   UNL     1       2.322   8.719  17.654  0.00  0.00    +0.000 A 
ATOM      4  C   UNL     1       1.480   9.612  18.326  0.00  0.00    +0.000 A 
ATOM      5  C   UNL     1       1.022   9.333  19.615  0.00  0.00    +0.000 A 
ATOM      6  C   UNL     1       1.457   8.141  20.220  0.00  0.00    +0.000 A 
ENDROOT
BRANCH   5   7
ATOM      7  N   UNL     1       0.122  10.195  20.302  0.00  0.00    +0.000 N 
ATOM      8  C   UNL     1      -0.925  10.926  19.599  0.00  0.00    +0.000 C 
ATOM      9  C   UNL     1      -1.528  11.762  20.661  0.00  0.00    +0.000 A 
ATOM     10  C   UNL     1      -2.536  12.687  20.608  0.00  0.00    +0.000 A 
ATOM     11  N   UNL     1      -2.930  13.368  21.707  0.00  0.00    +0.000 NA
ATOM     12  C   UNL     1      -2.291  13.109  22.882  0.00  0.00    +0.000 A 
ATOM     13  C   UNL     1      -1.267  12.189  23.026  0.00  0.00    +0.000 A 
ATOM     14  C   UNL     1      -0.909  11.525  21.875  0.00  0.00    +0.000 A 
ATOM     15  C   UNL     1       0.138  10.517  21.663  0.00  0.00    +0.000 C 
ATOM     16  O   UNL     1       0.836  10.113  22.576  0.00  0.00    +0.000 OA
ENDBRANCH   5   7
BRANCH   1  18
ATOM     17  C   UNL     1       1.542   4.981  20.499  0.00  0.00    +0.000 C 
ATOM     18  C   UNL     1       2.730   5.912  20.209  0.00  0.00    +0.000 C 
BRANCH  18  19
ATOM     19  C   UNL     1       3.798   5.239  19.320  0.00  0.00    +0.000 C 
BRANCH  19  20
ATOM     20  C   UNL     1       3.295   4.024  18.619  0.00  0.00    +0.000 A 
ATOM     21  N   UNL     1       2.528   4.012  17.547  0.00  0.00    +0.000 NA
ATOM     22  N   UNL     1       2.280   2.703  17.210  0.00  0.00    +0.000 NA
ATOM     23  C   UNL     1       2.907   1.945  18.077  0.00  0.00    +0.000 A 
ATOM     24  N   UNL     1       3.556   2.729  18.980  0.00  0.00    +0.000 N 
ATOM     25  C   UNL     1       4.357   2.265  20.081  0.00  0.00    +0.000 C 
ENDBRANCH  19  20
ENDBRANCH  18  19
ENDBRANCH   1  18
TORSDOF 4
ENDMDL
MODEL 9
REMARK VINA RESULT:      -7.7      1.840      8.910
REMARK  Name = 
REMARK  6 active torsions:
REMARK  status: ('A' for Active; 'I' for Inactive)
REMARK    1  A    between atoms: C_1  and  C_2
REMARK    2  A    between atoms: C_2  and  C_3
REMARK    3  A    between atoms: C_2  and  C_10
REMARK    4  A    between atoms: C_3  and  C_4
REMARK    5  A    between atoms: N_8  and  C_9
REMARK    6  A    between atoms: C_14  and  N_15
REMARK                            x       y       z     vdW  Elec       q    Type
REMARK                         _______ _______ _______ _____ _____    ______ ____
ROOT
ATOM      1  C   UNL     1       1.701   7.853  19.999  0.00  0.00    +0.000 A 
ATOM      2  C   UNL     1       1.202   6.936  20.932  0.00  0.00    +0.000 A 
ATOM      3  C   UNL     1       1.668   5.623  20.947  0.00  0.00    +0.000 A 
ATOM      4  C   UNL     1       2.634   5.202  20.026  0.00  0.00    +0.000 A 
ATOM      5  C   UNL     1       3.139   6.080  19.065  0.00  0.00    +0.000 A 
ATOM      6  C   UNL     1       2.663   7.403  19.074  0.00  0.00    +0.000 A 
ENDROOT
BRANCH   5   7
ATOM      7  N   UNL     1       4.079   5.667  18.081  0.00  0.00    +0.000 N 
ATOM      8  C   UNL     1       5.341   6.370  17.885  0.00  0.00    +0.000 C 
ATOM      9  C   UNL     1       5.934   5.685  16.715  0.00  0.00    +0.000 A 
ATOM     10  C   UNL     1       7.101   5.918  16.037  0.00  0.00    +0.000 A 
ATOM     11  N   UNL     1       7.455   5.179  14.962  0.00  0.00    +0.000 NA
ATOM     12  C   UNL     1       6.612   4.185  14.565  0.00  0.00    +0.000 A 
ATOM     13  C   UNL     1       5.417   3.878  15.194  0.00  0.00    +0.000 A 
ATOM     14  C   UNL     1       5.109   4.662  16.282  0.00  0.00    +0.000 A 
ATOM     15  C   UNL     1       3.927   4.631  17.153  0.00  0.00    +0.000 C 
ATOM     16  O   UNL     1       3.037   3.813  17.000  0.00  0.00    +0.000 OA
ENDBRANCH   5   7
BRANCH   1  18
ATOM     17  C   UNL     1       1.095   9.865  18.543  0.00  0.00    +0.000 C 
ATOM     18  C   UNL     1       1.146   9.273  19.962  0.00  0.00    +0.000 C 
BRANCH  18  19
ATOM     19  C   UNL     1      -0.235   9.290  20.653  0.00  0.00    +0.000 C 
BRANCH  19  20
ATOM     20  C   UNL     1      -0.485  10.538  21.429  0.00  0.00    +0.000 A 
ATOM     21  N   UNL     1      -0.086  10.773  22.664  0.00  0.00    +0.000 NA
ATOM     22  N   UNL     1      -0.514  12.028  23.022  0.00  0.00    +0.000 NA
ATOM     23  C   UNL     1      -1.157  12.536  21.997  0.00  0.00    +0.000 A 
ATOM     24  N   UNL     1      -1.166  11.637  20.976  0.00  0.00    +0.000 N 
ATOM     25  C   UNL     1      -1.768  11.829  19.685  0.00  0.00    +0.000 C 
ENDBRANCH  19  20
ENDBRANCH  18  19
ENDBRANCH   1  18
TORSDOF 4
ENDMDL
