MODEL 1
REMARK VINA RESULT:      -8.6      0.000      0.000
REMARK  Name = 
REMARK  4 active torsions:
REMARK  status: ('A' for Active; 'I' for Inactive)
REMARK    1  A    between atoms: N_3  and  C_4
REMARK    2  A    between atoms: C_4  and  C_5
REMARK    3  A    between atoms: N_11  and  C_12
REMARK    4  A    between atoms: C_16  and  C_17
REMARK                            x       y       z     vdW  Elec       q    Type
REMARK                         _______ _______ _______ _____ _____    ______ ____
ROOT
ATOM      1  C   UNL     1       4.583   4.209  18.852  0.00  0.00    +0.000 A 
ATOM      2  C   UNL     1       3.769   3.140  18.476  0.00  0.00    +0.000 A 
ATOM      3  C   UNL     1       2.381   3.288  18.448  0.00  0.00    +0.000 A 
ATOM      4  C   UNL     1       1.795   4.476  18.887  0.00  0.00    +0.000 A 
ATOM      5  C   UNL     1       2.589   5.524  19.372  0.00  0.00    +0.000 A 
ATOM      6  C   UNL     1       3.981   5.391  19.286  0.00  0.00    +0.000 A 
ENDROOT
BRANCH   5   7
ATOM      7  C   UNL     1       1.946   6.703  19.973  0.00  0.00    +0.000 A 
ATOM      8  N   UNL     1       1.522   6.772  21.225  0.00  0.00    +0.000 NA
ATOM      9  C   UNL     1       1.045   8.043  21.414  0.00  0.00    +0.000 A 
ATOM     10  C   UNL     1       1.176   8.785  20.265  0.00  0.00    +0.000 A 
ATOM     11  N   UNL     1       1.774   7.933  19.366  0.00  0.00    +0.000 N 
ATOM     12  C   UNL     1       2.132   8.331  18.017  0.00  0.00    +0.000 C 
ATOM     13  C   UNL     1       2.124   9.840  17.802  0.00  0.00    +0.000 C 
ATOM     14  C   UNL     1       0.872  10.450  18.426  0.00  0.00    +0.000 C 
ATOM     15  C   UNL     1       0.851  10.200  19.937  0.00  0.00    +0.000 C 
ENDBRANCH   5   7
BRANCH   1  19
ATOM     16  O   UNL     1       8.087   4.218  18.059  0.00  0.00    +0.000 OA
ATOM     17  C   UNL     1       6.909   4.531  17.929  0.00  0.00    +0.000 C 
ATOM     18  N   UNL     1       6.446   5.298  16.908  0.00  0.00    +0.000 N 
ATOM     19  N   UNL     1       5.992   4.174  18.873  0.00  0.00    +0.000 N 
ATOM     20  H   UNL     1       5.640   5.862  17.130  0.00  0.00    +0.000 HD
ATOM     21  H   UNL     1       6.436   3.820  19.713  0.00  0.00    +0.000 HD
BRANCH  18  22
ATOM     22  C   UNL     1       7.296   5.782  15.845  0.00  0.00    +0.000 C 
BRANCH  22  23
ATOM     23  C   UNL     1       7.035   5.094  14.533  0.00  0.00    +0.000 A 
ATOM     24  C   UNL     1       6.019   4.157  14.401  0.00  0.00    +0.000 A 
ATOM     25  C   UNL     1       5.849   3.528  13.175  0.00  0.00    +0.000 A 
ATOM     26  C   UNL     1       6.693   3.881  12.142  0.00  0.00    +0.000 A 
ATOM     27  N   UNL     1       7.659   4.809  12.280  0.00  0.00    +0.000 NA
ATOM     28  N   UNL     1       7.830   5.422  13.487  0.00  0.00    +0.000 NA
ENDBRANCH  22  23
ENDBRANCH  18  22
ENDBRANCH   1  19
TORSDOF 4
ENDMDL
MODEL 2
REMARK VINA RESULT:      -8.3      0.821      1.804
REMARK  Name = 
REMARK  4 active torsions:
REMARK  status: ('A' for Active; 'I' for Inactive)
REMARK    1  A    between atoms: N_3  and  C_4
REMARK    2  A    between atoms: C_4  and  C_5
REMARK    3  A    between atoms: N_11  and  C_12
REMARK    4  A    between atoms: C_16  and  C_17
REMARK                            x       y       z     vdW  Elec       q    Type
REMARK                         _______ _______ _______ _____ _____    ______ ____
ROOT
ATOM      1  C   UNL     1       4.543   4.834  18.788  0.00  0.00    +0.000 A 
ATOM      2  C   UNL     1       3.617   3.792  18.824  0.00  0.00    +0.000 A 
ATOM      3  C   UNL     1       2.260   4.049  18.624  0.00  0.00    +0.000 A 
ATOM      4  C   UNL     1       1.810   5.362  18.481  0.00  0.00    +0.000 A 
ATOM      5  C   UNL     1       2.709   6.434  18.551  0.00  0.00    +0.000 A 
ATOM      6  C   UNL     1       4.076   6.142  18.642  0.00  0.00    +0.000 A 
ENDROOT
BRANCH   5   7
ATOM      7  C   UNL     1       2.197   7.812  18.554  0.00  0.00    +0.000 A 
ATOM      8  N   UNL     1       2.192   8.615  17.502  0.00  0.00    +0.000 NA
ATOM      9  C   UNL     1       1.583   9.779  17.893  0.00  0.00    +0.000 A 
ATOM     10  C   UNL     1       1.193   9.705  19.208  0.00  0.00    +0.000 A 
ATOM     11  N   UNL     1       1.564   8.443  19.610  0.00  0.00    +0.000 N 
ATOM     12  C   UNL     1       1.303   7.928  20.942  0.00  0.00    +0.000 C 
ATOM     13  C   UNL     1       0.285   8.748  21.725  0.00  0.00    +0.000 C 
ATOM     14  C   UNL     1       0.585  10.237  21.572  0.00  0.00    +0.000 C 
ATOM     15  C   UNL     1       0.480  10.656  20.103  0.00  0.00    +0.000 C 
ENDBRANCH   5   7
BRANCH   1  19
ATOM     16  O   UNL     1       8.074   4.377  18.311  0.00  0.00    +0.000 OA
ATOM     17  C   UNL     1       6.948   4.768  18.027  0.00  0.00    +0.000 C 
ATOM     18  N   UNL     1       6.640   5.377  16.852  0.00  0.00    +0.000 N 
ATOM     19  N   UNL     1       5.936   4.674  18.936  0.00  0.00    +0.000 N 
ATOM     20  H   UNL     1       5.885   6.043  16.903  0.00  0.00    +0.000 HD
ATOM     21  H   UNL     1       6.281   4.439  19.860  0.00  0.00    +0.000 HD
BRANCH  18  22
ATOM     22  C   UNL     1       7.607   5.579  15.799  0.00  0.00    +0.000 C 
BRANCH  22  23
ATOM     23  C   UNL     1       7.187   4.957  14.496  0.00  0.00    +0.000 A 
ATOM     24  C   UNL     1       6.138   4.050  14.436  0.00  0.00    +0.000 A 
ATOM     25  C   UNL     1       5.819   3.480  13.212  0.00  0.00    +0.000 A 
ATOM     26  C   UNL     1       6.556   3.859  12.108  0.00  0.00    +0.000 A 
ATOM     27  N   UNL     1       7.557   4.757  12.178  0.00  0.00    +0.000 NA
ATOM     28  N   UNL     1       7.874   5.312  13.384  0.00  0.00    +0.000 NA
ENDBRANCH  22  23
ENDBRANCH  18  22
ENDBRANCH   1  19
TORSDOF 4
ENDMDL
MODEL 3
REMARK VINA RESULT:      -8.2      2.614      4.410
REMARK  Name = 
REMARK  4 active torsions:
REMARK  status: ('A' for Active; 'I' for Inactive)
REMARK    1  A    between atoms: N_3  and  C_4
REMARK    2  A    between atoms: C_4  and  C_5
REMARK    3  A    between atoms: N_11  and  C_12
REMARK    4  A    between atoms: C_16  and  C_17
REMARK                            x       y       z     vdW  Elec       q    Type
REMARK                         _______ _______ _______ _____ _____    ______ ____
ROOT
ATOM      1  C   UNL     1       1.984   7.355  19.618  0.00  0.00    +0.000 A 
ATOM      2  C   UNL     1       2.372   7.571  18.295  0.00  0.00    +0.000 A 
ATOM      3  C   UNL     1       2.227   8.833  17.717  0.00  0.00    +0.000 A 
ATOM      4  C   UNL     1       1.605   9.861  18.428  0.00  0.00    +0.000 A 
ATOM      5  C   UNL     1       1.109   9.635  19.718  0.00  0.00    +0.000 A 
ATOM      6  C   UNL     1       1.366   8.394  20.315  0.00  0.00    +0.000 A 
ENDROOT
BRANCH   5   7
ATOM      7  C   UNL     1       0.322  10.682  20.387  0.00  0.00    +0.000 A 
ATOM      8  N   UNL     1       0.715  11.348  21.462  0.00  0.00    +0.000 NA
ATOM      9  C   UNL     1      -0.261  12.270  21.737  0.00  0.00    +0.000 A 
ATOM     10  C   UNL     1      -1.280  12.187  20.820  0.00  0.00    +0.000 A 
ATOM     11  N   UNL     1      -0.886  11.196  19.952  0.00  0.00    +0.000 N 
ATOM     12  C   UNL     1      -1.667  10.803  18.792  0.00  0.00    +0.000 C 
ATOM     13  C   UNL     1      -2.753  11.805  18.419  0.00  0.00    +0.000 C 
ATOM     14  C   UNL     1      -3.498  12.258  19.672  0.00  0.00    +0.000 C 
ATOM     15  C   UNL     1      -2.540  12.957  20.641  0.00  0.00    +0.000 C 
ENDBRANCH   5   7
BRANCH   1  19
ATOM     16  O   UNL     1       2.868   4.050  20.714  0.00  0.00    +0.000 OA
ATOM     17  C   UNL     1       3.046   5.134  20.171  0.00  0.00    +0.000 C 
ATOM     18  N   UNL     1       4.172   5.449  19.479  0.00  0.00    +0.000 N 
ATOM     19  N   UNL     1       2.126   6.132  20.304  0.00  0.00    +0.000 N 
ATOM     20  H   UNL     1       4.420   6.426  19.492  0.00  0.00    +0.000 HD
ATOM     21  H   UNL     1       1.440   5.917  21.019  0.00  0.00    +0.000 HD
BRANCH  18  22
ATOM     22  C   UNL     1       5.252   4.513  19.274  0.00  0.00    +0.000 C 
BRANCH  22  23
ATOM     23  C   UNL     1       5.832   4.587  17.889  0.00  0.00    +0.000 A 
ATOM     24  C   UNL     1       5.020   4.772  16.778  0.00  0.00    +0.000 A 
ATOM     25  C   UNL     1       5.607   4.796  15.520  0.00  0.00    +0.000 A 
ATOM     26  C   UNL     1       6.978   4.650  15.441  0.00  0.00    +0.000 A 
ATOM     27  N   UNL     1       7.754   4.495  16.530  0.00  0.00    +0.000 NA
ATOM     28  N   UNL     1       7.175   4.465  17.766  0.00  0.00    +0.000 NA
ENDBRANCH  22  23
ENDBRANCH  18  22
ENDBRANCH   1  19
TORSDOF 4
ENDMDL
MODEL 4
REMARK VINA RESULT:      -8.1      2.009      3.155
REMARK  Name = 
REMARK  4 active torsions:
REMARK  status: ('A' for Active; 'I' for Inactive)
REMARK    1  A    between atoms: N_3  and  C_4
REMARK    2  A    between atoms: C_4  and  C_5
REMARK    3  A    between atoms: N_11  and  C_12
REMARK    4  A    between atoms: C_16  and  C_17
REMARK                            x       y       z     vdW  Elec       q    Type
REMARK                         _______ _______ _______ _____ _____    ______ ____
ROOT
ATOM      1  C   UNL     1       2.859   6.507  19.302  0.00  0.00    +0.000 A 
ATOM      2  C   UNL     1       2.886   7.017  18.004  0.00  0.00    +0.000 A 
ATOM      3  C   UNL     1       2.313   8.258  17.724  0.00  0.00    +0.000 A 
ATOM      4  C   UNL     1       1.625   8.952  18.720  0.00  0.00    +0.000 A 
ATOM      5  C   UNL     1       1.492   8.408  20.004  0.00  0.00    +0.000 A 
ATOM      6  C   UNL     1       2.170   7.215  20.288  0.00  0.00    +0.000 A 
ENDROOT
BRANCH   5   7
ATOM      7  C   UNL     1       0.634   9.080  20.992  0.00  0.00    +0.000 A 
ATOM      8  N   UNL     1      -0.011   8.464  21.971  0.00  0.00    +0.000 NA
ATOM      9  C   UNL     1      -0.642   9.436  22.703  0.00  0.00    +0.000 A 
ATOM     10  C   UNL     1      -0.386  10.680  22.181  0.00  0.00    +0.000 A 
ATOM     11  N   UNL     1       0.447  10.444  21.112  0.00  0.00    +0.000 N 
ATOM     12  C   UNL     1       0.996  11.506  20.288  0.00  0.00    +0.000 C 
ATOM     13  C   UNL     1       0.871  12.891  20.912  0.00  0.00    +0.000 C 
ATOM     14  C   UNL     1      -0.529  13.078  21.492  0.00  0.00    +0.000 C 
ATOM     15  C   UNL     1      -0.791  12.051  22.596  0.00  0.00    +0.000 C 
ENDBRANCH   5   7
BRANCH   1  19
ATOM     16  O   UNL     1       4.790   3.489  19.575  0.00  0.00    +0.000 OA
ATOM     17  C   UNL     1       4.570   4.652  19.258  0.00  0.00    +0.000 C 
ATOM     18  N   UNL     1       5.436   5.407  18.532  0.00  0.00    +0.000 N 
ATOM     19  N   UNL     1       3.445   5.286  19.696  0.00  0.00    +0.000 N 
ATOM     20  H   UNL     1       5.403   6.396  18.725  0.00  0.00    +0.000 HD
ATOM     21  H   UNL     1       2.971   4.755  20.418  0.00  0.00    +0.000 HD
BRANCH  18  22
ATOM     22  C   UNL     1       6.684   4.892  18.021  0.00  0.00    +0.000 C 
BRANCH  22  23
ATOM     23  C   UNL     1       6.700   4.788  16.521  0.00  0.00    +0.000 A 
ATOM     24  C   UNL     1       5.857   3.912  15.851  0.00  0.00    +0.000 A 
ATOM     25  C   UNL     1       5.942   3.833  14.468  0.00  0.00    +0.000 A 
ATOM     26  C   UNL     1       6.853   4.646  13.826  0.00  0.00    +0.000 A 
ATOM     27  N   UNL     1       7.648   5.508  14.488  0.00  0.00    +0.000 NA
ATOM     28  N   UNL     1       7.569   5.581  15.849  0.00  0.00    +0.000 NA
ENDBRANCH  22  23
ENDBRANCH  18  22
ENDBRANCH   1  19
TORSDOF 4
ENDMDL
MODEL 5
REMARK VINA RESULT:      -8.1      1.336      2.207
REMARK  Name = 
REMARK  4 active torsions:
REMARK  status: ('A' for Active; 'I' for Inactive)
REMARK    1  A    between atoms: N_3  and  C_4
REMARK    2  A    between atoms: C_4  and  C_5
REMARK    3  A    between atoms: N_11  and  C_12
REMARK    4  A    between atoms: C_16  and  C_17
REMARK                            x       y       z     vdW  Elec       q    Type
REMARK                         _______ _______ _______ _____ _____    ______ ____
ROOT
ATOM      1  C   UNL     1       4.677   4.870  17.862  0.00  0.00    +0.000 A 
ATOM      2  C   UNL     1       3.761   3.820  17.935  0.00  0.00    +0.000 A 
ATOM      3  C   UNL     1       2.391   4.083  17.974  0.00  0.00    +0.000 A 
ATOM      4  C   UNL     1       1.933   5.400  18.036  0.00  0.00    +0.000 A 
ATOM      5  C   UNL     1       2.839   6.467  18.075  0.00  0.00    +0.000 A 
ATOM      6  C   UNL     1       4.202   6.181  17.924  0.00  0.00    +0.000 A 
ENDROOT
BRANCH   5   7
ATOM      7  C   UNL     1       2.341   7.834  18.297  0.00  0.00    +0.000 A 
ATOM      8  N   UNL     1       2.319   8.785  17.377  0.00  0.00    +0.000 NA
ATOM      9  C   UNL     1       1.731   9.881  17.952  0.00  0.00    +0.000 A 
ATOM     10  C   UNL     1       1.375   9.614  19.252  0.00  0.00    +0.000 A 
ATOM     11  N   UNL     1       1.742   8.304  19.451  0.00  0.00    +0.000 N 
ATOM     12  C   UNL     1       1.509   7.598  20.698  0.00  0.00    +0.000 C 
ATOM     13  C   UNL     1       0.520   8.298  21.622  0.00  0.00    +0.000 C 
ATOM     14  C   UNL     1       0.832   9.792  21.685  0.00  0.00    +0.000 C 
ATOM     15  C   UNL     1       0.694  10.425  20.298  0.00  0.00    +0.000 C 
ENDBRANCH   5   7
BRANCH   1  19
ATOM     16  O   UNL     1       8.062   4.235  16.838  0.00  0.00    +0.000 OA
ATOM     17  C   UNL     1       6.896   4.586  16.695  0.00  0.00    +0.000 C 
ATOM     18  N   UNL     1       6.363   4.944  15.498  0.00  0.00    +0.000 N 
ATOM     19  N   UNL     1       6.075   4.710  17.777  0.00  0.00    +0.000 N 
ATOM     20  H   UNL     1       5.622   5.625  15.549  0.00  0.00    +0.000 HD
ATOM     21  H   UNL     1       6.592   4.663  18.648  0.00  0.00    +0.000 HD
BRANCH  18  22
ATOM     22  C   UNL     1       7.111   4.898  14.264  0.00  0.00    +0.000 C 
BRANCH  22  23
ATOM     23  C   UNL     1       6.457   4.037  13.219  0.00  0.00    +0.000 A 
ATOM     24  C   UNL     1       5.079   4.032  13.050  0.00  0.00    +0.000 A 
ATOM     25  C   UNL     1       4.529   3.189  12.094  0.00  0.00    +0.000 A 
ATOM     26  C   UNL     1       5.386   2.408  11.346  0.00  0.00    +0.000 A 
ATOM     27  N   UNL     1       6.723   2.442  11.506  0.00  0.00    +0.000 NA
ATOM     28  N   UNL     1       7.263   3.266  12.451  0.00  0.00    +0.000 NA
ENDBRANCH  22  23
ENDBRANCH  18  22
ENDBRANCH   1  19
TORSDOF 4
ENDMDL
MODEL 6
REMARK VINA RESULT:      -8.1      1.163      2.005
REMARK  Name = 
REMARK  4 active torsions:
REMARK  status: ('A' for Active; 'I' for Inactive)
REMARK    1  A    between atoms: N_3  and  C_4
REMARK    2  A    between atoms: C_4  and  C_5
REMARK    3  A    between atoms: N_11  and  C_12
REMARK    4  A    between atoms: C_16  and  C_17
REMARK                            x       y       z     vdW  Elec       q    Type
REMARK                         _______ _______ _______ _____ _____    ______ ____
ROOT
ATOM      1  C   UNL     1       4.864   4.529  18.809  0.00  0.00    +0.000 A 
ATOM      2  C   UNL     1       3.975   3.512  19.158  0.00  0.00    +0.000 A 
ATOM      3  C   UNL     1       2.600   3.752  19.168  0.00  0.00    +0.000 A 
ATOM      4  C   UNL     1       2.113   5.037  18.923  0.00  0.00    +0.000 A 
ATOM      5  C   UNL     1       2.994   6.098  18.679  0.00  0.00    +0.000 A 
ATOM      6  C   UNL     1       4.360   5.807  18.565  0.00  0.00    +0.000 A 
ENDROOT
BRANCH   5   7
ATOM      7  C   UNL     1       2.470   7.468  18.577  0.00  0.00    +0.000 A 
ATOM      8  N   UNL     1       2.522   8.214  17.485  0.00  0.00    +0.000 NA
ATOM      9  C   UNL     1       1.879   9.389  17.775  0.00  0.00    +0.000 A 
ATOM     10  C   UNL     1       1.411   9.380  19.067  0.00  0.00    +0.000 A 
ATOM     11  N   UNL     1       1.768   8.146  19.557  0.00  0.00    +0.000 N 
ATOM     12  C   UNL     1       1.432   7.699  20.897  0.00  0.00    +0.000 C 
ATOM     13  C   UNL     1       0.361   8.546  21.573  0.00  0.00    +0.000 C 
ATOM     14  C   UNL     1       0.656  10.029  21.359  0.00  0.00    +0.000 C 
ATOM     15  C   UNL     1       0.636  10.368  19.866  0.00  0.00    +0.000 C 
ENDBRANCH   5   7
BRANCH   1  19
ATOM     16  O   UNL     1       8.277   4.132  17.760  0.00  0.00    +0.000 OA
ATOM     17  C   UNL     1       7.119   4.523  17.676  0.00  0.00    +0.000 C 
ATOM     18  N   UNL     1       6.628   5.184  16.596  0.00  0.00    +0.000 N 
ATOM     19  N   UNL     1       6.264   4.377  18.728  0.00  0.00    +0.000 N 
ATOM     20  H   UNL     1       5.888   5.839  16.797  0.00  0.00    +0.000 HD
ATOM     21  H   UNL     1       6.751   4.101  19.574  0.00  0.00    +0.000 HD
BRANCH  18  22
ATOM     22  C   UNL     1       7.416   5.446  15.414  0.00  0.00    +0.000 C 
BRANCH  22  23
ATOM     23  C   UNL     1       6.890   4.738  14.196  0.00  0.00    +0.000 A 
ATOM     24  C   UNL     1       7.607   4.723  13.007  0.00  0.00    +0.000 A 
ATOM     25  C   UNL     1       7.056   4.085  11.905  0.00  0.00    +0.000 A 
ATOM     26  C   UNL     1       5.823   3.481  12.054  0.00  0.00    +0.000 A 
ATOM     27  N   UNL     1       5.151   3.485  13.220  0.00  0.00    +0.000 NA
ATOM     28  N   UNL     1       5.691   4.119  14.302  0.00  0.00    +0.000 NA
ENDBRANCH  22  23
ENDBRANCH  18  22
ENDBRANCH   1  19
TORSDOF 4
ENDMDL
MODEL 7
REMARK VINA RESULT:      -8.0      4.075      9.704
REMARK  Name = 
REMARK  4 active torsions:
REMARK  status: ('A' for Active; 'I' for Inactive)
REMARK    1  A    between atoms: N_3  and  C_4
REMARK    2  A    between atoms: C_4  and  C_5
REMARK    3  A    between atoms: N_11  and  C_12
REMARK    4  A    between atoms: C_16  and  C_17
REMARK                            x       y       z     vdW  Elec       q    Type
REMARK                         _______ _______ _______ _____ _____    ______ ____
ROOT
ATOM      1  C   UNL     1       1.194   8.546  20.580  0.00  0.00    +0.000 A 
ATOM      2  C   UNL     1       1.157   9.435  19.505  0.00  0.00    +0.000 A 
ATOM      3  C   UNL     1       1.686   9.066  18.268  0.00  0.00    +0.000 A 
ATOM      4  C   UNL     1       2.341   7.842  18.124  0.00  0.00    +0.000 A 
ATOM      5  C   UNL     1       2.486   6.980  19.219  0.00  0.00    +0.000 A 
ATOM      6  C   UNL     1       1.850   7.325  20.419  0.00  0.00    +0.000 A 
ENDROOT
BRANCH   5   7
ATOM      7  C   UNL     1       3.311   5.770  19.086  0.00  0.00    +0.000 A 
ATOM      8  N   UNL     1       4.612   5.716  19.327  0.00  0.00    +0.000 NA
ATOM      9  C   UNL     1       4.996   4.413  19.150  0.00  0.00    +0.000 A 
ATOM     10  C   UNL     1       3.920   3.634  18.798  0.00  0.00    +0.000 A 
ATOM     11  N   UNL     1       2.852   4.500  18.787  0.00  0.00    +0.000 N 
ATOM     12  C   UNL     1       1.494   4.079  18.496  0.00  0.00    +0.000 C 
ATOM     13  C   UNL     1       1.296   2.569  18.560  0.00  0.00    +0.000 C 
ATOM     14  C   UNL     1       2.442   1.860  17.842  0.00  0.00    +0.000 C 
ATOM     15  C   UNL     1       3.776   2.179  18.522  0.00  0.00    +0.000 C 
ENDBRANCH   5   7
BRANCH   1  19
ATOM     16  O   UNL     1      -0.025  10.026  23.619  0.00  0.00    +0.000 OA
ATOM     17  C   UNL     1       0.208   9.968  22.417  0.00  0.00    +0.000 C 
ATOM     18  N   UNL     1      -0.021  10.997  21.559  0.00  0.00    +0.000 N 
ATOM     19  N   UNL     1       0.651   8.807  21.855  0.00  0.00    +0.000 N 
ATOM     20  H   UNL     1      -0.248  10.722  20.616  0.00  0.00    +0.000 HD
ATOM     21  H   UNL     1       0.571   8.025  22.494  0.00  0.00    +0.000 HD
BRANCH  18  22
ATOM     22  C   UNL     1      -0.518  12.281  21.993  0.00  0.00    +0.000 C 
BRANCH  22  23
ATOM     23  C   UNL     1      -2.006  12.418  21.819  0.00  0.00    +0.000 A 
ATOM     24  C   UNL     1      -2.560  12.728  20.585  0.00  0.00    +0.000 A 
ATOM     25  C   UNL     1      -3.937  12.878  20.492  0.00  0.00    +0.000 A 
ATOM     26  C   UNL     1      -4.688  12.693  21.635  0.00  0.00    +0.000 A 
ATOM     27  N   UNL     1      -4.137  12.371  22.820  0.00  0.00    +0.000 NA
ATOM     28  N   UNL     1      -2.783  12.230  22.912  0.00  0.00    +0.000 NA
ENDBRANCH  22  23
ENDBRANCH  18  22
ENDBRANCH   1  19
TORSDOF 4
ENDMDL
MODEL 8
REMARK VINA RESULT:      -8.0      1.189      1.390
REMARK  Name = 
REMARK  4 active torsions:
REMARK  status: ('A' for Active; 'I' for Inactive)
REMARK    1  A    between atoms: N_3  and  C_4
REMARK    2  A    between atoms: C_4  and  C_5
REMARK    3  A    between atoms: N_11  and  C_12
REMARK    4  A    between atoms: C_16  and  C_17
REMARK                            x       y       z     vdW  Elec       q    Type
REMARK                         _______ _______ _______ _____ _____    ______ ____
ROOT
ATOM      1  C   UNL     1       4.558   4.410  17.751  0.00  0.00    +0.000 A 
ATOM      2  C   UNL     1       3.711   3.414  17.266  0.00  0.00    +0.000 A 
ATOM      3  C   UNL     1       2.327   3.547  17.385  0.00  0.00    +0.000 A 
ATOM      4  C   UNL     1       1.785   4.633  18.074  0.00  0.00    +0.000 A 
ATOM      5  C   UNL     1       2.621   5.590  18.665  0.00  0.00    +0.000 A 
ATOM      6  C   UNL     1       4.000   5.491  18.436  0.00  0.00    +0.000 A 
ENDROOT
BRANCH   5   7
ATOM      7  C   UNL     1       2.038   6.638  19.516  0.00  0.00    +0.000 A 
ATOM      8  N   UNL     1       1.724   6.482  20.793  0.00  0.00    +0.000 NA
ATOM      9  C   UNL     1       1.270   7.694  21.242  0.00  0.00    +0.000 A 
ATOM     10  C   UNL     1       1.303   8.628  20.235  0.00  0.00    +0.000 A 
ATOM     11  N   UNL     1       1.818   7.953  19.152  0.00  0.00    +0.000 N 
ATOM     12  C   UNL     1       2.059   8.585  17.867  0.00  0.00    +0.000 C 
ATOM     13  C   UNL     1       2.038  10.108  17.922  0.00  0.00    +0.000 C 
ATOM     14  C   UNL     1       0.846  10.585  18.749  0.00  0.00    +0.000 C 
ATOM     15  C   UNL     1       0.956  10.074  20.189  0.00  0.00    +0.000 C 
ENDBRANCH   5   7
BRANCH   1  19
ATOM     16  O   UNL     1       7.972   4.158  16.661  0.00  0.00    +0.000 OA
ATOM     17  C   UNL     1       6.777   4.402  16.549  0.00  0.00    +0.000 C 
ATOM     18  N   UNL     1       6.194   4.771  15.378  0.00  0.00    +0.000 N 
ATOM     19  N   UNL     1       5.964   4.390  17.644  0.00  0.00    +0.000 N 
ATOM     20  H   UNL     1       5.391   5.373  15.473  0.00  0.00    +0.000 HD
ATOM     21  H   UNL     1       6.495   4.347  18.506  0.00  0.00    +0.000 HD
BRANCH  18  22
ATOM     22  C   UNL     1       6.924   4.862  14.135  0.00  0.00    +0.000 C 
BRANCH  22  23
ATOM     23  C   UNL     1       6.380   3.947  13.072  0.00  0.00    +0.000 A 
ATOM     24  C   UNL     1       5.031   3.944  12.747  0.00  0.00    +0.000 A 
ATOM     25  C   UNL     1       4.580   3.052  11.784  0.00  0.00    +0.000 A 
ATOM     26  C   UNL     1       5.506   2.223  11.184  0.00  0.00    +0.000 A 
ATOM     27  N   UNL     1       6.815   2.254  11.494  0.00  0.00    +0.000 NA
ATOM     28  N   UNL     1       7.257   3.127  12.446  0.00  0.00    +0.000 NA
ENDBRANCH  22  23
ENDBRANCH  18  22
ENDBRANCH   1  19
TORSDOF 4
ENDMDL
MODEL 9
REMARK VINA RESULT:      -7.8      3.791      9.498
REMARK  Name = 
REMARK  4 active torsions:
REMARK  status: ('A' for Active; 'I' for Inactive)
REMARK    1  A    between atoms: N_3  and  C_4
REMARK    2  A    between atoms: C_4  and  C_5
REMARK    3  A    between atoms: N_11  and  C_12
REMARK    4  A    between atoms: C_16  and  C_17
REMARK                            x       y       z     vdW  Elec       q    Type
REMARK                         _______ _______ _______ _____ _____    ______ ____
ROOT
ATOM      1  C   UNL     1       1.475   8.565  20.541  0.00  0.00    +0.000 A 
ATOM      2  C   UNL     1       1.129   9.565  19.631  0.00  0.00    +0.000 A 
ATOM      3  C   UNL     1       1.342   9.377  18.265  0.00  0.00    +0.000 A 
ATOM      4  C   UNL     1       1.988   8.228  17.809  0.00  0.00    +0.000 A 
ATOM      5  C   UNL     1       2.442   7.260  18.714  0.00  0.00    +0.000 A 
ATOM      6  C   UNL     1       2.118   7.420  20.067  0.00  0.00    +0.000 A 
ENDROOT
BRANCH   5   7
ATOM      7  C   UNL     1       3.255   6.135  18.227  0.00  0.00    +0.000 A 
ATOM      8  N   UNL     1       4.502   6.241  17.793  0.00  0.00    +0.000 NA
ATOM      9  C   UNL     1       4.926   4.973  17.491  0.00  0.00    +0.000 A 
ATOM     10  C   UNL     1       3.934   4.057  17.743  0.00  0.00    +0.000 A 
ATOM     11  N   UNL     1       2.889   4.802  18.235  0.00  0.00    +0.000 N 
ATOM     12  C   UNL     1       1.634   4.215  18.669  0.00  0.00    +0.000 C 
ATOM     13  C   UNL     1       1.702   2.706  18.871  0.00  0.00    +0.000 C 
ATOM     14  C   UNL     1       2.438   2.056  17.702  0.00  0.00    +0.000 C 
ATOM     15  C   UNL     1       3.876   2.575  17.620  0.00  0.00    +0.000 C 
ENDBRANCH   5   7
BRANCH   1  19
ATOM     16  O   UNL     1       0.629   9.532  23.896  0.00  0.00    +0.000 OA
ATOM     17  C   UNL     1       0.507   9.496  22.677  0.00  0.00    +0.000 C 
ATOM     18  N   UNL     1      -0.416  10.224  21.994  0.00  0.00    +0.000 N 
ATOM     19  N   UNL     1       1.263   8.639  21.933  0.00  0.00    +0.000 N 
ATOM     20  H   UNL     1      -0.745   9.801  21.141  0.00  0.00    +0.000 HD
ATOM     21  H   UNL     1       1.749   7.965  22.513  0.00  0.00    +0.000 HD
BRANCH  18  22
ATOM     22  C   UNL     1      -1.313  11.153  22.641  0.00  0.00    +0.000 C 
BRANCH  22  23
ATOM     23  C   UNL     1      -0.790  12.563  22.639  0.00  0.00    +0.000 A 
ATOM     24  C   UNL     1      -1.398  13.556  23.395  0.00  0.00    +0.000 A 
ATOM     25  C   UNL     1      -0.894  14.847  23.326  0.00  0.00    +0.000 A 
ATOM     26  C   UNL     1       0.202  15.074  22.517  0.00  0.00    +0.000 A 
ATOM     27  N   UNL     1       0.794  14.095  21.808  0.00  0.00    +0.000 NA
ATOM     28  N   UNL     1       0.293  12.826  21.871  0.00  0.00    +0.000 NA
ENDBRANCH  22  23
ENDBRANCH  18  22
ENDBRANCH   1  19
TORSDOF 4
ENDMDL
