MODEL 1
REMARK VINA RESULT:      -8.2      0.000      0.000
REMARK  Name = 
REMARK  5 active torsions:
REMARK  status: ('A' for Active; 'I' for Inactive)
REMARK    1  A    between atoms: C_1  and  C_2
REMARK    2  A    between atoms: N_4  and  C_5
REMARK    3  A    between atoms: C_10  and  C_11
REMARK    4  A    between atoms: N_13  and  C_14
REMARK    5  A    between atoms: C_18  and  C_19
REMARK                            x       y       z     vdW  Elec       q    Type
REMARK                         _______ _______ _______ _____ _____    ______ ____
ROOT
ATOM      1  C   UNL     1       2.196   8.345  18.195  0.00  0.00    +0.000 C 
ATOM      2  O   UNL     1       2.325   8.983  17.153  0.00  0.00    +0.000 OA
ATOM      3  N   UNL     1       1.460   8.751  19.299  0.00  0.00    +0.000 N 
ATOM      4  H   UNL     1       1.532   8.197  20.147  0.00  0.00    +0.000 HD
ENDROOT
BRANCH   1  10
ATOM      5  C   UNL     1       3.182   4.913  19.470  0.00  0.00    +0.000 A 
ATOM      6  C   UNL     1       4.228   4.585  18.607  0.00  0.00    +0.000 A 
ATOM      7  C   UNL     1       4.616   5.466  17.594  0.00  0.00    +0.000 A 
ATOM      8  C   UNL     1       3.963   6.685  17.441  0.00  0.00    +0.000 A 
ATOM      9  F   UNL     1       4.385   7.511  16.473  0.00  0.00    +0.000 F 
ATOM     10  C   UNL     1       2.905   7.034  18.277  0.00  0.00    +0.000 A 
ATOM     11  C   UNL     1       2.503   6.123  19.277  0.00  0.00    +0.000 A 
BRANCH   5  15
ATOM     12  C   UNL     1       1.473   2.562  21.882  0.00  0.00    +0.000 C 
ATOM     13  C   UNL     1       1.630   3.308  20.582  0.00  0.00    +0.000 C 
ATOM     14  O   UNL     1       0.799   3.185  19.688  0.00  0.00    +0.000 OA
ATOM     15  N   UNL     1       2.772   4.091  20.545  0.00  0.00    +0.000 N 
ATOM     16  H   UNL     1       3.433   3.973  21.302  0.00  0.00    +0.000 HD
ENDBRANCH   5  15
ENDBRANCH   1  10
BRANCH   3  17
ATOM     17  C   UNL     1       0.657   9.914  19.388  0.00  0.00    +0.000 A 
ATOM     18  C   UNL     1       0.905  10.938  20.306  0.00  0.00    +0.000 A 
ATOM     19  C   UNL     1       0.076  12.056  20.369  0.00  0.00    +0.000 A 
ATOM     20  C   UNL     1      -1.015  12.167  19.512  0.00  0.00    +0.000 A 
ATOM     21  C   UNL     1      -1.278  11.168  18.565  0.00  0.00    +0.000 A 
ATOM     22  C   UNL     1      -0.424  10.052  18.504  0.00  0.00    +0.000 A 
BRANCH  21  23
ATOM     23  C   UNL     1      -2.409  11.291  17.639  0.00  0.00    +0.000 A 
ATOM     24  N   UNL     1      -3.670  11.525  17.961  0.00  0.00    +0.000 NA
ATOM     25  C   UNL     1      -4.381  11.491  16.788  0.00  0.00    +0.000 A 
ATOM     26  C   UNL     1      -3.545  11.274  15.721  0.00  0.00    +0.000 A 
ATOM     27  N   UNL     1      -2.297  11.173  16.270  0.00  0.00    +0.000 N 
ATOM     28  H   UNL     1      -1.436  11.031  15.763  0.00  0.00    +0.000 HD
ENDBRANCH  21  23
ENDBRANCH   3  17
TORSDOF 4
ENDMDL
MODEL 2
REMARK VINA RESULT:      -8.1      2.149      3.232
REMARK  Name = 
REMARK  5 active torsions:
REMARK  status: ('A' for Active; 'I' for Inactive)
REMARK    1  A    between atoms: C_1  and  C_2
REMARK    2  A    between atoms: N_4  and  C_5
REMARK    3  A    between atoms: C_10  and  C_11
REMARK    4  A    between atoms: N_13  and  C_14
REMARK    5  A    between atoms: C_18  and  C_19
REMARK                            x       y       z     vdW  Elec       q    Type
REMARK                         _______ _______ _______ _____ _____    ______ ____
ROOT
ATOM      1  C   UNL     1       2.147   8.483  18.304  0.00  0.00    +0.000 C 
ATOM      2  O   UNL     1       2.256   9.069  17.229  0.00  0.00    +0.000 OA
ATOM      3  N   UNL     1       1.404   8.928  19.389  0.00  0.00    +0.000 N 
ATOM      4  H   UNL     1       1.494   8.421  20.264  0.00  0.00    +0.000 HD
ENDROOT
BRANCH   1  10
ATOM      5  C   UNL     1       4.402   5.564  17.428  0.00  0.00    +0.000 A 
ATOM      6  C   UNL     1       4.256   4.752  18.553  0.00  0.00    +0.000 A 
ATOM      7  C   UNL     1       3.437   5.147  19.614  0.00  0.00    +0.000 A 
ATOM      8  C   UNL     1       2.752   6.357  19.553  0.00  0.00    +0.000 A 
ATOM      9  F   UNL     1       1.957   6.686  20.581  0.00  0.00    +0.000 F 
ATOM     10  C   UNL     1       2.890   7.197  18.451  0.00  0.00    +0.000 A 
ATOM     11  C   UNL     1       3.743   6.800  17.399  0.00  0.00    +0.000 A 
BRANCH   5  15
ATOM     12  C   UNL     1       7.068   4.837  14.853  0.00  0.00    +0.000 C 
ATOM     13  C   UNL     1       6.552   5.287  16.196  0.00  0.00    +0.000 C 
ATOM     14  O   UNL     1       7.329   5.674  17.063  0.00  0.00    +0.000 OA
ATOM     15  N   UNL     1       5.174   5.202  16.300  0.00  0.00    +0.000 N 
ATOM     16  H   UNL     1       4.687   4.725  15.552  0.00  0.00    +0.000 HD
ENDBRANCH   5  15
ENDBRANCH   1  10
BRANCH   3  17
ATOM     17  C   UNL     1       0.573  10.073  19.421  0.00  0.00    +0.000 A 
ATOM     18  C   UNL     1       0.776  11.134  20.307  0.00  0.00    +0.000 A 
ATOM     19  C   UNL     1      -0.080  12.233  20.314  0.00  0.00    +0.000 A 
ATOM     20  C   UNL     1      -1.155  12.287  19.432  0.00  0.00    +0.000 A 
ATOM     21  C   UNL     1      -1.374  11.250  18.515  0.00  0.00    +0.000 A 
ATOM     22  C   UNL     1      -0.492  10.154  18.511  0.00  0.00    +0.000 A 
BRANCH  21  23
ATOM     23  C   UNL     1      -2.489  11.312  17.563  0.00  0.00    +0.000 A 
ATOM     24  N   UNL     1      -3.763  11.512  17.853  0.00  0.00    +0.000 NA
ATOM     25  C   UNL     1      -4.446  11.427  16.666  0.00  0.00    +0.000 A 
ATOM     26  C   UNL     1      -3.581  11.212  15.623  0.00  0.00    +0.000 A 
ATOM     27  N   UNL     1      -2.342  11.166  16.200  0.00  0.00    +0.000 N 
ATOM     28  H   UNL     1      -1.466  11.040  15.715  0.00  0.00    +0.000 HD
ENDBRANCH  21  23
ENDBRANCH   3  17
TORSDOF 4
ENDMDL
MODEL 3
REMARK VINA RESULT:      -7.9      2.172      7.849
REMARK  Name = 
REMARK  5 active torsions:
REMARK  status: ('A' for Active; 'I' for Inactive)
REMARK    1  A    between atoms: C_1  and  C_2
REMARK    2  A    between atoms: N_4  and  C_5
REMARK    3  A    between atoms: C_10  and  C_11
REMARK    4  A    between atoms: N_13  and  C_14
REMARK    5  A    between atoms: C_18  and  C_19
REMARK                            x       y       z     vdW  Elec       q    Type
REMARK                         _______ _______ _______ _____ _____    ______ ____
ROOT
ATOM      1  C   UNL     1       1.413   9.537  18.886  0.00  0.00    +0.000 C 
ATOM      2  O   UNL     1       1.369   9.018  19.999  0.00  0.00    +0.000 OA
ATOM      3  N   UNL     1       2.082   9.020  17.786  0.00  0.00    +0.000 N 
ATOM      4  H   UNL     1       2.152   9.603  16.957  0.00  0.00    +0.000 HD
ENDROOT
BRANCH   1  10
ATOM      5  C   UNL     1      -1.436  11.976  18.330  0.00  0.00    +0.000 A 
ATOM      6  C   UNL     1      -0.756  13.193  18.285  0.00  0.00    +0.000 A 
ATOM      7  C   UNL     1       0.632  13.238  18.447  0.00  0.00    +0.000 A 
ATOM      8  C   UNL     1       1.349  12.064  18.651  0.00  0.00    +0.000 A 
ATOM      9  F   UNL     1       2.682  12.150  18.776  0.00  0.00    +0.000 F 
ATOM     10  C   UNL     1       0.697  10.835  18.718  0.00  0.00    +0.000 A 
ATOM     11  C   UNL     1      -0.708  10.806  18.582  0.00  0.00    +0.000 A 
BRANCH   5  15
ATOM     12  C   UNL     1      -4.949  11.421  17.060  0.00  0.00    +0.000 C 
ATOM     13  C   UNL     1      -3.445  11.422  16.961  0.00  0.00    +0.000 C 
ATOM     14  O   UNL     1      -2.888  11.061  15.929  0.00  0.00    +0.000 OA
ATOM     15  N   UNL     1      -2.829  11.854  18.124  0.00  0.00    +0.000 N 
ATOM     16  H   UNL     1      -3.420  11.977  18.937  0.00  0.00    +0.000 HD
ENDBRANCH   5  15
ENDBRANCH   1  10
BRANCH   3  17
ATOM     17  C   UNL     1       2.748   7.772  17.721  0.00  0.00    +0.000 A 
ATOM     18  C   UNL     1       4.049   7.631  17.230  0.00  0.00    +0.000 A 
ATOM     19  C   UNL     1       4.657   6.379  17.169  0.00  0.00    +0.000 A 
ATOM     20  C   UNL     1       3.971   5.247  17.599  0.00  0.00    +0.000 A 
ATOM     21  C   UNL     1       2.673   5.357  18.117  0.00  0.00    +0.000 A 
ATOM     22  C   UNL     1       2.079   6.630  18.186  0.00  0.00    +0.000 A 
BRANCH  21  23
ATOM     23  C   UNL     1       1.954   4.173  18.599  0.00  0.00    +0.000 A 
ATOM     24  N   UNL     1       1.583   3.129  17.878  0.00  0.00    +0.000 NA
ATOM     25  C   UNL     1       0.887   2.303  18.725  0.00  0.00    +0.000 A 
ATOM     26  C   UNL     1       0.863   2.821  19.995  0.00  0.00    +0.000 A 
ATOM     27  N   UNL     1       1.562   3.993  19.908  0.00  0.00    +0.000 N 
ATOM     28  H   UNL     1       1.756   4.626  20.670  0.00  0.00    +0.000 HD
ENDBRANCH  21  23
ENDBRANCH   3  17
TORSDOF 4
ENDMDL
MODEL 4
REMARK VINA RESULT:      -7.9      2.334      8.068
REMARK  Name = 
REMARK  5 active torsions:
REMARK  status: ('A' for Active; 'I' for Inactive)
REMARK    1  A    between atoms: C_1  and  C_2
REMARK    2  A    between atoms: N_4  and  C_5
REMARK    3  A    between atoms: C_10  and  C_11
REMARK    4  A    between atoms: N_13  and  C_14
REMARK    5  A    between atoms: C_18  and  C_19
REMARK                            x       y       z     vdW  Elec       q    Type
REMARK                         _______ _______ _______ _____ _____    ______ ____
ROOT
ATOM      1  C   UNL     1       1.703   8.607  19.293  0.00  0.00    +0.000 C 
ATOM      2  O   UNL     1       1.960   8.000  20.330  0.00  0.00    +0.000 OA
ATOM      3  N   UNL     1       2.283   8.363  18.056  0.00  0.00    +0.000 N 
ATOM      4  H   UNL     1       2.083   9.013  17.302  0.00  0.00    +0.000 HD
ENDROOT
BRANCH   1  10
ATOM      5  C   UNL     1      -1.044  11.002  18.247  0.00  0.00    +0.000 A 
ATOM      6  C   UNL     1      -1.164  11.802  19.384  0.00  0.00    +0.000 A 
ATOM      7  C   UNL     1      -0.367  11.565  20.507  0.00  0.00    +0.000 A 
ATOM      8  C   UNL     1       0.562  10.529  20.497  0.00  0.00    +0.000 A 
ATOM      9  F   UNL     1       1.325  10.354  21.586  0.00  0.00    +0.000 F 
ATOM     10  C   UNL     1       0.694   9.704  19.383  0.00  0.00    +0.000 A 
ATOM     11  C   UNL     1      -0.138   9.934  18.267  0.00  0.00    +0.000 A 
BRANCH   5  15
ATOM     12  C   UNL     1      -3.423  10.949  15.314  0.00  0.00    +0.000 C 
ATOM     13  C   UNL     1      -2.866  10.469  16.630  0.00  0.00    +0.000 C 
ATOM     14  O   UNL     1      -3.371   9.512  17.208  0.00  0.00    +0.000 OA
ATOM     15  N   UNL     1      -1.783  11.217  17.061  0.00  0.00    +0.000 N 
ATOM     16  H   UNL     1      -1.578  12.065  16.547  0.00  0.00    +0.000 HD
ENDBRANCH   5  15
ENDBRANCH   1  10
BRANCH   3  17
ATOM     17  C   UNL     1       3.194   7.324  17.749  0.00  0.00    +0.000 A 
ATOM     18  C   UNL     1       4.426   7.552  17.132  0.00  0.00    +0.000 A 
ATOM     19  C   UNL     1       5.282   6.495  16.833  0.00  0.00    +0.000 A 
ATOM     20  C   UNL     1       4.917   5.189  17.148  0.00  0.00    +0.000 A 
ATOM     21  C   UNL     1       3.697   4.928  17.787  0.00  0.00    +0.000 A 
ATOM     22  C   UNL     1       2.851   6.008  18.095  0.00  0.00    +0.000 A 
BRANCH  21  23
ATOM     23  C   UNL     1       3.317   3.557  18.147  0.00  0.00    +0.000 A 
ATOM     24  N   UNL     1       2.158   3.166  18.647  0.00  0.00    +0.000 NA
ATOM     25  C   UNL     1       2.276   1.820  18.888  0.00  0.00    +0.000 A 
ATOM     26  C   UNL     1       3.509   1.364  18.495  0.00  0.00    +0.000 A 
ATOM     27  N   UNL     1       4.151   2.468  18.006  0.00  0.00    +0.000 N 
ATOM     28  H   UNL     1       5.080   2.489  17.611  0.00  0.00    +0.000 HD
ENDBRANCH  21  23
ENDBRANCH   3  17
TORSDOF 4
ENDMDL
MODEL 5
REMARK VINA RESULT:      -7.8      2.391      3.337
REMARK  Name = 
REMARK  5 active torsions:
REMARK  status: ('A' for Active; 'I' for Inactive)
REMARK    1  A    between atoms: C_1  and  C_2
REMARK    2  A    between atoms: N_4  and  C_5
REMARK    3  A    between atoms: C_10  and  C_11
REMARK    4  A    between atoms: N_13  and  C_14
REMARK    5  A    between atoms: C_18  and  C_19
REMARK                            x       y       z     vdW  Elec       q    Type
REMARK                         _______ _______ _______ _____ _____    ______ ____
ROOT
ATOM      1  C   UNL     1       1.917   7.864  19.366  0.00  0.00    +0.000 C 
ATOM      2  O   UNL     1       1.817   8.181  20.549  0.00  0.00    +0.000 OA
ATOM      3  N   UNL     1       1.486   8.630  18.292  0.00  0.00    +0.000 N 
ATOM      4  H   UNL     1       1.507   8.207  17.369  0.00  0.00    +0.000 HD
ENDROOT
BRANCH   1  10
ATOM      5  C   UNL     1       4.034   5.245  17.626  0.00  0.00    +0.000 A 
ATOM      6  C   UNL     1       3.700   4.095  18.343  0.00  0.00    +0.000 A 
ATOM      7  C   UNL     1       2.795   4.159  19.406  0.00  0.00    +0.000 A 
ATOM      8  C   UNL     1       2.214   5.373  19.756  0.00  0.00    +0.000 A 
ATOM      9  F   UNL     1       1.332   5.384  20.766  0.00  0.00    +0.000 F 
ATOM     10  C   UNL     1       2.540   6.541  19.070  0.00  0.00    +0.000 A 
ATOM     11  C   UNL     1       3.477   6.469  18.018  0.00  0.00    +0.000 A 
BRANCH   5  15
ATOM     12  C   UNL     1       6.898   5.040  15.172  0.00  0.00    +0.000 C 
ATOM     13  C   UNL     1       6.253   4.934  16.530  0.00  0.00    +0.000 C 
ATOM     14  O   UNL     1       6.912   4.599  17.509  0.00  0.00    +0.000 OA
ATOM     15  N   UNL     1       4.902   5.242  16.510  0.00  0.00    +0.000 N 
ATOM     16  H   UNL     1       4.472   5.357  15.601  0.00  0.00    +0.000 HD
ENDBRANCH   5  15
ENDBRANCH   1  10
BRANCH   3  17
ATOM     17  C   UNL     1       0.946   9.937  18.359  0.00  0.00    +0.000 A 
ATOM     18  C   UNL     1       1.722  11.065  18.642  0.00  0.00    +0.000 A 
ATOM     19  C   UNL     1       1.143  12.330  18.716  0.00  0.00    +0.000 A 
ATOM     20  C   UNL     1      -0.224  12.486  18.507  0.00  0.00    +0.000 A 
ATOM     21  C   UNL     1      -1.027  11.378  18.201  0.00  0.00    +0.000 A 
ATOM     22  C   UNL     1      -0.425  10.110  18.115  0.00  0.00    +0.000 A 
BRANCH  21  23
ATOM     23  C   UNL     1      -2.464  11.539  17.953  0.00  0.00    +0.000 A 
ATOM     24  N   UNL     1      -3.396  11.793  18.855  0.00  0.00    +0.000 NA
ATOM     25  C   UNL     1      -4.593  11.792  18.183  0.00  0.00    +0.000 A 
ATOM     26  C   UNL     1      -4.396  11.577  16.842  0.00  0.00    +0.000 A 
ATOM     27  N   UNL     1      -3.042  11.442  16.705  0.00  0.00    +0.000 N 
ATOM     28  H   UNL     1      -2.545  11.292  15.839  0.00  0.00    +0.000 HD
ENDBRANCH  21  23
ENDBRANCH   3  17
TORSDOF 4
ENDMDL
MODEL 6
REMARK VINA RESULT:      -7.7      3.127      4.123
REMARK  Name = 
REMARK  5 active torsions:
REMARK  status: ('A' for Active; 'I' for Inactive)
REMARK    1  A    between atoms: C_1  and  C_2
REMARK    2  A    between atoms: N_4  and  C_5
REMARK    3  A    between atoms: C_10  and  C_11
REMARK    4  A    between atoms: N_13  and  C_14
REMARK    5  A    between atoms: C_18  and  C_19
REMARK                            x       y       z     vdW  Elec       q    Type
REMARK                         _______ _______ _______ _____ _____    ______ ____
ROOT
ATOM      1  C   UNL     1       1.985   7.105  20.050  0.00  0.00    +0.000 C 
ATOM      2  O   UNL     1       2.025   7.802  19.039  0.00  0.00    +0.000 OA
ATOM      3  N   UNL     1       1.471   7.501  21.277  0.00  0.00    +0.000 N 
ATOM      4  H   UNL     1       1.609   6.882  22.070  0.00  0.00    +0.000 HD
ENDROOT
BRANCH   1  10
ATOM      5  C   UNL     1       4.468   4.329  19.340  0.00  0.00    +0.000 A 
ATOM      6  C   UNL     1       3.699   3.194  19.602  0.00  0.00    +0.000 A 
ATOM      7  C   UNL     1       2.372   3.316  20.024  0.00  0.00    +0.000 A 
ATOM      8  C   UNL     1       1.803   4.576  20.182  0.00  0.00    +0.000 A 
ATOM      9  F   UNL     1       0.520   4.647  20.563  0.00  0.00    +0.000 F 
ATOM     10  C   UNL     1       2.550   5.728  19.945  0.00  0.00    +0.000 A 
ATOM     11  C   UNL     1       3.898   5.592  19.547  0.00  0.00    +0.000 A 
BRANCH   5  15
ATOM     12  C   UNL     1       7.703   4.439  17.395  0.00  0.00    +0.000 C 
ATOM     13  C   UNL     1       6.220   4.623  17.590  0.00  0.00    +0.000 C 
ATOM     14  O   UNL     1       5.519   5.046  16.677  0.00  0.00    +0.000 OA
ATOM     15  N   UNL     1       5.797   4.277  18.864  0.00  0.00    +0.000 N 
ATOM     16  H   UNL     1       6.517   4.086  19.549  0.00  0.00    +0.000 HD
ENDBRANCH   5  15
ENDBRANCH   1  10
BRANCH   3  17
ATOM     17  C   UNL     1       0.824   8.728  21.557  0.00  0.00    +0.000 A 
ATOM     18  C   UNL     1       0.032   8.927  22.691  0.00  0.00    +0.000 A 
ATOM     19  C   UNL     1      -0.601  10.148  22.915  0.00  0.00    +0.000 A 
ATOM     20  C   UNL     1      -0.450  11.191  22.005  0.00  0.00    +0.000 A 
ATOM     21  C   UNL     1       0.356  11.031  20.869  0.00  0.00    +0.000 A 
ATOM     22  C   UNL     1       0.999   9.797  20.665  0.00  0.00    +0.000 A 
BRANCH  21  23
ATOM     23  C   UNL     1       0.543  12.134  19.921  0.00  0.00    +0.000 A 
ATOM     24  N   UNL     1       1.557  12.295  19.089  0.00  0.00    +0.000 NA
ATOM     25  C   UNL     1       1.345  13.491  18.448  0.00  0.00    +0.000 A 
ATOM     26  C   UNL     1       0.164  14.057  18.858  0.00  0.00    +0.000 A 
ATOM     27  N   UNL     1      -0.347  13.178  19.772  0.00  0.00    +0.000 N 
ATOM     28  H   UNL     1      -1.224  13.273  20.263  0.00  0.00    +0.000 HD
ENDBRANCH  21  23
ENDBRANCH   3  17
TORSDOF 4
ENDMDL
MODEL 7
REMARK VINA RESULT:      -7.7      2.930      8.047
REMARK  Name = 
REMARK  5 active torsions:
REMARK  status: ('A' for Active; 'I' for Inactive)
REMARK    1  A    between atoms: C_1  and  C_2
REMARK    2  A    between atoms: N_4  and  C_5
REMARK    3  A    between atoms: C_10  and  C_11
REMARK    4  A    between atoms: N_13  and  C_14
REMARK    5  A    between atoms: C_18  and  C_19
REMARK                            x       y       z     vdW  Elec       q    Type
REMARK                         _______ _______ _______ _____ _____    ______ ____
ROOT
ATOM      1  C   UNL     1       1.466   8.887  18.917  0.00  0.00    +0.000 C 
ATOM      2  O   UNL     1       1.395   8.521  17.746  0.00  0.00    +0.000 OA
ATOM      3  N   UNL     1       1.851   8.088  19.985  0.00  0.00    +0.000 N 
ATOM      4  H   UNL     1       1.748   8.467  20.921  0.00  0.00    +0.000 HD
ENDROOT
BRANCH   1  10
ATOM      5  C   UNL     1      -0.384  11.838  20.415  0.00  0.00    +0.000 A 
ATOM      6  C   UNL     1       0.225  12.910  19.761  0.00  0.00    +0.000 A 
ATOM      7  C   UNL     1       1.251  12.689  18.838  0.00  0.00    +0.000 A 
ATOM      8  C   UNL     1       1.671  11.392  18.558  0.00  0.00    +0.000 A 
ATOM      9  F   UNL     1       2.640  11.224  17.647  0.00  0.00    +0.000 F 
ATOM     10  C   UNL     1       1.094  10.303  19.207  0.00  0.00    +0.000 A 
ATOM     11  C   UNL     1       0.079  10.541  20.159  0.00  0.00    +0.000 A 
BRANCH   5  15
ATOM     12  C   UNL     1      -2.757  11.922  23.352  0.00  0.00    +0.000 C 
ATOM     13  C   UNL     1      -1.442  11.655  22.666  0.00  0.00    +0.000 C 
ATOM     14  O   UNL     1      -0.493  11.195  23.294  0.00  0.00    +0.000 OA
ATOM     15  N   UNL     1      -1.459  11.987  21.321  0.00  0.00    +0.000 N 
ATOM     16  H   UNL     1      -2.268  12.492  20.984  0.00  0.00    +0.000 HD
ENDBRANCH   5  15
ENDBRANCH   1  10
BRANCH   3  17
ATOM     17  C   UNL     1       2.314   6.753  19.907  0.00  0.00    +0.000 A 
ATOM     18  C   UNL     1       1.633   5.679  20.486  0.00  0.00    +0.000 A 
ATOM     19  C   UNL     1       2.138   4.383  20.399  0.00  0.00    +0.000 A 
ATOM     20  C   UNL     1       3.334   4.142  19.728  0.00  0.00    +0.000 A 
ATOM     21  C   UNL     1       4.029   5.194  19.118  0.00  0.00    +0.000 A 
ATOM     22  C   UNL     1       3.499   6.494  19.202  0.00  0.00    +0.000 A 
BRANCH  21  23
ATOM     23  C   UNL     1       5.276   4.944  18.385  0.00  0.00    +0.000 A 
ATOM     24  N   UNL     1       6.475   4.759  18.910  0.00  0.00    +0.000 NA
ATOM     25  C   UNL     1       7.342   4.629  17.853  0.00  0.00    +0.000 A 
ATOM     26  C   UNL     1       6.666   4.693  16.661  0.00  0.00    +0.000 A 
ATOM     27  N   UNL     1       5.356   4.868  17.011  0.00  0.00    +0.000 N 
ATOM     28  H   UNL     1       4.576   4.937  16.374  0.00  0.00    +0.000 HD
ENDBRANCH  21  23
ENDBRANCH   3  17
TORSDOF 4
ENDMDL
MODEL 8
REMARK VINA RESULT:      -7.6      2.029      2.975
REMARK  Name = 
REMARK  5 active torsions:
REMARK  status: ('A' for Active; 'I' for Inactive)
REMARK    1  A    between atoms: C_1  and  C_2
REMARK    2  A    between atoms: N_4  and  C_5
REMARK    3  A    between atoms: C_10  and  C_11
REMARK    4  A    between atoms: N_13  and  C_14
REMARK    5  A    between atoms: C_18  and  C_19
REMARK                            x       y       z     vdW  Elec       q    Type
REMARK                         _______ _______ _______ _____ _____    ______ ____
ROOT
ATOM      1  C   UNL     1       1.905   8.758  18.462  0.00  0.00    +0.000 C 
ATOM      2  O   UNL     1       2.019   9.231  17.334  0.00  0.00    +0.000 OA
ATOM      3  N   UNL     1       1.176   9.322  19.499  0.00  0.00    +0.000 N 
ATOM      4  H   UNL     1       1.261   8.904  20.420  0.00  0.00    +0.000 HD
ENDROOT
BRANCH   1  10
ATOM      5  C   UNL     1       4.308   5.864  17.987  0.00  0.00    +0.000 A 
ATOM      6  C   UNL     1       3.979   5.048  19.070  0.00  0.00    +0.000 A 
ATOM      7  C   UNL     1       2.984   5.432  19.973  0.00  0.00    +0.000 A 
ATOM      8  C   UNL     1       2.307   6.635  19.795  0.00  0.00    +0.000 A 
ATOM      9  F   UNL     1       1.342   6.953  20.671  0.00  0.00    +0.000 F 
ATOM     10  C   UNL     1       2.625   7.479  18.734  0.00  0.00    +0.000 A 
ATOM     11  C   UNL     1       3.652   7.093  17.846  0.00  0.00    +0.000 A 
BRANCH   5  15
ATOM     12  C   UNL     1       6.489   4.241  15.365  0.00  0.00    +0.000 C 
ATOM     13  C   UNL     1       5.335   4.306  16.333  0.00  0.00    +0.000 C 
ATOM     14  O   UNL     1       4.571   3.354  16.456  0.00  0.00    +0.000 OA
ATOM     15  N   UNL     1       5.267   5.513  17.010  0.00  0.00    +0.000 N 
ATOM     16  H   UNL     1       5.882   6.251  16.692  0.00  0.00    +0.000 HD
ENDBRANCH   5  15
ENDBRANCH   1  10
BRANCH   3  17
ATOM     17  C   UNL     1       0.366  10.481  19.419  0.00  0.00    +0.000 A 
ATOM     18  C   UNL     1       0.687  11.677  20.064  0.00  0.00    +0.000 A 
ATOM     19  C   UNL     1      -0.151  12.786  19.972  0.00  0.00    +0.000 A 
ATOM     20  C   UNL     1      -1.326  12.714  19.229  0.00  0.00    +0.000 A 
ATOM     21  C   UNL     1      -1.667  11.535  18.552  0.00  0.00    +0.000 A 
ATOM     22  C   UNL     1      -0.803  10.429  18.643  0.00  0.00    +0.000 A 
BRANCH  21  23
ATOM     23  C   UNL     1      -2.889  11.460  17.744  0.00  0.00    +0.000 A 
ATOM     24  N   UNL     1      -3.020  10.880  16.564  0.00  0.00    +0.000 NA
ATOM     25  C   UNL     1      -4.311  11.113  16.160  0.00  0.00    +0.000 A 
ATOM     26  C   UNL     1      -5.000  11.811  17.120  0.00  0.00    +0.000 A 
ATOM     27  N   UNL     1      -4.097  12.003  18.128  0.00  0.00    +0.000 N 
ATOM     28  H   UNL     1      -4.277  12.469  19.005  0.00  0.00    +0.000 HD
ENDBRANCH  21  23
ENDBRANCH   3  17
TORSDOF 4
ENDMDL
MODEL 9
REMARK VINA RESULT:      -7.6      2.966      7.838
REMARK  Name = 
REMARK  5 active torsions:
REMARK  status: ('A' for Active; 'I' for Inactive)
REMARK    1  A    between atoms: C_1  and  C_2
REMARK    2  A    between atoms: N_4  and  C_5
REMARK    3  A    between atoms: C_10  and  C_11
REMARK    4  A    between atoms: N_13  and  C_14
REMARK    5  A    between atoms: C_18  and  C_19
REMARK                            x       y       z     vdW  Elec       q    Type
REMARK                         _______ _______ _______ _____ _____    ______ ____
ROOT
ATOM      1  C   UNL     1       1.422   9.087  18.736  0.00  0.00    +0.000 C 
ATOM      2  O   UNL     1       1.247   8.781  17.559  0.00  0.00    +0.000 OA
ATOM      3  N   UNL     1       1.882   8.231  19.727  0.00  0.00    +0.000 N 
ATOM      4  H   UNL     1       1.865   8.564  20.686  0.00  0.00    +0.000 HD
ENDROOT
BRANCH   1  10
ATOM      5  C   UNL     1      -0.356  11.987  20.410  0.00  0.00    +0.000 A 
ATOM      6  C   UNL     1       0.314  13.080  19.859  0.00  0.00    +0.000 A 
ATOM      7  C   UNL     1       1.358  12.889  18.949  0.00  0.00    +0.000 A 
ATOM      8  C   UNL     1       1.735  11.601  18.580  0.00  0.00    +0.000 A 
ATOM      9  F   UNL     1       2.724  11.464  17.685  0.00  0.00    +0.000 F 
ATOM     10  C   UNL     1       1.097  10.490  19.126  0.00  0.00    +0.000 A 
ATOM     11  C   UNL     1       0.064  10.696  20.066  0.00  0.00    +0.000 A 
BRANCH   5  15
ATOM     12  C   UNL     1      -2.792  11.994  23.296  0.00  0.00    +0.000 C 
ATOM     13  C   UNL     1      -1.461  11.749  22.633  0.00  0.00    +0.000 C 
ATOM     14  O   UNL     1      -0.523  11.281  23.271  0.00  0.00    +0.000 OA
ATOM     15  N   UNL     1      -1.451  12.110  21.295  0.00  0.00    +0.000 N 
ATOM     16  H   UNL     1      -2.256  12.618  20.952  0.00  0.00    +0.000 HD
ENDBRANCH   5  15
ENDBRANCH   1  10
BRANCH   3  17
ATOM     17  C   UNL     1       2.317   6.896  19.544  0.00  0.00    +0.000 A 
ATOM     18  C   UNL     1       1.910   5.846  20.372  0.00  0.00    +0.000 A 
ATOM     19  C   UNL     1       2.380   4.551  20.164  0.00  0.00    +0.000 A 
ATOM     20  C   UNL     1       3.265   4.286  19.123  0.00  0.00    +0.000 A 
ATOM     21  C   UNL     1       3.676   5.314  18.262  0.00  0.00    +0.000 A 
ATOM     22  C   UNL     1       3.182   6.613  18.476  0.00  0.00    +0.000 A 
BRANCH  21  23
ATOM     23  C   UNL     1       4.587   5.038  17.146  0.00  0.00    +0.000 A 
ATOM     24  N   UNL     1       4.994   5.898  16.229  0.00  0.00    +0.000 NA
ATOM     25  C   UNL     1       5.777   5.188  15.354  0.00  0.00    +0.000 A 
ATOM     26  C   UNL     1       5.891   3.881  15.756  0.00  0.00    +0.000 A 
ATOM     27  N   UNL     1       5.153   3.804  16.905  0.00  0.00    +0.000 N 
ATOM     28  H   UNL     1       5.035   2.983  17.480  0.00  0.00    +0.000 HD
ENDBRANCH  21  23
ENDBRANCH   3  17
TORSDOF 4
ENDMDL
