MODEL 1
REMARK VINA RESULT:      -7.9      0.000      0.000
REMARK  Name = 
REMARK  7 active torsions:
REMARK  status: ('A' for Active; 'I' for Inactive)
REMARK    1  A    between atoms: C_1  and  C_2
REMARK    2  A    between atoms: C_5  and  N_6
REMARK    3  A    between atoms: N_6  and  C_7
REMARK    4  A    between atoms: C_7  and  C_8
REMARK    5  A    between atoms: C_14  and  C_16
REMARK    6  A    between atoms: C_20  and  C_22
REMARK    7  A    between atoms: C_27  and  C_28
REMARK                            x       y       z     vdW  Elec       q    Type
REMARK                         _______ _______ _______ _____ _____    ______ ____
ROOT
ATOM      1  N   UNL     1       0.291  12.117  19.468  0.00  0.00    +0.000 N 
ATOM      2  C   UNL     1       1.010  11.090  18.848  0.00  0.00    +0.000 C 
ATOM      3  O   UNL     1       2.138  11.269  18.379  0.00  0.00    +0.000 OA
ENDROOT
BRANCH   2   4
ATOM      4  C   UNL     1       0.359   9.706  18.707  0.00  0.00    +0.000 C 
ATOM      5  C   UNL     1       0.248   8.967  20.050  0.00  0.00    +0.000 C 
ATOM      6  C   UNL     1       1.605   8.484  20.548  0.00  0.00    +0.000 C 
ATOM      7  N   UNL     1       2.237   7.638  19.549  0.00  0.00    +0.000 N 
ATOM      8  C   UNL     1       2.383   6.272  19.809  0.00  0.00    +0.000 C 
ATOM      9  O   UNL     1       1.809   5.710  20.739  0.00  0.00    +0.000 OA
ATOM     10  C   UNL     1       2.455   8.274  18.248  0.00  0.00    +0.000 C 
ATOM     11  C   UNL     1       1.148   8.847  17.694  0.00  0.00    +0.000 C 
BRANCH   8  12
ATOM     12  C   UNL     1       3.322   5.484  18.953  0.00  0.00    +0.000 A 
ATOM     13  C   UNL     1       4.698   5.564  19.247  0.00  0.00    +0.000 A 
ATOM     14  C   UNL     1       5.632   4.922  18.438  0.00  0.00    +0.000 A 
ATOM     15  C   UNL     1       5.199   4.147  17.373  0.00  0.00    +0.000 A 
ATOM     16  C   UNL     1       3.840   3.998  17.120  0.00  0.00    +0.000 A 
ATOM     17  C   UNL     1       2.874   4.656  17.909  0.00  0.00    +0.000 A 
ATOM     18  C   UNL     1       1.416   4.444  17.607  0.00  0.00    +0.000 C 
ENDBRANCH   8  12
ENDBRANCH   2   4
BRANCH   1  23
ATOM     19  C   UNL     1       2.881  17.186  20.364  0.00  0.00    +0.000 C 
ATOM     20  C   UNL     1       2.230  15.858  20.108  0.00  0.00    +0.000 A 
ATOM     21  C   UNL     1       2.440  14.779  20.975  0.00  0.00    +0.000 A 
ATOM     22  C   UNL     1       1.830  13.544  20.739  0.00  0.00    +0.000 A 
ATOM     23  C   UNL     1       0.962  13.374  19.653  0.00  0.00    +0.000 A 
ATOM     24  C   UNL     1       0.751  14.452  18.784  0.00  0.00    +0.000 A 
ATOM     25  C   UNL     1       1.390  15.679  19.002  0.00  0.00    +0.000 A 
ENDBRANCH   1  23
BRANCH   1  26
ATOM     26  C   UNL     1      -0.866  11.903  20.354  0.00  0.00    +0.000 C 
BRANCH  26  27
ATOM     27  C   UNL     1      -2.258  12.270  19.873  0.00  0.00    +0.000 A 
ATOM     28  C   UNL     1      -2.720  11.655  18.692  0.00  0.00    +0.000 A 
ATOM     29  C   UNL     1      -4.072  11.673  18.349  0.00  0.00    +0.000 A 
ATOM     30  C   UNL     1      -4.985  12.322  19.175  0.00  0.00    +0.000 A 
ATOM     31  C   UNL     1      -4.532  13.010  20.298  0.00  0.00    +0.000 A 
ATOM     32  C   UNL     1      -3.174  12.996  20.642  0.00  0.00    +0.000 A 
ENDBRANCH  26  27
ENDBRANCH   1  26
TORSDOF 5
ENDMDL
MODEL 2
REMARK VINA RESULT:      -7.6      3.287      7.075
REMARK  Name = 
REMARK  7 active torsions:
REMARK  status: ('A' for Active; 'I' for Inactive)
REMARK    1  A    between atoms: C_1  and  C_2
REMARK    2  A    between atoms: C_5  and  N_6
REMARK    3  A    between atoms: N_6  and  C_7
REMARK    4  A    between atoms: C_7  and  C_8
REMARK    5  A    between atoms: C_14  and  C_16
REMARK    6  A    between atoms: C_20  and  C_22
REMARK    7  A    between atoms: C_27  and  C_28
REMARK                            x       y       z     vdW  Elec       q    Type
REMARK                         _______ _______ _______ _____ _____    ______ ____
ROOT
ATOM      1  N   UNL     1       2.304   6.857  19.580  0.00  0.00    +0.000 N 
ATOM      2  C   UNL     1       3.376   6.759  18.685  0.00  0.00    +0.000 C 
ATOM      3  O   UNL     1       3.733   7.709  17.983  0.00  0.00    +0.000 OA
ENDROOT
BRANCH   2   4
ATOM      4  C   UNL     1       4.103   5.414  18.541  0.00  0.00    +0.000 C 
ATOM      5  C   UNL     1       5.624   5.545  18.715  0.00  0.00    +0.000 C 
ATOM      6  C   UNL     1       6.276   6.237  17.525  0.00  0.00    +0.000 C 
ATOM      7  N   UNL     1       5.961   5.530  16.295  0.00  0.00    +0.000 N 
ATOM      8  C   UNL     1       6.979   4.845  15.624  0.00  0.00    +0.000 C 
ATOM      9  O   UNL     1       8.075   4.625  16.134  0.00  0.00    +0.000 OA
ATOM     10  C   UNL     1       4.532   5.413  15.998  0.00  0.00    +0.000 C 
ATOM     11  C   UNL     1       3.780   4.779  17.170  0.00  0.00    +0.000 C 
BRANCH   8  12
ATOM     12  C   UNL     1       6.736   4.420  14.212  0.00  0.00    +0.000 A 
ATOM     13  C   UNL     1       5.653   3.552  13.967  0.00  0.00    +0.000 A 
ATOM     14  C   UNL     1       5.423   3.052  12.688  0.00  0.00    +0.000 A 
ATOM     15  C   UNL     1       6.228   3.464  11.636  0.00  0.00    +0.000 A 
ATOM     16  C   UNL     1       7.250   4.381  11.851  0.00  0.00    +0.000 A 
ATOM     17  C   UNL     1       7.520   4.884  13.141  0.00  0.00    +0.000 A 
ATOM     18  C   UNL     1       8.624   5.891  13.317  0.00  0.00    +0.000 C 
ENDBRANCH   8  12
ENDBRANCH   2   4
BRANCH   1  23
ATOM     19  C   UNL     1      -0.277  11.959  20.297  0.00  0.00    +0.000 C 
ATOM     20  C   UNL     1       0.425  10.646  20.109  0.00  0.00    +0.000 A 
ATOM     21  C   UNL     1       0.682   9.808  21.201  0.00  0.00    +0.000 A 
ATOM     22  C   UNL     1       1.331   8.584  21.026  0.00  0.00    +0.000 A 
ATOM     23  C   UNL     1       1.700   8.150  19.746  0.00  0.00    +0.000 A 
ATOM     24  C   UNL     1       1.446   8.987  18.652  0.00  0.00    +0.000 A 
ATOM     25  C   UNL     1       0.825  10.230  18.834  0.00  0.00    +0.000 A 
ENDBRANCH   1  23
BRANCH   1  26
ATOM     26  C   UNL     1       2.057   5.918  20.686  0.00  0.00    +0.000 C 
BRANCH  26  27
ATOM     27  C   UNL     1       1.818   4.449  20.386  0.00  0.00    +0.000 A 
ATOM     28  C   UNL     1       0.907   4.137  19.358  0.00  0.00    +0.000 A 
ATOM     29  C   UNL     1       0.860   2.860  18.797  0.00  0.00    +0.000 A 
ATOM     30  C   UNL     1       1.715   1.868  19.269  0.00  0.00    +0.000 A 
ATOM     31  C   UNL     1       2.558   2.137  20.343  0.00  0.00    +0.000 A 
ATOM     32  C   UNL     1       2.604   3.416  20.910  0.00  0.00    +0.000 A 
ENDBRANCH  26  27
ENDBRANCH   1  26
TORSDOF 5
ENDMDL
MODEL 3
REMARK VINA RESULT:      -7.6      0.841      1.415
REMARK  Name = 
REMARK  7 active torsions:
REMARK  status: ('A' for Active; 'I' for Inactive)
REMARK    1  A    between atoms: C_1  and  C_2
REMARK    2  A    between atoms: C_5  and  N_6
REMARK    3  A    between atoms: N_6  and  C_7
REMARK    4  A    between atoms: C_7  and  C_8
REMARK    5  A    between atoms: C_14  and  C_16
REMARK    6  A    between atoms: C_20  and  C_22
REMARK    7  A    between atoms: C_27  and  C_28
REMARK                            x       y       z     vdW  Elec       q    Type
REMARK                         _______ _______ _______ _____ _____    ______ ____
ROOT
ATOM      1  N   UNL     1      -0.203  12.050  19.419  0.00  0.00    +0.000 N 
ATOM      2  C   UNL     1       0.677  10.963  19.360  0.00  0.00    +0.000 C 
ATOM      3  O   UNL     1       1.901  11.105  19.437  0.00  0.00    +0.000 OA
ENDROOT
BRANCH   2   4
ATOM      4  C   UNL     1       0.104   9.553  19.151  0.00  0.00    +0.000 C 
ATOM      5  C   UNL     1       0.079   8.729  20.447  0.00  0.00    +0.000 C 
ATOM      6  C   UNL     1       1.477   8.299  20.876  0.00  0.00    +0.000 C 
ATOM      7  N   UNL     1       2.126   7.556  19.809  0.00  0.00    +0.000 N 
ATOM      8  C   UNL     1       2.361   6.188  19.979  0.00  0.00    +0.000 C 
ATOM      9  O   UNL     1       1.850   5.537  20.887  0.00  0.00    +0.000 OA
ATOM     10  C   UNL     1       2.266   8.283  18.546  0.00  0.00    +0.000 C 
ATOM     11  C   UNL     1       0.911   8.808  18.064  0.00  0.00    +0.000 C 
BRANCH   8  12
ATOM     12  C   UNL     1       3.318   5.513  19.050  0.00  0.00    +0.000 A 
ATOM     13  C   UNL     1       4.695   5.642  19.322  0.00  0.00    +0.000 A 
ATOM     14  C   UNL     1       5.640   5.108  18.450  0.00  0.00    +0.000 A 
ATOM     15  C   UNL     1       5.221   4.390  17.340  0.00  0.00    +0.000 A 
ATOM     16  C   UNL     1       3.866   4.189  17.105  0.00  0.00    +0.000 A 
ATOM     17  C   UNL     1       2.887   4.740  17.958  0.00  0.00    +0.000 A 
ATOM     18  C   UNL     1       1.435   4.475  17.670  0.00  0.00    +0.000 C 
ENDBRANCH   8  12
ENDBRANCH   2   4
BRANCH   1  23
ATOM     19  C   UNL     1       2.224  17.171  20.460  0.00  0.00    +0.000 C 
ATOM     20  C   UNL     1       1.562  15.851  20.194  0.00  0.00    +0.000 A 
ATOM     21  C   UNL     1       1.352  15.406  18.883  0.00  0.00    +0.000 A 
ATOM     22  C   UNL     1       0.740  14.175  18.635  0.00  0.00    +0.000 A 
ATOM     23  C   UNL     1       0.362  13.341  19.695  0.00  0.00    +0.000 A 
ATOM     24  C   UNL     1       0.569  13.785  21.008  0.00  0.00    +0.000 A 
ATOM     25  C   UNL     1       1.152  15.035  21.255  0.00  0.00    +0.000 A 
ENDBRANCH   1  23
BRANCH   1  26
ATOM     26  C   UNL     1      -1.644  11.938  19.699  0.00  0.00    +0.000 C 
BRANCH  26  27
ATOM     27  C   UNL     1      -2.628  11.841  18.548  0.00  0.00    +0.000 A 
ATOM     28  C   UNL     1      -2.107  11.553  17.270  0.00  0.00    +0.000 A 
ATOM     29  C   UNL     1      -2.935  11.133  16.230  0.00  0.00    +0.000 A 
ATOM     30  C   UNL     1      -4.305  11.008  16.446  0.00  0.00    +0.000 A 
ATOM     31  C   UNL     1      -4.846  11.373  17.676  0.00  0.00    +0.000 A 
ATOM     32  C   UNL     1      -4.016  11.800  18.720  0.00  0.00    +0.000 A 
ENDBRANCH  26  27
ENDBRANCH   1  26
TORSDOF 5
ENDMDL
MODEL 4
REMARK VINA RESULT:      -7.6      0.986      1.585
REMARK  Name = 
REMARK  7 active torsions:
REMARK  status: ('A' for Active; 'I' for Inactive)
REMARK    1  A    between atoms: C_1  and  C_2
REMARK    2  A    between atoms: C_5  and  N_6
REMARK    3  A    between atoms: N_6  and  C_7
REMARK    4  A    between atoms: C_7  and  C_8
REMARK    5  A    between atoms: C_14  and  C_16
REMARK    6  A    between atoms: C_20  and  C_22
REMARK    7  A    between atoms: C_27  and  C_28
REMARK                            x       y       z     vdW  Elec       q    Type
REMARK                         _______ _______ _______ _____ _____    ______ ____
ROOT
ATOM      1  N   UNL     1      -0.099  12.217  19.088  0.00  0.00    +0.000 N 
ATOM      2  C   UNL     1       0.770  11.131  18.934  0.00  0.00    +0.000 C 
ATOM      3  O   UNL     1       1.996  11.269  18.910  0.00  0.00    +0.000 OA
ENDROOT
BRANCH   2   4
ATOM      4  C   UNL     1       0.178   9.726  18.744  0.00  0.00    +0.000 C 
ATOM      5  C   UNL     1       0.051   8.956  20.067  0.00  0.00    +0.000 C 
ATOM      6  C   UNL     1       1.408   8.515  20.602  0.00  0.00    +0.000 C 
ATOM      7  N   UNL     1       2.105   7.714  19.609  0.00  0.00    +0.000 N 
ATOM      8  C   UNL     1       2.296   6.350  19.847  0.00  0.00    +0.000 C 
ATOM      9  O   UNL     1       1.713   5.748  20.746  0.00  0.00    +0.000 OA
ATOM     10  C   UNL     1       2.342   8.385  18.329  0.00  0.00    +0.000 C 
ATOM     11  C   UNL     1       1.033   8.920  17.741  0.00  0.00    +0.000 C 
BRANCH   8  12
ATOM     12  C   UNL     1       3.293   5.617  19.008  0.00  0.00    +0.000 A 
ATOM     13  C   UNL     1       4.655   5.756  19.340  0.00  0.00    +0.000 A 
ATOM     14  C   UNL     1       5.639   5.168  18.550  0.00  0.00    +0.000 A 
ATOM     15  C   UNL     1       5.271   4.386  17.465  0.00  0.00    +0.000 A 
ATOM     16  C   UNL     1       3.927   4.177  17.175  0.00  0.00    +0.000 A 
ATOM     17  C   UNL     1       2.911   4.781  17.944  0.00  0.00    +0.000 A 
ATOM     18  C   UNL     1       1.473   4.505  17.601  0.00  0.00    +0.000 C 
ENDBRANCH   8  12
ENDBRANCH   2   4
BRANCH   1  23
ATOM     19  C   UNL     1       2.177  17.376  20.273  0.00  0.00    +0.000 C 
ATOM     20  C   UNL     1       1.606  16.029  19.939  0.00  0.00    +0.000 A 
ATOM     21  C   UNL     1       1.971  14.895  20.674  0.00  0.00    +0.000 A 
ATOM     22  C   UNL     1       1.437  13.641  20.366  0.00  0.00    +0.000 A 
ATOM     23  C   UNL     1       0.491  13.502  19.343  0.00  0.00    +0.000 A 
ATOM     24  C   UNL     1       0.125  14.635  18.605  0.00  0.00    +0.000 A 
ATOM     25  C   UNL     1       0.688  15.885  18.893  0.00  0.00    +0.000 A 
ENDBRANCH   1  23
BRANCH   1  26
ATOM     26  C   UNL     1      -1.511  12.100  19.486  0.00  0.00    +0.000 C 
BRANCH  26  27
ATOM     27  C   UNL     1      -1.903  12.314  20.936  0.00  0.00    +0.000 A 
ATOM     28  C   UNL     1      -3.095  13.025  21.189  0.00  0.00    +0.000 A 
ATOM     29  C   UNL     1      -3.700  12.997  22.445  0.00  0.00    +0.000 A 
ATOM     30  C   UNL     1      -3.114  12.269  23.477  0.00  0.00    +0.000 A 
ATOM     31  C   UNL     1      -1.892  11.635  23.268  0.00  0.00    +0.000 A 
ATOM     32  C   UNL     1      -1.281  11.666  22.009  0.00  0.00    +0.000 A 
ENDBRANCH  26  27
ENDBRANCH   1  26
TORSDOF 5
ENDMDL
MODEL 5
REMARK VINA RESULT:      -7.6      0.683      1.459
REMARK  Name = 
REMARK  7 active torsions:
REMARK  status: ('A' for Active; 'I' for Inactive)
REMARK    1  A    between atoms: C_1  and  C_2
REMARK    2  A    between atoms: C_5  and  N_6
REMARK    3  A    between atoms: N_6  and  C_7
REMARK    4  A    between atoms: C_7  and  C_8
REMARK    5  A    between atoms: C_14  and  C_16
REMARK    6  A    between atoms: C_20  and  C_22
REMARK    7  A    between atoms: C_27  and  C_28
REMARK                            x       y       z     vdW  Elec       q    Type
REMARK                         _______ _______ _______ _____ _____    ______ ____
ROOT
ATOM      1  N   UNL     1       0.736  12.052  19.855  0.00  0.00    +0.000 N 
ATOM      2  C   UNL     1       1.187  11.131  18.904  0.00  0.00    +0.000 C 
ATOM      3  O   UNL     1       2.111  11.389  18.126  0.00  0.00    +0.000 OA
ENDROOT
BRANCH   2   4
ATOM      4  C   UNL     1       0.482   9.771  18.792  0.00  0.00    +0.000 C 
ATOM      5  C   UNL     1       0.398   9.039  20.140  0.00  0.00    +0.000 C 
ATOM      6  C   UNL     1       1.756   8.508  20.586  0.00  0.00    +0.000 C 
ATOM      7  N   UNL     1       2.317   7.639  19.565  0.00  0.00    +0.000 N 
ATOM      8  C   UNL     1       2.425   6.269  19.823  0.00  0.00    +0.000 C 
ATOM      9  O   UNL     1       1.868   5.729  20.777  0.00  0.00    +0.000 OA
ATOM     10  C   UNL     1       2.506   8.265  18.255  0.00  0.00    +0.000 C 
ATOM     11  C   UNL     1       1.199   8.883  17.751  0.00  0.00    +0.000 C 
BRANCH   8  12
ATOM     12  C   UNL     1       3.301   5.447  18.933  0.00  0.00    +0.000 A 
ATOM     13  C   UNL     1       4.689   5.473  19.176  0.00  0.00    +0.000 A 
ATOM     14  C   UNL     1       5.567   4.798  18.333  0.00  0.00    +0.000 A 
ATOM     15  C   UNL     1       5.065   4.041  17.285  0.00  0.00    +0.000 A 
ATOM     16  C   UNL     1       3.693   3.944  17.083  0.00  0.00    +0.000 A 
ATOM     17  C   UNL     1       2.783   4.638  17.907  0.00  0.00    +0.000 A 
ATOM     18  C   UNL     1       1.307   4.482  17.660  0.00  0.00    +0.000 C 
ENDBRANCH   8  12
ENDBRANCH   2   4
BRANCH   1  23
ATOM     19  C   UNL     1       3.738  16.959  20.196  0.00  0.00    +0.000 C 
ATOM     20  C   UNL     1       2.940  15.689  20.136  0.00  0.00    +0.000 A 
ATOM     21  C   UNL     1       1.816  15.588  19.307  0.00  0.00    +0.000 A 
ATOM     22  C   UNL     1       1.076  14.405  19.247  0.00  0.00    +0.000 A 
ATOM     23  C   UNL     1       1.470  13.280  19.984  0.00  0.00    +0.000 A 
ATOM     24  C   UNL     1       2.593  13.379  20.815  0.00  0.00    +0.000 A 
ATOM     25  C   UNL     1       3.314  14.578  20.900  0.00  0.00    +0.000 A 
ENDBRANCH   1  23
BRANCH   1  26
ATOM     26  C   UNL     1      -0.083  11.702  21.027  0.00  0.00    +0.000 C 
BRANCH  26  27
ATOM     27  C   UNL     1      -1.579  11.955  21.001  0.00  0.00    +0.000 A 
ATOM     28  C   UNL     1      -2.211  12.242  22.228  0.00  0.00    +0.000 A 
ATOM     29  C   UNL     1      -3.490  12.795  22.271  0.00  0.00    +0.000 A 
ATOM     30  C   UNL     1      -4.168  13.057  21.084  0.00  0.00    +0.000 A 
ATOM     31  C   UNL     1      -3.594  12.698  19.867  0.00  0.00    +0.000 A 
ATOM     32  C   UNL     1      -2.312  12.138  19.823  0.00  0.00    +0.000 A 
ENDBRANCH  26  27
ENDBRANCH   1  26
TORSDOF 5
ENDMDL
MODEL 6
REMARK VINA RESULT:      -7.5      0.879      1.419
REMARK  Name = 
REMARK  7 active torsions:
REMARK  status: ('A' for Active; 'I' for Inactive)
REMARK    1  A    between atoms: C_1  and  C_2
REMARK    2  A    between atoms: C_5  and  N_6
REMARK    3  A    between atoms: N_6  and  C_7
REMARK    4  A    between atoms: C_7  and  C_8
REMARK    5  A    between atoms: C_14  and  C_16
REMARK    6  A    between atoms: C_20  and  C_22
REMARK    7  A    between atoms: C_27  and  C_28
REMARK                            x       y       z     vdW  Elec       q    Type
REMARK                         _______ _______ _______ _____ _____    ______ ____
ROOT
ATOM      1  N   UNL     1       0.125  12.164  18.953  0.00  0.00    +0.000 N 
ATOM      2  C   UNL     1       0.957  11.044  18.848  0.00  0.00    +0.000 C 
ATOM      3  O   UNL     1       2.187  11.142  18.812  0.00  0.00    +0.000 OA
ENDROOT
BRANCH   2   4
ATOM      4  C   UNL     1       0.320   9.652  18.728  0.00  0.00    +0.000 C 
ATOM      5  C   UNL     1       0.231   8.926  20.080  0.00  0.00    +0.000 C 
ATOM      6  C   UNL     1       1.598   8.464  20.569  0.00  0.00    +0.000 C 
ATOM      7  N   UNL     1       2.229   7.614  19.573  0.00  0.00    +0.000 N 
ATOM      8  C   UNL     1       2.393   6.253  19.846  0.00  0.00    +0.000 C 
ATOM      9  O   UNL     1       1.835   5.695  20.788  0.00  0.00    +0.000 OA
ATOM     10  C   UNL     1       2.427   8.239  18.263  0.00  0.00    +0.000 C 
ATOM     11  C   UNL     1       1.108   8.791  17.716  0.00  0.00    +0.000 C 
BRANCH   8  12
ATOM     12  C   UNL     1       3.332   5.466  18.989  0.00  0.00    +0.000 A 
ATOM     13  C   UNL     1       4.708   5.540  19.287  0.00  0.00    +0.000 A 
ATOM     14  C   UNL     1       5.642   4.900  18.477  0.00  0.00    +0.000 A 
ATOM     15  C   UNL     1       5.209   4.130  17.408  0.00  0.00    +0.000 A 
ATOM     16  C   UNL     1       3.850   3.986  17.151  0.00  0.00    +0.000 A 
ATOM     17  C   UNL     1       2.884   4.644  17.940  0.00  0.00    +0.000 A 
ATOM     18  C   UNL     1       1.426   4.437  17.634  0.00  0.00    +0.000 C 
ENDBRANCH   8  12
ENDBRANCH   2   4
BRANCH   1  23
ATOM     19  C   UNL     1       2.494  17.366  19.681  0.00  0.00    +0.000 C 
ATOM     20  C   UNL     1       1.904  15.996  19.505  0.00  0.00    +0.000 A 
ATOM     21  C   UNL     1       0.960  15.502  20.412  0.00  0.00    +0.000 A 
ATOM     22  C   UNL     1       0.408  14.229  20.246  0.00  0.00    +0.000 A 
ATOM     23  C   UNL     1       0.756  13.440  19.143  0.00  0.00    +0.000 A 
ATOM     24  C   UNL     1       1.702  13.932  18.234  0.00  0.00    +0.000 A 
ATOM     25  C   UNL     1       2.280  15.195  18.421  0.00  0.00    +0.000 A 
ENDBRANCH   1  23
BRANCH   1  26
ATOM     26  C   UNL     1      -1.289  12.112  19.362  0.00  0.00    +0.000 C 
BRANCH  26  27
ATOM     27  C   UNL     1      -2.339  11.631  18.378  0.00  0.00    +0.000 A 
ATOM     28  C   UNL     1      -3.690  11.744  18.763  0.00  0.00    +0.000 A 
ATOM     29  C   UNL     1      -4.720  11.636  17.829  0.00  0.00    +0.000 A 
ATOM     30  C   UNL     1      -4.415  11.396  16.492  0.00  0.00    +0.000 A 
ATOM     31  C   UNL     1      -3.092  11.193  16.111  0.00  0.00    +0.000 A 
ATOM     32  C   UNL     1      -2.057  11.297  17.049  0.00  0.00    +0.000 A 
ENDBRANCH  26  27
ENDBRANCH   1  26
TORSDOF 5
ENDMDL
MODEL 7
REMARK VINA RESULT:      -7.4      3.107      6.856
REMARK  Name = 
REMARK  7 active torsions:
REMARK  status: ('A' for Active; 'I' for Inactive)
REMARK    1  A    between atoms: C_1  and  C_2
REMARK    2  A    between atoms: C_5  and  N_6
REMARK    3  A    between atoms: N_6  and  C_7
REMARK    4  A    between atoms: C_7  and  C_8
REMARK    5  A    between atoms: C_14  and  C_16
REMARK    6  A    between atoms: C_20  and  C_22
REMARK    7  A    between atoms: C_27  and  C_28
REMARK                            x       y       z     vdW  Elec       q    Type
REMARK                         _______ _______ _______ _____ _____    ______ ____
ROOT
ATOM      1  N   UNL     1       2.125   6.851  19.818  0.00  0.00    +0.000 N 
ATOM      2  C   UNL     1       3.150   6.728  18.875  0.00  0.00    +0.000 C 
ATOM      3  O   UNL     1       3.522   7.678  18.181  0.00  0.00    +0.000 OA
ENDROOT
BRANCH   2   4
ATOM      4  C   UNL     1       3.805   5.354  18.663  0.00  0.00    +0.000 C 
ATOM      5  C   UNL     1       5.276   5.329  19.106  0.00  0.00    +0.000 C 
ATOM      6  C   UNL     1       6.172   6.110  18.152  0.00  0.00    +0.000 C 
ATOM      7  N   UNL     1       6.035   5.598  16.799  0.00  0.00    +0.000 N 
ATOM      8  C   UNL     1       7.111   4.919  16.217  0.00  0.00    +0.000 C 
ATOM      9  O   UNL     1       8.083   4.541  16.866  0.00  0.00    +0.000 OA
ATOM     10  C   UNL     1       4.677   5.645  16.254  0.00  0.00    +0.000 C 
ATOM     11  C   UNL     1       3.690   4.932  17.182  0.00  0.00    +0.000 C 
BRANCH   8  12
ATOM     12  C   UNL     1       7.096   4.703  14.738  0.00  0.00    +0.000 A 
ATOM     13  C   UNL     1       7.958   5.494  13.952  0.00  0.00    +0.000 A 
ATOM     14  C   UNL     1       7.933   5.402  12.563  0.00  0.00    +0.000 A 
ATOM     15  C   UNL     1       7.098   4.478  11.953  0.00  0.00    +0.000 A 
ATOM     16  C   UNL     1       6.300   3.638  12.721  0.00  0.00    +0.000 A 
ATOM     17  C   UNL     1       6.288   3.727  14.128  0.00  0.00    +0.000 A 
ATOM     18  C   UNL     1       5.423   2.781  14.914  0.00  0.00    +0.000 C 
ENDBRANCH   8  12
ENDBRANCH   2   4
BRANCH   1  23
ATOM     19  C   UNL     1      -0.177  12.047  20.773  0.00  0.00    +0.000 C 
ATOM     20  C   UNL     1       0.454  10.708  20.523  0.00  0.00    +0.000 A 
ATOM     21  C   UNL     1       0.673   9.813  21.577  0.00  0.00    +0.000 A 
ATOM     22  C   UNL     1       1.255   8.564  21.344  0.00  0.00    +0.000 A 
ATOM     23  C   UNL     1       1.592   8.166  20.045  0.00  0.00    +0.000 A 
ATOM     24  C   UNL     1       1.375   9.061  18.989  0.00  0.00    +0.000 A 
ATOM     25  C   UNL     1       0.822  10.326  19.228  0.00  0.00    +0.000 A 
ENDBRANCH   1  23
BRANCH   1  26
ATOM     26  C   UNL     1       1.882   5.895  20.911  0.00  0.00    +0.000 C 
BRANCH  26  27
ATOM     27  C   UNL     1       1.742   4.416  20.598  0.00  0.00    +0.000 A 
ATOM     28  C   UNL     1       0.796   4.046  19.620  0.00  0.00    +0.000 A 
ATOM     29  C   UNL     1       0.816   2.778  19.039  0.00  0.00    +0.000 A 
ATOM     30  C   UNL     1       1.774   1.851  19.439  0.00  0.00    +0.000 A 
ATOM     31  C   UNL     1       2.658   2.171  20.466  0.00  0.00    +0.000 A 
ATOM     32  C   UNL     1       2.637   3.442  21.054  0.00  0.00    +0.000 A 
ENDBRANCH  26  27
ENDBRANCH   1  26
TORSDOF 5
ENDMDL
MODEL 8
REMARK VINA RESULT:      -7.2      1.033      1.455
REMARK  Name = 
REMARK  7 active torsions:
REMARK  status: ('A' for Active; 'I' for Inactive)
REMARK    1  A    between atoms: C_1  and  C_2
REMARK    2  A    between atoms: C_5  and  N_6
REMARK    3  A    between atoms: N_6  and  C_7
REMARK    4  A    between atoms: C_7  and  C_8
REMARK    5  A    between atoms: C_14  and  C_16
REMARK    6  A    between atoms: C_20  and  C_22
REMARK    7  A    between atoms: C_27  and  C_28
REMARK                            x       y       z     vdW  Elec       q    Type
REMARK                         _______ _______ _______ _____ _____    ______ ____
ROOT
ATOM      1  N   UNL     1       0.692  12.095  19.241  0.00  0.00    +0.000 N 
ATOM      2  C   UNL     1       0.786  10.988  20.091  0.00  0.00    +0.000 C 
ATOM      3  O   UNL     1       1.384  11.037  21.170  0.00  0.00    +0.000 OA
ENDROOT
BRANCH   2   4
ATOM      4  C   UNL     1       0.163   9.655  19.647  0.00  0.00    +0.000 C 
ATOM      5  C   UNL     1       0.030   8.653  20.804  0.00  0.00    +0.000 C 
ATOM      6  C   UNL     1       1.382   8.093  21.231  0.00  0.00    +0.000 C 
ATOM      7  N   UNL     1       2.054   7.480  20.097  0.00  0.00    +0.000 N 
ATOM      8  C   UNL     1       2.217   6.092  20.073  0.00  0.00    +0.000 C 
ATOM      9  O   UNL     1       1.629   5.343  20.849  0.00  0.00    +0.000 OA
ATOM     10  C   UNL     1       2.295   8.375  18.963  0.00  0.00    +0.000 C 
ATOM     11  C   UNL     1       0.993   9.035  18.502  0.00  0.00    +0.000 C 
BRANCH   8  12
ATOM     12  C   UNL     1       3.192   5.510  19.100  0.00  0.00    +0.000 A 
ATOM     13  C   UNL     1       4.565   5.671  19.374  0.00  0.00    +0.000 A 
ATOM     14  C   UNL     1       5.524   5.227  18.468  0.00  0.00    +0.000 A 
ATOM     15  C   UNL     1       5.124   4.563  17.317  0.00  0.00    +0.000 A 
ATOM     16  C   UNL     1       3.775   4.330  17.074  0.00  0.00    +0.000 A 
ATOM     17  C   UNL     1       2.782   4.791  17.964  0.00  0.00    +0.000 A 
ATOM     18  C   UNL     1       1.339   4.493  17.666  0.00  0.00    +0.000 C 
ENDBRANCH   8  12
ENDBRANCH   2   4
BRANCH   1  23
ATOM     19  C   UNL     1       2.671  17.189  21.070  0.00  0.00    +0.000 C 
ATOM     20  C   UNL     1       2.172  15.847  20.618  0.00  0.00    +0.000 A 
ATOM     21  C   UNL     1       0.893  15.403  20.970  0.00  0.00    +0.000 A 
ATOM     22  C   UNL     1       0.427  14.156  20.546  0.00  0.00    +0.000 A 
ATOM     23  C   UNL     1       1.216  13.343  19.723  0.00  0.00    +0.000 A 
ATOM     24  C   UNL     1       2.498  13.784  19.371  0.00  0.00    +0.000 A 
ATOM     25  C   UNL     1       2.977  15.020  19.825  0.00  0.00    +0.000 A 
ENDBRANCH   1  23
BRANCH   1  26
ATOM     26  C   UNL     1      -0.285  12.223  18.148  0.00  0.00    +0.000 C 
BRANCH  26  27
ATOM     27  C   UNL     1      -1.723  11.792  18.371  0.00  0.00    +0.000 A 
ATOM     28  C   UNL     1      -2.429  12.406  19.425  0.00  0.00    +0.000 A 
ATOM     29  C   UNL     1      -3.818  12.321  19.510  0.00  0.00    +0.000 A 
ATOM     30  C   UNL     1      -4.526  11.606  18.549  0.00  0.00    +0.000 A 
ATOM     31  C   UNL     1      -3.837  10.920  17.552  0.00  0.00    +0.000 A 
ATOM     32  C   UNL     1      -2.441  11.000  17.468  0.00  0.00    +0.000 A 
ENDBRANCH  26  27
ENDBRANCH   1  26
TORSDOF 5
ENDMDL
MODEL 9
REMARK VINA RESULT:      -7.2      3.053      8.824
REMARK  Name = 
REMARK  7 active torsions:
REMARK  status: ('A' for Active; 'I' for Inactive)
REMARK    1  A    between atoms: C_1  and  C_2
REMARK    2  A    between atoms: C_5  and  N_6
REMARK    3  A    between atoms: N_6  and  C_7
REMARK    4  A    between atoms: C_7  and  C_8
REMARK    5  A    between atoms: C_14  and  C_16
REMARK    6  A    between atoms: C_20  and  C_22
REMARK    7  A    between atoms: C_27  and  C_28
REMARK                            x       y       z     vdW  Elec       q    Type
REMARK                         _______ _______ _______ _____ _____    ______ ____
ROOT
ATOM      1  N   UNL     1      -0.133  11.146  19.777  0.00  0.00    +0.000 N 
ATOM      2  C   UNL     1       0.037  11.951  20.909  0.00  0.00    +0.000 C 
ATOM      3  O   UNL     1       0.687  11.576  21.889  0.00  0.00    +0.000 OA
ENDROOT
BRANCH   2   4
ATOM      4  C   UNL     1      -0.643  13.328  20.952  0.00  0.00    +0.000 C 
ATOM      5  C   UNL     1      -0.460  14.033  22.304  0.00  0.00    +0.000 C 
ATOM      6  C   UNL     1      -1.290  13.381  23.403  0.00  0.00    +0.000 C 
ATOM      7  N   UNL     1      -2.694  13.354  23.026  0.00  0.00    +0.000 N 
ATOM      8  C   UNL     1      -3.600  14.162  23.719  0.00  0.00    +0.000 C 
ATOM      9  O   UNL     1      -3.241  15.057  24.481  0.00  0.00    +0.000 OA
ATOM     10  C   UNL     1      -2.986  12.639  21.782  0.00  0.00    +0.000 C 
ATOM     11  C   UNL     1      -2.146  13.189  20.626  0.00  0.00    +0.000 C 
BRANCH   8  12
ATOM     12  C   UNL     1      -5.060  13.881  23.567  0.00  0.00    +0.000 A 
ATOM     13  C   UNL     1      -5.599  12.805  24.301  0.00  0.00    +0.000 A 
ATOM     14  C   UNL     1      -6.933  12.438  24.141  0.00  0.00    +0.000 A 
ATOM     15  C   UNL     1      -7.752  13.178  23.301  0.00  0.00    +0.000 A 
ATOM     16  C   UNL     1      -7.250  14.288  22.632  0.00  0.00    +0.000 A 
ATOM     17  C   UNL     1      -5.898  14.667  22.757  0.00  0.00    +0.000 A 
ATOM     18  C   UNL     1      -5.411  15.890  22.029  0.00  0.00    +0.000 C 
ENDBRANCH   8  12
ENDBRANCH   2   4
BRANCH   1  23
ATOM     19  C   UNL     1       2.842   6.211  19.763  0.00  0.00    +0.000 C 
ATOM     20  C   UNL     1       2.044   7.483  19.747  0.00  0.00    +0.000 A 
ATOM     21  C   UNL     1       1.223   7.826  20.828  0.00  0.00    +0.000 A 
ATOM     22  C   UNL     1       0.483   9.011  20.816  0.00  0.00    +0.000 A 
ATOM     23  C   UNL     1       0.581   9.901  19.739  0.00  0.00    +0.000 A 
ATOM     24  C   UNL     1       1.401   9.559  18.655  0.00  0.00    +0.000 A 
ATOM     25  C   UNL     1       2.116   8.354  18.654  0.00  0.00    +0.000 A 
ENDBRANCH   1  23
BRANCH   1  26
ATOM     26  C   UNL     1      -0.566  11.645  18.461  0.00  0.00    +0.000 C 
BRANCH  26  27
ATOM     27  C   UNL     1      -1.799  11.055  17.802  0.00  0.00    +0.000 A 
ATOM     28  C   UNL     1      -3.016  11.749  17.962  0.00  0.00    +0.000 A 
ATOM     29  C   UNL     1      -4.116  11.476  17.150  0.00  0.00    +0.000 A 
ATOM     30  C   UNL     1      -4.023  10.491  16.171  0.00  0.00    +0.000 A 
ATOM     31  C   UNL     1      -2.858   9.737  16.058  0.00  0.00    +0.000 A 
ATOM     32  C   UNL     1      -1.754  10.006  16.877  0.00  0.00    +0.000 A 
ENDBRANCH  26  27
ENDBRANCH   1  26
TORSDOF 5
ENDMDL
