MODEL 1
REMARK VINA RESULT:      -8.8      0.000      0.000
REMARK  Name = 
REMARK  4 active torsions:
REMARK  status: ('A' for Active; 'I' for Inactive)
REMARK    1  A    between atoms: C_1  and  C_2
REMARK    2  A    between atoms: N_4  and  C_5
REMARK    3  A    between atoms: C_8  and  N_9
REMARK    4  A    between atoms: N_17  and  C_18
REMARK                            x       y       z     vdW  Elec       q    Type
REMARK                         _______ _______ _______ _____ _____    ______ ____
ROOT
ATOM      1  N   UNL     1       2.480   7.534  20.131  0.00  0.00    +0.000 N 
ATOM      2  C   UNL     1       2.382   6.183  19.944  0.00  0.00    +0.000 A 
ATOM      3  N   UNL     1       1.556   5.416  20.601  0.00  0.00    +0.000 NA
ATOM      4  C   UNL     1       1.538   4.045  20.396  0.00  0.00    +0.000 A 
ATOM      5  O   UNL     1       0.788   3.283  20.994  0.00  0.00    +0.000 OA
ATOM      6  C   UNL     1       2.452   3.557  19.389  0.00  0.00    +0.000 A 
ATOM      7  C   UNL     1       2.678   2.313  18.797  0.00  0.00    +0.000 A 
ATOM      8  N   UNL     1       3.571   2.379  17.800  0.00  0.00    +0.000 NA
ATOM      9  N   UNL     1       4.017   3.674  17.820  0.00  0.00    +0.000 N 
ATOM     10  C   UNL     1       3.313   4.403  18.751  0.00  0.00    +0.000 A 
ATOM     11  N   UNL     1       3.304   5.726  19.018  0.00  0.00    +0.000 N 
ATOM     12  H   UNL     1       3.252   8.033  19.713  0.00  0.00    +0.000 HD
ATOM     13  H   UNL     1       3.703   6.400  18.376  0.00  0.00    +0.000 HD
ENDROOT
BRANCH   1  17
ATOM     14  C   UNL     1      -0.368  10.260  21.630  0.00  0.00    +0.000 A 
ATOM     15  C   UNL     1       0.330   9.405  22.480  0.00  0.00    +0.000 A 
ATOM     16  C   UNL     1       1.247   8.487  21.967  0.00  0.00    +0.000 A 
ATOM     17  C   UNL     1       1.471   8.393  20.592  0.00  0.00    +0.000 A 
ATOM     18  C   UNL     1       0.691   9.176  19.735  0.00  0.00    +0.000 A 
ATOM     19  C   UNL     1      -0.217  10.109  20.249  0.00  0.00    +0.000 A 
BRANCH  14  23
ATOM     20  C   UNL     1      -1.972  13.450  22.838  0.00  0.00    +0.000 C 
ATOM     21  C   UNL     1      -0.846  12.604  22.314  0.00  0.00    +0.000 C 
ATOM     22  O   UNL     1       0.256  13.102  22.100  0.00  0.00    +0.000 OA
ATOM     23  N   UNL     1      -1.216  11.286  22.102  0.00  0.00    +0.000 N 
ATOM     24  H   UNL     1      -2.199  11.067  22.167  0.00  0.00    +0.000 HD
ENDBRANCH  14  23
ENDBRANCH   1  17
BRANCH   9  25
ATOM     25  C   UNL     1       5.051   4.101  16.943  0.00  0.00    +0.000 A 
ATOM     26  C   UNL     1       6.305   4.441  17.473  0.00  0.00    +0.000 A 
ATOM     27  C   UNL     1       7.344   4.813  16.620  0.00  0.00    +0.000 A 
ATOM     28  C   UNL     1       7.133   4.874  15.243  0.00  0.00    +0.000 A 
ATOM     29  C   UNL     1       5.878   4.578  14.715  0.00  0.00    +0.000 A 
ATOM     30  C   UNL     1       4.836   4.194  15.562  0.00  0.00    +0.000 A 
ENDBRANCH   9  25
TORSDOF 3
ENDMDL
MODEL 2
REMARK VINA RESULT:      -8.4      0.448      1.025
REMARK  Name = 
REMARK  4 active torsions:
REMARK  status: ('A' for Active; 'I' for Inactive)
REMARK    1  A    between atoms: C_1  and  C_2
REMARK    2  A    between atoms: N_4  and  C_5
REMARK    3  A    between atoms: C_8  and  N_9
REMARK    4  A    between atoms: N_17  and  C_18
REMARK                            x       y       z     vdW  Elec       q    Type
REMARK                         _______ _______ _______ _____ _____    ______ ____
ROOT
ATOM      1  N   UNL     1       2.613   7.541  20.099  0.00  0.00    +0.000 N 
ATOM      2  C   UNL     1       2.439   6.202  19.878  0.00  0.00    +0.000 A 
ATOM      3  N   UNL     1       1.577   5.465  20.521  0.00  0.00    +0.000 NA
ATOM      4  C   UNL     1       1.481   4.103  20.280  0.00  0.00    +0.000 A 
ATOM      5  O   UNL     1       0.694   3.368  20.863  0.00  0.00    +0.000 OA
ATOM      6  C   UNL     1       2.361   3.592  19.254  0.00  0.00    +0.000 A 
ATOM      7  C   UNL     1       2.514   2.354  18.627  0.00  0.00    +0.000 A 
ATOM      8  N   UNL     1       3.403   2.398  17.625  0.00  0.00    +0.000 NA
ATOM      9  N   UNL     1       3.920   3.665  17.676  0.00  0.00    +0.000 N 
ATOM     10  C   UNL     1       3.263   4.406  18.631  0.00  0.00    +0.000 A 
ATOM     11  N   UNL     1       3.329   5.720  18.933  0.00  0.00    +0.000 N 
ATOM     12  H   UNL     1       3.408   8.008  19.689  0.00  0.00    +0.000 HD
ATOM     13  H   UNL     1       3.760   6.388  18.306  0.00  0.00    +0.000 HD
ENDROOT
BRANCH   1  17
ATOM     14  C   UNL     1      -0.445  10.116  21.443  0.00  0.00    +0.000 A 
ATOM     15  C   UNL     1      -0.033  10.118  20.113  0.00  0.00    +0.000 A 
ATOM     16  C   UNL     1       1.000   9.282  19.689  0.00  0.00    +0.000 A 
ATOM     17  C   UNL     1       1.655   8.441  20.591  0.00  0.00    +0.000 A 
ATOM     18  C   UNL     1       1.313   8.520  21.944  0.00  0.00    +0.000 A 
ATOM     19  C   UNL     1       0.265   9.345  22.369  0.00  0.00    +0.000 A 
BRANCH  14  23
ATOM     20  C   UNL     1      -2.870  12.540  23.010  0.00  0.00    +0.000 C 
ATOM     21  C   UNL     1      -1.508  12.004  22.666  0.00  0.00    +0.000 C 
ATOM     22  O   UNL     1      -0.497  12.593  23.040  0.00  0.00    +0.000 OA
ATOM     23  N   UNL     1      -1.561  10.850  21.902  0.00  0.00    +0.000 N 
ATOM     24  H   UNL     1      -2.462  10.581  21.535  0.00  0.00    +0.000 HD
ENDBRANCH  14  23
ENDBRANCH   1  17
BRANCH   9  25
ATOM     25  C   UNL     1       4.971   4.058  16.803  0.00  0.00    +0.000 A 
ATOM     26  C   UNL     1       6.209   4.435  17.344  0.00  0.00    +0.000 A 
ATOM     27  C   UNL     1       7.265   4.774  16.497  0.00  0.00    +0.000 A 
ATOM     28  C   UNL     1       7.086   4.766  15.114  0.00  0.00    +0.000 A 
ATOM     29  C   UNL     1       5.845   4.432  14.574  0.00  0.00    +0.000 A 
ATOM     30  C   UNL     1       4.787   4.081  15.415  0.00  0.00    +0.000 A 
ENDBRANCH   9  25
TORSDOF 3
ENDMDL
MODEL 3
REMARK VINA RESULT:      -8.2      0.727      1.182
REMARK  Name = 
REMARK  4 active torsions:
REMARK  status: ('A' for Active; 'I' for Inactive)
REMARK    1  A    between atoms: C_1  and  C_2
REMARK    2  A    between atoms: N_4  and  C_5
REMARK    3  A    between atoms: C_8  and  N_9
REMARK    4  A    between atoms: N_17  and  C_18
REMARK                            x       y       z     vdW  Elec       q    Type
REMARK                         _______ _______ _______ _____ _____    ______ ____
ROOT
ATOM      1  N   UNL     1       2.483   7.715  19.573  0.00  0.00    +0.000 N 
ATOM      2  C   UNL     1       2.433   6.348  19.542  0.00  0.00    +0.000 A 
ATOM      3  N   UNL     1       1.633   5.634  20.285  0.00  0.00    +0.000 NA
ATOM      4  C   UNL     1       1.663   4.249  20.238  0.00  0.00    +0.000 A 
ATOM      5  O   UNL     1       0.937   3.534  20.920  0.00  0.00    +0.000 OA
ATOM      6  C   UNL     1       2.596   3.680  19.293  0.00  0.00    +0.000 A 
ATOM      7  C   UNL     1       2.867   2.385  18.847  0.00  0.00    +0.000 A 
ATOM      8  N   UNL     1       3.760   2.368  17.848  0.00  0.00    +0.000 NA
ATOM      9  N   UNL     1       4.160   3.671  17.718  0.00  0.00    +0.000 N 
ATOM     10  C   UNL     1       3.428   4.477  18.561  0.00  0.00    +0.000 A 
ATOM     11  N   UNL     1       3.373   5.821  18.674  0.00  0.00    +0.000 N 
ATOM     12  H   UNL     1       3.238   8.189  19.100  0.00  0.00    +0.000 HD
ATOM     13  H   UNL     1       3.750   6.430  17.959  0.00  0.00    +0.000 HD
ENDROOT
BRANCH   1  17
ATOM     14  C   UNL     1      -0.469  10.467  20.797  0.00  0.00    +0.000 A 
ATOM     15  C   UNL     1       0.103   9.574  21.700  0.00  0.00    +0.000 A 
ATOM     16  C   UNL     1       1.057   8.649  21.275  0.00  0.00    +0.000 A 
ATOM     17  C   UNL     1       1.444   8.585  19.934  0.00  0.00    +0.000 A 
ATOM     18  C   UNL     1       0.789   9.409  19.013  0.00  0.00    +0.000 A 
ATOM     19  C   UNL     1      -0.155  10.349  19.440  0.00  0.00    +0.000 A 
BRANCH  14  23
ATOM     20  C   UNL     1      -2.589  13.016  22.592  0.00  0.00    +0.000 C 
ATOM     21  C   UNL     1      -1.588  11.899  22.497  0.00  0.00    +0.000 C 
ATOM     22  O   UNL     1      -1.063  11.448  23.512  0.00  0.00    +0.000 OA
ATOM     23  N   UNL     1      -1.346  11.501  21.192  0.00  0.00    +0.000 N 
ATOM     24  H   UNL     1      -1.729  12.076  20.456  0.00  0.00    +0.000 HD
ENDBRANCH  14  23
ENDBRANCH   1  17
BRANCH   9  25
ATOM     25  C   UNL     1       5.181   4.031  16.797  0.00  0.00    +0.000 A 
ATOM     26  C   UNL     1       4.927   3.944  15.421  0.00  0.00    +0.000 A 
ATOM     27  C   UNL     1       5.903   4.343  14.506  0.00  0.00    +0.000 A 
ATOM     28  C   UNL     1       7.139   4.803  14.955  0.00  0.00    +0.000 A 
ATOM     29  C   UNL     1       7.411   4.853  16.321  0.00  0.00    +0.000 A 
ATOM     30  C   UNL     1       6.436   4.466  17.243  0.00  0.00    +0.000 A 
ENDBRANCH   9  25
TORSDOF 3
ENDMDL
MODEL 4
REMARK VINA RESULT:      -8.0      1.273      1.915
REMARK  Name = 
REMARK  4 active torsions:
REMARK  status: ('A' for Active; 'I' for Inactive)
REMARK    1  A    between atoms: C_1  and  C_2
REMARK    2  A    between atoms: N_4  and  C_5
REMARK    3  A    between atoms: C_8  and  N_9
REMARK    4  A    between atoms: N_17  and  C_18
REMARK                            x       y       z     vdW  Elec       q    Type
REMARK                         _______ _______ _______ _____ _____    ______ ____
ROOT
ATOM      1  N   UNL     1       2.523   8.060  18.939  0.00  0.00    +0.000 N 
ATOM      2  C   UNL     1       2.497   6.700  19.072  0.00  0.00    +0.000 A 
ATOM      3  N   UNL     1       1.734   6.067  19.921  0.00  0.00    +0.000 NA
ATOM      4  C   UNL     1       1.788   4.687  20.038  0.00  0.00    +0.000 A 
ATOM      5  O   UNL     1       1.099   4.048  20.825  0.00  0.00    +0.000 OA
ATOM      6  C   UNL     1       2.701   4.023  19.136  0.00  0.00    +0.000 A 
ATOM      7  C   UNL     1       2.981   2.688  18.838  0.00  0.00    +0.000 A 
ATOM      8  N   UNL     1       3.842   2.565  17.817  0.00  0.00    +0.000 NA
ATOM      9  N   UNL     1       4.214   3.849  17.521  0.00  0.00    +0.000 N 
ATOM     10  C   UNL     1       3.495   4.739  18.286  0.00  0.00    +0.000 A 
ATOM     11  N   UNL     1       3.418   6.086  18.241  0.00  0.00    +0.000 N 
ATOM     12  H   UNL     1       3.254   8.486  18.388  0.00  0.00    +0.000 HD
ATOM     13  H   UNL     1       3.760   6.611  17.446  0.00  0.00    +0.000 HD
ENDROOT
BRANCH   1  17
ATOM     14  C   UNL     1      -0.777  10.575  19.698  0.00  0.00    +0.000 A 
ATOM     15  C   UNL     1      -0.301  10.380  18.403  0.00  0.00    +0.000 A 
ATOM     16  C   UNL     1       0.810   9.569  18.170  0.00  0.00    +0.000 A 
ATOM     17  C   UNL     1       1.480   8.952  19.229  0.00  0.00    +0.000 A 
ATOM     18  C   UNL     1       1.066   9.237  20.535  0.00  0.00    +0.000 A 
ATOM     19  C   UNL     1      -0.058  10.036  20.769  0.00  0.00    +0.000 A 
BRANCH  14  23
ATOM     20  C   UNL     1      -3.464  13.109  20.451  0.00  0.00    +0.000 C 
ATOM     21  C   UNL     1      -2.064  12.658  20.141  0.00  0.00    +0.000 C 
ATOM     22  O   UNL     1      -1.156  13.478  20.036  0.00  0.00    +0.000 OA
ATOM     23  N   UNL     1      -1.964  11.285  19.979  0.00  0.00    +0.000 N 
ATOM     24  H   UNL     1      -2.827  10.763  19.933  0.00  0.00    +0.000 HD
ENDBRANCH  14  23
ENDBRANCH   1  17
BRANCH   9  25
ATOM     25  C   UNL     1       5.198   4.111  16.529  0.00  0.00    +0.000 A 
ATOM     26  C   UNL     1       4.853   4.008  15.174  0.00  0.00    +0.000 A 
ATOM     27  C   UNL     1       5.794   4.313  14.190  0.00  0.00    +0.000 A 
ATOM     28  C   UNL     1       7.086   4.694  14.549  0.00  0.00    +0.000 A 
ATOM     29  C   UNL     1       7.445   4.758  15.894  0.00  0.00    +0.000 A 
ATOM     30  C   UNL     1       6.505   4.466  16.884  0.00  0.00    +0.000 A 
ENDBRANCH   9  25
TORSDOF 3
ENDMDL
MODEL 5
REMARK VINA RESULT:      -7.9      1.152      1.281
REMARK  Name = 
REMARK  4 active torsions:
REMARK  status: ('A' for Active; 'I' for Inactive)
REMARK    1  A    between atoms: C_1  and  C_2
REMARK    2  A    between atoms: N_4  and  C_5
REMARK    3  A    between atoms: C_8  and  N_9
REMARK    4  A    between atoms: N_17  and  C_18
REMARK                            x       y       z     vdW  Elec       q    Type
REMARK                         _______ _______ _______ _____ _____    ______ ____
ROOT
ATOM      1  N   UNL     1       2.407   8.108  18.926  0.00  0.00    +0.000 N 
ATOM      2  C   UNL     1       2.476   6.757  19.126  0.00  0.00    +0.000 A 
ATOM      3  N   UNL     1       1.787   6.122  20.034  0.00  0.00    +0.000 NA
ATOM      4  C   UNL     1       1.936   4.755  20.216  0.00  0.00    +0.000 A 
ATOM      5  O   UNL     1       1.319   4.115  21.059  0.00  0.00    +0.000 OA
ATOM      6  C   UNL     1       2.857   4.106  19.311  0.00  0.00    +0.000 A 
ATOM      7  C   UNL     1       3.213   2.779  19.067  0.00  0.00    +0.000 A 
ATOM      8  N   UNL     1       4.042   2.659  18.021  0.00  0.00    +0.000 NA
ATOM      9  N   UNL     1       4.318   3.947  17.648  0.00  0.00    +0.000 N 
ATOM     10  C   UNL     1       3.570   4.827  18.397  0.00  0.00    +0.000 A 
ATOM     11  N   UNL     1       3.404   6.162  18.290  0.00  0.00    +0.000 N 
ATOM     12  H   UNL     1       3.088   8.551  18.326  0.00  0.00    +0.000 HD
ATOM     13  H   UNL     1       3.682   6.667  17.458  0.00  0.00    +0.000 HD
ENDROOT
BRANCH   1  17
ATOM     14  C   UNL     1      -0.699  10.786  19.913  0.00  0.00    +0.000 A 
ATOM     15  C   UNL     1      -0.060  10.030  20.893  0.00  0.00    +0.000 A 
ATOM     16  C   UNL     1       0.946   9.126  20.548  0.00  0.00    +0.000 A 
ATOM     17  C   UNL     1       1.319   8.946  19.214  0.00  0.00    +0.000 A 
ATOM     18  C   UNL     1       0.602   9.626  18.225  0.00  0.00    +0.000 A 
ATOM     19  C   UNL     1      -0.395  10.545  18.569  0.00  0.00    +0.000 A 
BRANCH  14  23
ATOM     20  C   UNL     1      -2.558  13.969  20.702  0.00  0.00    +0.000 C 
ATOM     21  C   UNL     1      -1.347  13.146  20.364  0.00  0.00    +0.000 C 
ATOM     22  O   UNL     1      -0.250  13.682  20.228  0.00  0.00    +0.000 OA
ATOM     23  N   UNL     1      -1.635  11.799  20.215  0.00  0.00    +0.000 N 
ATOM     24  H   UNL     1      -2.610  11.536  20.194  0.00  0.00    +0.000 HD
ENDBRANCH  14  23
ENDBRANCH   1  17
BRANCH   9  25
ATOM     25  C   UNL     1       5.246   4.221  16.607  0.00  0.00    +0.000 A 
ATOM     26  C   UNL     1       6.526   4.693  16.933  0.00  0.00    +0.000 A 
ATOM     27  C   UNL     1       7.464   4.917  15.924  0.00  0.00    +0.000 A 
ATOM     28  C   UNL     1       7.125   4.699  14.590  0.00  0.00    +0.000 A 
ATOM     29  C   UNL     1       5.841   4.270  14.258  0.00  0.00    +0.000 A 
ATOM     30  C   UNL     1       4.901   4.033  15.262  0.00  0.00    +0.000 A 
ENDBRANCH   9  25
TORSDOF 3
ENDMDL
MODEL 6
REMARK VINA RESULT:      -7.8      3.404     10.191
REMARK  Name = 
REMARK  4 active torsions:
REMARK  status: ('A' for Active; 'I' for Inactive)
REMARK    1  A    between atoms: C_1  and  C_2
REMARK    2  A    between atoms: N_4  and  C_5
REMARK    3  A    between atoms: C_8  and  N_9
REMARK    4  A    between atoms: N_17  and  C_18
REMARK                            x       y       z     vdW  Elec       q    Type
REMARK                         _______ _______ _______ _____ _____    ______ ____
ROOT
ATOM      1  N   UNL     1       0.289  10.385  19.279  0.00  0.00    +0.000 N 
ATOM      2  C   UNL     1      -0.899  10.570  18.627  0.00  0.00    +0.000 A 
ATOM      3  N   UNL     1      -1.157  10.096  17.439  0.00  0.00    +0.000 NA
ATOM      4  C   UNL     1      -2.366  10.358  16.814  0.00  0.00    +0.000 A 
ATOM      5  O   UNL     1      -2.653   9.943  15.697  0.00  0.00    +0.000 OA
ATOM      6  C   UNL     1      -3.307  11.137  17.584  0.00  0.00    +0.000 A 
ATOM      7  C   UNL     1      -4.636  11.523  17.402  0.00  0.00    +0.000 A 
ATOM      8  N   UNL     1      -5.134  12.156  18.474  0.00  0.00    +0.000 NA
ATOM      9  N   UNL     1      -4.071  12.281  19.327  0.00  0.00    +0.000 N 
ATOM     10  C   UNL     1      -2.972  11.629  18.814  0.00  0.00    +0.000 A 
ATOM     11  N   UNL     1      -1.765  11.366  19.356  0.00  0.00    +0.000 N 
ATOM     12  H   UNL     1       0.479  10.918  20.115  0.00  0.00    +0.000 HD
ATOM     13  H   UNL     1      -1.598  11.458  20.350  0.00  0.00    +0.000 HD
ENDROOT
BRANCH   1  17
ATOM     14  C   UNL     1       2.775   7.016  18.769  0.00  0.00    +0.000 A 
ATOM     15  C   UNL     1       2.121   7.255  19.976  0.00  0.00    +0.000 A 
ATOM     16  C   UNL     1       1.326   8.389  20.140  0.00  0.00    +0.000 A 
ATOM     17  C   UNL     1       1.184   9.318  19.107  0.00  0.00    +0.000 A 
ATOM     18  C   UNL     1       1.927   9.131  17.937  0.00  0.00    +0.000 A 
ATOM     19  C   UNL     1       2.711   7.985  17.764  0.00  0.00    +0.000 A 
BRANCH  14  23
ATOM     20  C   UNL     1       3.979   3.569  17.832  0.00  0.00    +0.000 C 
ATOM     21  C   UNL     1       2.961   4.666  17.974  0.00  0.00    +0.000 C 
ATOM     22  O   UNL     1       1.801   4.486  17.614  0.00  0.00    +0.000 OA
ATOM     23  N   UNL     1       3.493   5.828  18.508  0.00  0.00    +0.000 N 
ATOM     24  H   UNL     1       4.497   5.876  18.599  0.00  0.00    +0.000 HD
ENDBRANCH  14  23
ENDBRANCH   1  17
BRANCH   9  25
ATOM     25  C   UNL     1      -4.200  12.988  20.554  0.00  0.00    +0.000 A 
ATOM     26  C   UNL     1      -5.201  12.611  21.461  0.00  0.00    +0.000 A 
ATOM     27  C   UNL     1      -5.307  13.262  22.691  0.00  0.00    +0.000 A 
ATOM     28  C   UNL     1      -4.438  14.304  23.010  0.00  0.00    +0.000 A 
ATOM     29  C   UNL     1      -3.468  14.709  22.095  0.00  0.00    +0.000 A 
ATOM     30  C   UNL     1      -3.349  14.055  20.867  0.00  0.00    +0.000 A 
ENDBRANCH   9  25
TORSDOF 3
ENDMDL
MODEL 7
REMARK VINA RESULT:      -7.8      2.056      2.504
REMARK  Name = 
REMARK  4 active torsions:
REMARK  status: ('A' for Active; 'I' for Inactive)
REMARK    1  A    between atoms: C_1  and  C_2
REMARK    2  A    between atoms: N_4  and  C_5
REMARK    3  A    between atoms: C_8  and  N_9
REMARK    4  A    between atoms: N_17  and  C_18
REMARK                            x       y       z     vdW  Elec       q    Type
REMARK                         _______ _______ _______ _____ _____    ______ ____
ROOT
ATOM      1  N   UNL     1       2.566   8.926  17.990  0.00  0.00    +0.000 N 
ATOM      2  C   UNL     1       2.679   7.662  18.500  0.00  0.00    +0.000 A 
ATOM      3  N   UNL     1       2.073   7.258  19.582  0.00  0.00    +0.000 NA
ATOM      4  C   UNL     1       2.266   5.976  20.072  0.00  0.00    +0.000 A 
ATOM      5  O   UNL     1       1.727   5.553  21.088  0.00  0.00    +0.000 OA
ATOM      6  C   UNL     1       3.133   5.134  19.281  0.00  0.00    +0.000 A 
ATOM      7  C   UNL     1       3.501   3.788  19.333  0.00  0.00    +0.000 A 
ATOM      8  N   UNL     1       4.255   3.426  18.286  0.00  0.00    +0.000 NA
ATOM      9  N   UNL     1       4.473   4.588  17.597  0.00  0.00    +0.000 N 
ATOM     10  C   UNL     1       3.762   5.618  18.170  0.00  0.00    +0.000 A 
ATOM     11  N   UNL     1       3.558   6.889  17.761  0.00  0.00    +0.000 N 
ATOM     12  H   UNL     1       3.191   9.216  17.252  0.00  0.00    +0.000 HD
ATOM     13  H   UNL     1       3.763   7.181  16.814  0.00  0.00    +0.000 HD
ENDROOT
BRANCH   1  17
ATOM     14  C   UNL     1      -0.786  11.397  18.655  0.00  0.00    +0.000 A 
ATOM     15  C   UNL     1      -0.915  10.160  18.029  0.00  0.00    +0.000 A 
ATOM     16  C   UNL     1       0.206   9.366  17.788  0.00  0.00    +0.000 A 
ATOM     17  C   UNL     1       1.482   9.802  18.152  0.00  0.00    +0.000 A 
ATOM     18  C   UNL     1       1.620  11.090  18.680  0.00  0.00    +0.000 A 
ATOM     19  C   UNL     1       0.495  11.880  18.939  0.00  0.00    +0.000 A 
BRANCH  14  23
ATOM     20  C   UNL     1      -3.557  13.268  20.398  0.00  0.00    +0.000 C 
ATOM     21  C   UNL     1      -2.338  12.391  20.328  0.00  0.00    +0.000 C 
ATOM     22  O   UNL     1      -1.828  11.954  21.356  0.00  0.00    +0.000 OA
ATOM     23  N   UNL     1      -1.896  12.186  19.031  0.00  0.00    +0.000 N 
ATOM     24  H   UNL     1      -2.320  12.746  18.306  0.00  0.00    +0.000 HD
ENDBRANCH  14  23
ENDBRANCH   1  17
BRANCH   9  25
ATOM     25  C   UNL     1       5.317   4.610  16.453  0.00  0.00    +0.000 A 
ATOM     26  C   UNL     1       4.809   4.187  15.217  0.00  0.00    +0.000 A 
ATOM     27  C   UNL     1       5.610   4.251  14.075  0.00  0.00    +0.000 A 
ATOM     28  C   UNL     1       6.923   4.710  14.165  0.00  0.00    +0.000 A 
ATOM     29  C   UNL     1       7.445   5.093  15.399  0.00  0.00    +0.000 A 
ATOM     30  C   UNL     1       6.646   5.041  16.544  0.00  0.00    +0.000 A 
ENDBRANCH   9  25
TORSDOF 3
ENDMDL
MODEL 8
REMARK VINA RESULT:      -7.7      2.901     10.060
REMARK  Name = 
REMARK  4 active torsions:
REMARK  status: ('A' for Active; 'I' for Inactive)
REMARK    1  A    between atoms: C_1  and  C_2
REMARK    2  A    between atoms: N_4  and  C_5
REMARK    3  A    between atoms: C_8  and  N_9
REMARK    4  A    between atoms: N_17  and  C_18
REMARK                            x       y       z     vdW  Elec       q    Type
REMARK                         _______ _______ _______ _____ _____    ______ ____
ROOT
ATOM      1  N   UNL     1       0.756  10.132  19.522  0.00  0.00    +0.000 N 
ATOM      2  C   UNL     1      -0.480  10.447  19.031  0.00  0.00    +0.000 A 
ATOM      3  N   UNL     1      -0.945  10.005  17.895  0.00  0.00    +0.000 NA
ATOM      4  C   UNL     1      -2.191  10.398  17.432  0.00  0.00    +0.000 A 
ATOM      5  O   UNL     1      -2.668  10.017  16.369  0.00  0.00    +0.000 OA
ATOM      6  C   UNL     1      -2.930  11.277  18.308  0.00  0.00    +0.000 A 
ATOM      7  C   UNL     1      -4.221  11.808  18.298  0.00  0.00    +0.000 A 
ATOM      8  N   UNL     1      -4.498  12.492  19.417  0.00  0.00    +0.000 NA
ATOM      9  N   UNL     1      -3.323  12.499  20.119  0.00  0.00    +0.000 N 
ATOM     10  C   UNL     1      -2.382  11.730  19.475  0.00  0.00    +0.000 A 
ATOM     11  N   UNL     1      -1.149  11.335  19.856  0.00  0.00    +0.000 N 
ATOM     12  H   UNL     1       1.113  10.641  20.318  0.00  0.00    +0.000 HD
ATOM     13  H   UNL     1      -0.841  11.408  20.818  0.00  0.00    +0.000 HD
ENDROOT
BRANCH   1  17
ATOM     14  C   UNL     1       2.764   6.511  18.719  0.00  0.00    +0.000 A 
ATOM     15  C   UNL     1       2.230   6.776  19.979  0.00  0.00    +0.000 A 
ATOM     16  C   UNL     1       1.595   7.991  20.238  0.00  0.00    +0.000 A 
ATOM     17  C   UNL     1       1.498   8.973  19.250  0.00  0.00    +0.000 A 
ATOM     18  C   UNL     1       2.128   8.746  18.022  0.00  0.00    +0.000 A 
ATOM     19  C   UNL     1       2.751   7.522  17.754  0.00  0.00    +0.000 A 
BRANCH  14  23
ATOM     20  C   UNL     1       3.473   3.002  17.536  0.00  0.00    +0.000 C 
ATOM     21  C   UNL     1       2.616   4.215  17.770  0.00  0.00    +0.000 C 
ATOM     22  O   UNL     1       1.438   4.219  17.424  0.00  0.00    +0.000 OA
ATOM     23  N   UNL     1       3.309   5.257  18.366  0.00  0.00    +0.000 N 
ATOM     24  H   UNL     1       4.311   5.162  18.439  0.00  0.00    +0.000 HD
ENDBRANCH  14  23
ENDBRANCH   1  17
BRANCH   9  25
ATOM     25  C   UNL     1      -3.210  13.216  21.341  0.00  0.00    +0.000 A 
ATOM     26  C   UNL     1      -2.662  14.507  21.333  0.00  0.00    +0.000 A 
ATOM     27  C   UNL     1      -2.592  15.243  22.516  0.00  0.00    +0.000 A 
ATOM     28  C   UNL     1      -3.040  14.688  23.714  0.00  0.00    +0.000 A 
ATOM     29  C   UNL     1      -3.547  13.390  23.735  0.00  0.00    +0.000 A 
ATOM     30  C   UNL     1      -3.631  12.652  22.552  0.00  0.00    +0.000 A 
ENDBRANCH   9  25
TORSDOF 3
ENDMDL
MODEL 9
REMARK VINA RESULT:      -7.6      2.925      9.846
REMARK  Name = 
REMARK  4 active torsions:
REMARK  status: ('A' for Active; 'I' for Inactive)
REMARK    1  A    between atoms: C_1  and  C_2
REMARK    2  A    between atoms: N_4  and  C_5
REMARK    3  A    between atoms: C_8  and  N_9
REMARK    4  A    between atoms: N_17  and  C_18
REMARK                            x       y       z     vdW  Elec       q    Type
REMARK                         _______ _______ _______ _____ _____    ______ ____
ROOT
ATOM      1  N   UNL     1       1.174   9.649  19.702  0.00  0.00    +0.000 N 
ATOM      2  C   UNL     1      -0.020  10.099  19.212  0.00  0.00    +0.000 A 
ATOM      3  N   UNL     1      -0.517   9.735  18.062  0.00  0.00    +0.000 NA
ATOM      4  C   UNL     1      -1.714  10.262  17.602  0.00  0.00    +0.000 A 
ATOM      5  O   UNL     1      -2.217   9.959  16.527  0.00  0.00    +0.000 OA
ATOM      6  C   UNL     1      -2.368  11.188  18.497  0.00  0.00    +0.000 A 
ATOM      7  C   UNL     1      -3.600  11.846  18.493  0.00  0.00    +0.000 A 
ATOM      8  N   UNL     1      -3.817  12.525  19.628  0.00  0.00    +0.000 NA
ATOM      9  N   UNL     1      -2.653  12.396  20.337  0.00  0.00    +0.000 N 
ATOM     10  C   UNL     1      -1.788  11.553  19.678  0.00  0.00    +0.000 A 
ATOM     11  N   UNL     1      -0.604  11.028  20.056  0.00  0.00    +0.000 N 
ATOM     12  H   UNL     1       1.574  10.099  20.513  0.00  0.00    +0.000 HD
ATOM     13  H   UNL     1      -0.299  11.045  21.022  0.00  0.00    +0.000 HD
ENDROOT
BRANCH   1  17
ATOM     14  C   UNL     1       2.815   5.870  18.798  0.00  0.00    +0.000 A 
ATOM     15  C   UNL     1       2.231   6.126  20.037  0.00  0.00    +0.000 A 
ATOM     16  C   UNL     1       1.720   7.390  20.333  0.00  0.00    +0.000 A 
ATOM     17  C   UNL     1       1.799   8.429  19.403  0.00  0.00    +0.000 A 
ATOM     18  C   UNL     1       2.481   8.199  18.204  0.00  0.00    +0.000 A 
ATOM     19  C   UNL     1       2.980   6.928  17.899  0.00  0.00    +0.000 A 
BRANCH  14  23
ATOM     20  C   UNL     1       3.178   2.333  17.546  0.00  0.00    +0.000 C 
ATOM     21  C   UNL     1       2.433   3.604  17.844  0.00  0.00    +0.000 C 
ATOM     22  O   UNL     1       1.239   3.701  17.575  0.00  0.00    +0.000 OA
ATOM     23  N   UNL     1       3.240   4.583  18.401  0.00  0.00    +0.000 N 
ATOM     24  H   UNL     1       4.235   4.412  18.409  0.00  0.00    +0.000 HD
ENDBRANCH  14  23
ENDBRANCH   1  17
BRANCH   9  25
ATOM     25  C   UNL     1      -2.479  13.067  21.579  0.00  0.00    +0.000 A 
ATOM     26  C   UNL     1      -3.372  12.810  22.630  0.00  0.00    +0.000 A 
ATOM     27  C   UNL     1      -3.183  13.422  23.870  0.00  0.00    +0.000 A 
ATOM     28  C   UNL     1      -2.125  14.309  24.060  0.00  0.00    +0.000 A 
ATOM     29  C   UNL     1      -1.260  14.599  23.007  0.00  0.00    +0.000 A 
ATOM     30  C   UNL     1      -1.436  13.982  21.766  0.00  0.00    +0.000 A 
ENDBRANCH   9  25
TORSDOF 3
ENDMDL
