MODEL 1
REMARK VINA RESULT:      -9.4      0.000      0.000
REMARK  Name = 
REMARK  4 active torsions:
REMARK  status: ('A' for Active; 'I' for Inactive)
REMARK    1  A    between atoms: C_2  and  C_4
REMARK    2  A    between atoms: C_8  and  C_9
REMARK    3  A    between atoms: C_15  and  N_16
REMARK    4  A    between atoms: C_17  and  C_19
REMARK                            x       y       z     vdW  Elec       q    Type
REMARK                         _______ _______ _______ _____ _____    ______ ____
ROOT
ATOM      1  C   UNL     1       3.538   4.051  17.262  0.00  0.00    +0.000 C 
ATOM      2  O   UNL     1       3.072   3.004  16.810  0.00  0.00    +0.000 OA
ATOM      3  N   UNL     1       4.566   4.750  16.620  0.00  0.00    +0.000 N 
ATOM      4  C   UNL     1       5.016   4.241  15.326  0.00  0.00    +0.000 C 
ATOM      5  C   UNL     1       6.540   4.222  15.248  0.00  0.00    +0.000 C 
ATOM      6  C   UNL     1       7.143   5.591  15.569  0.00  0.00    +0.000 C 
ATOM      7  C   UNL     1       6.599   6.154  16.896  0.00  0.00    +0.000 C 
ATOM      8  C   UNL     1       5.052   6.110  16.911  0.00  0.00    +0.000 C 
ENDROOT
BRANCH   1  13
ATOM      9  C   UNL     1       2.121   6.290  19.988  0.00  0.00    +0.000 A 
ATOM     10  C   UNL     1       1.713   5.333  20.925  0.00  0.00    +0.000 A 
ATOM     11  C   UNL     1       1.964   3.982  20.688  0.00  0.00    +0.000 A 
ATOM     12  C   UNL     1       2.565   3.589  19.491  0.00  0.00    +0.000 A 
ATOM     13  C   UNL     1       2.928   4.541  18.525  0.00  0.00    +0.000 A 
ATOM     14  C   UNL     1       2.765   5.895  18.811  0.00  0.00    +0.000 A 
BRANCH   9  16
ATOM     15  N   UNL     1       1.648   8.183  21.437  0.00  0.00    +0.000 N 
ATOM     16  C   UNL     1       1.835   7.734  20.164  0.00  0.00    +0.000 C 
ATOM     17  O   UNL     1       1.794   8.495  19.205  0.00  0.00    +0.000 OA
ATOM     18  H   UNL     1       1.549   9.184  21.552  0.00  0.00    +0.000 HD
ATOM     19  H   UNL     1       1.913   7.641  22.247  0.00  0.00    +0.000 HD
ENDBRANCH   9  16
ENDBRANCH   1  13
BRANCH   7  20
ATOM     20  N   UNL     1       7.140   7.475  17.216  0.00  0.00    +0.000 N 
ATOM     21  C   UNL     1       8.018   7.723  18.251  0.00  0.00    +0.000 C 
ATOM     22  O   UNL     1       8.372   6.844  19.034  0.00  0.00    +0.000 OA
ATOM     23  H   UNL     1       6.963   8.247  16.580  0.00  0.00    +0.000 HD
BRANCH  21  24
ATOM     24  C   UNL     1       8.498   9.087  18.338  0.00  0.00    +0.000 A 
ATOM     25  C   UNL     1       8.232  10.181  17.533  0.00  0.00    +0.000 A 
ATOM     26  C   UNL     1       8.933  11.284  18.079  0.00  0.00    +0.000 A 
ATOM     27  C   UNL     1       9.078  12.645  17.753  0.00  0.00    +0.000 A 
ATOM     28  C   UNL     1       9.879  13.453  18.572  0.00  0.00    +0.000 A 
ATOM     29  C   UNL     1      10.522  12.924  19.695  0.00  0.00    +0.000 A 
ATOM     30  C   UNL     1      10.393  11.571  20.033  0.00  0.00    +0.000 A 
ATOM     31  C   UNL     1       9.594  10.792  19.198  0.00  0.00    +0.000 A 
ATOM     32  O   UNL     1       9.343   9.459  19.354  0.00  0.00    +0.000 OA
ENDBRANCH  21  24
ENDBRANCH   7  20
TORSDOF 4
ENDMDL
MODEL 2
REMARK VINA RESULT:      -9.3      1.634      2.128
REMARK  Name = 
REMARK  4 active torsions:
REMARK  status: ('A' for Active; 'I' for Inactive)
REMARK    1  A    between atoms: C_2  and  C_4
REMARK    2  A    between atoms: C_8  and  C_9
REMARK    3  A    between atoms: C_15  and  N_16
REMARK    4  A    between atoms: C_17  and  C_19
REMARK                            x       y       z     vdW  Elec       q    Type
REMARK                         _______ _______ _______ _____ _____    ______ ____
ROOT
ATOM      1  C   UNL     1       3.682   3.907  16.979  0.00  0.00    +0.000 C 
ATOM      2  O   UNL     1       3.226   2.878  16.478  0.00  0.00    +0.000 OA
ATOM      3  N   UNL     1       4.681   4.663  16.357  0.00  0.00    +0.000 N 
ATOM      4  C   UNL     1       5.111   4.238  15.025  0.00  0.00    +0.000 C 
ATOM      5  C   UNL     1       6.633   4.255  14.913  0.00  0.00    +0.000 C 
ATOM      6  C   UNL     1       7.216   5.615  15.300  0.00  0.00    +0.000 C 
ATOM      7  C   UNL     1       6.692   6.090  16.668  0.00  0.00    +0.000 C 
ATOM      8  C   UNL     1       5.147   6.013  16.714  0.00  0.00    +0.000 C 
ENDROOT
BRANCH   1  13
ATOM      9  C   UNL     1       2.351   3.860  20.540  0.00  0.00    +0.000 A 
ATOM     10  C   UNL     1       2.023   5.211  20.713  0.00  0.00    +0.000 A 
ATOM     11  C   UNL     1       2.176   6.101  19.651  0.00  0.00    +0.000 A 
ATOM     12  C   UNL     1       2.713   5.653  18.442  0.00  0.00    +0.000 A 
ATOM     13  C   UNL     1       3.092   4.311  18.281  0.00  0.00    +0.000 A 
ATOM     14  C   UNL     1       2.844   3.406  19.312  0.00  0.00    +0.000 A 
BRANCH   9  16
ATOM     15  N   UNL     1       1.028   2.685  22.206  0.00  0.00    +0.000 N 
ATOM     16  C   UNL     1       2.257   2.880  21.647  0.00  0.00    +0.000 C 
ATOM     17  O   UNL     1       3.239   2.253  22.027  0.00  0.00    +0.000 OA
ATOM     18  H   UNL     1       0.958   1.947  22.894  0.00  0.00    +0.000 HD
ATOM     19  H   UNL     1       0.176   2.997  21.762  0.00  0.00    +0.000 HD
ENDBRANCH   9  16
ENDBRANCH   1  13
BRANCH   7  20
ATOM     20  N   UNL     1       7.215   7.401  17.052  0.00  0.00    +0.000 N 
ATOM     21  C   UNL     1       7.972   7.634  18.182  0.00  0.00    +0.000 C 
ATOM     22  O   UNL     1       8.218   6.748  18.998  0.00  0.00    +0.000 OA
ATOM     23  H   UNL     1       7.125   8.177  16.402  0.00  0.00    +0.000 HD
BRANCH  21  24
ATOM     24  C   UNL     1       8.462   8.989  18.328  0.00  0.00    +0.000 A 
ATOM     25  C   UNL     1       8.234  10.109  17.547  0.00  0.00    +0.000 A 
ATOM     26  C   UNL     1       8.926  11.189  18.151  0.00  0.00    +0.000 A 
ATOM     27  C   UNL     1       9.095  12.557  17.872  0.00  0.00    +0.000 A 
ATOM     28  C   UNL     1       9.875  13.332  18.743  0.00  0.00    +0.000 A 
ATOM     29  C   UNL     1      10.472  12.762  19.871  0.00  0.00    +0.000 A 
ATOM     30  C   UNL     1      10.319  11.400  20.163  0.00  0.00    +0.000 A 
ATOM     31  C   UNL     1       9.542  10.656  19.277  0.00  0.00    +0.000 A 
ATOM     32  O   UNL     1       9.273   9.321  19.383  0.00  0.00    +0.000 OA
ENDBRANCH  21  24
ENDBRANCH   7  20
TORSDOF 4
ENDMDL
MODEL 3
REMARK VINA RESULT:      -8.9      0.596      1.144
REMARK  Name = 
REMARK  4 active torsions:
REMARK  status: ('A' for Active; 'I' for Inactive)
REMARK    1  A    between atoms: C_2  and  C_4
REMARK    2  A    between atoms: C_8  and  C_9
REMARK    3  A    between atoms: C_15  and  N_16
REMARK    4  A    between atoms: C_17  and  C_19
REMARK                            x       y       z     vdW  Elec       q    Type
REMARK                         _______ _______ _______ _____ _____    ______ ____
ROOT
ATOM      1  C   UNL     1       3.668   4.178  17.184  0.00  0.00    +0.000 C 
ATOM      2  O   UNL     1       3.237   3.132  16.694  0.00  0.00    +0.000 OA
ATOM      3  N   UNL     1       4.697   4.914  16.587  0.00  0.00    +0.000 N 
ATOM      4  C   UNL     1       5.192   4.447  15.293  0.00  0.00    +0.000 C 
ATOM      5  C   UNL     1       6.718   4.462  15.257  0.00  0.00    +0.000 C 
ATOM      6  C   UNL     1       7.282   5.835  15.627  0.00  0.00    +0.000 C 
ATOM      7  C   UNL     1       6.690   6.354  16.951  0.00  0.00    +0.000 C 
ATOM      8  C   UNL     1       5.145   6.277  16.923  0.00  0.00    +0.000 C 
ENDROOT
BRANCH   1  13
ATOM      9  C   UNL     1       2.142   6.319  19.929  0.00  0.00    +0.000 A 
ATOM     10  C   UNL     1       1.717   5.329  20.825  0.00  0.00    +0.000 A 
ATOM     11  C   UNL     1       1.991   3.989  20.556  0.00  0.00    +0.000 A 
ATOM     12  C   UNL     1       2.633   3.638  19.367  0.00  0.00    +0.000 A 
ATOM     13  C   UNL     1       3.014   4.623  18.441  0.00  0.00    +0.000 A 
ATOM     14  C   UNL     1       2.827   5.965  18.762  0.00  0.00    +0.000 A 
BRANCH   9  16
ATOM     15  N   UNL     1       1.628   8.167  21.421  0.00  0.00    +0.000 N 
ATOM     16  C   UNL     1       1.834   7.753  20.138  0.00  0.00    +0.000 C 
ATOM     17  O   UNL     1       1.791   8.538  19.199  0.00  0.00    +0.000 OA
ATOM     18  H   UNL     1       1.514   9.163  21.560  0.00  0.00    +0.000 HD
ATOM     19  H   UNL     1       1.893   7.608  22.220  0.00  0.00    +0.000 HD
ENDBRANCH   9  16
ENDBRANCH   1  13
BRANCH   7  20
ATOM     20  N   UNL     1       7.193   7.677  17.317  0.00  0.00    +0.000 N 
ATOM     21  C   UNL     1       8.133   7.905  18.302  0.00  0.00    +0.000 C 
ATOM     22  O   UNL     1       8.583   6.998  18.999  0.00  0.00    +0.000 OA
ATOM     23  H   UNL     1       6.935   8.478  16.747  0.00  0.00    +0.000 HD
BRANCH  21  24
ATOM     24  C   UNL     1       8.557   9.283  18.444  0.00  0.00    +0.000 A 
ATOM     25  C   UNL     1       9.461   9.853  19.324  0.00  0.00    +0.000 A 
ATOM     26  C   UNL     1       9.530  11.235  19.016  0.00  0.00    +0.000 A 
ATOM     27  C   UNL     1      10.240  12.342  19.514  0.00  0.00    +0.000 A 
ATOM     28  C   UNL     1      10.041  13.595  18.918  0.00  0.00    +0.000 A 
ATOM     29  C   UNL     1       9.157  13.748  17.847  0.00  0.00    +0.000 A 
ATOM     30  C   UNL     1       8.438  12.658  17.339  0.00  0.00    +0.000 A 
ATOM     31  C   UNL     1       8.654  11.427  17.954  0.00  0.00    +0.000 A 
ATOM     32  O   UNL     1       8.053  10.250  17.611  0.00  0.00    +0.000 OA
ENDBRANCH  21  24
ENDBRANCH   7  20
TORSDOF 4
ENDMDL
MODEL 4
REMARK VINA RESULT:      -8.9      1.734      2.405
REMARK  Name = 
REMARK  4 active torsions:
REMARK  status: ('A' for Active; 'I' for Inactive)
REMARK    1  A    between atoms: C_2  and  C_4
REMARK    2  A    between atoms: C_8  and  C_9
REMARK    3  A    between atoms: C_15  and  N_16
REMARK    4  A    between atoms: C_17  and  C_19
REMARK                            x       y       z     vdW  Elec       q    Type
REMARK                         _______ _______ _______ _____ _____    ______ ____
ROOT
ATOM      1  C   UNL     1       3.742   3.971  16.972  0.00  0.00    +0.000 C 
ATOM      2  O   UNL     1       3.314   2.931  16.469  0.00  0.00    +0.000 OA
ATOM      3  N   UNL     1       4.728   4.749  16.355  0.00  0.00    +0.000 N 
ATOM      4  C   UNL     1       5.177   4.332  15.027  0.00  0.00    +0.000 C 
ATOM      5  C   UNL     1       6.698   4.385  14.925  0.00  0.00    +0.000 C 
ATOM      6  C   UNL     1       7.247   5.759  15.313  0.00  0.00    +0.000 C 
ATOM      7  C   UNL     1       6.703   6.224  16.677  0.00  0.00    +0.000 C 
ATOM      8  C   UNL     1       5.160   6.111  16.713  0.00  0.00    +0.000 C 
ENDROOT
BRANCH   1  13
ATOM      9  C   UNL     1       2.349   3.889  20.508  0.00  0.00    +0.000 A 
ATOM     10  C   UNL     1       2.034   5.240  20.695  0.00  0.00    +0.000 A 
ATOM     11  C   UNL     1       2.216   6.144  19.649  0.00  0.00    +0.000 A 
ATOM     12  C   UNL     1       2.769   5.708  18.444  0.00  0.00    +0.000 A 
ATOM     13  C   UNL     1       3.135   4.363  18.269  0.00  0.00    +0.000 A 
ATOM     14  C   UNL     1       2.858   3.447  19.282  0.00  0.00    +0.000 A 
BRANCH   9  16
ATOM     15  N   UNL     1       0.980   2.697  22.124  0.00  0.00    +0.000 N 
ATOM     16  C   UNL     1       2.223   2.894  21.599  0.00  0.00    +0.000 C 
ATOM     17  O   UNL     1       3.192   2.258  21.994  0.00  0.00    +0.000 OA
ATOM     18  H   UNL     1       0.890   1.949  22.800  0.00  0.00    +0.000 HD
ATOM     19  H   UNL     1       0.140   3.018  21.664  0.00  0.00    +0.000 HD
ENDBRANCH   9  16
ENDBRANCH   1  13
BRANCH   7  20
ATOM     20  N   UNL     1       7.192   7.547  17.062  0.00  0.00    +0.000 N 
ATOM     21  C   UNL     1       7.992   7.789  18.160  0.00  0.00    +0.000 C 
ATOM     22  O   UNL     1       8.311   6.900  18.946  0.00  0.00    +0.000 OA
ATOM     23  H   UNL     1       7.042   8.331  16.432  0.00  0.00    +0.000 HD
BRANCH  21  24
ATOM     24  C   UNL     1       8.436   9.160  18.309  0.00  0.00    +0.000 A 
ATOM     25  C   UNL     1       9.450   9.691  19.088  0.00  0.00    +0.000 A 
ATOM     26  C   UNL     1       9.483  11.086  18.840  0.00  0.00    +0.000 A 
ATOM     27  C   UNL     1      10.257  12.170  19.292  0.00  0.00    +0.000 A 
ATOM     28  C   UNL     1       9.985  13.449  18.787  0.00  0.00    +0.000 A 
ATOM     29  C   UNL     1       8.968  13.651  17.850  0.00  0.00    +0.000 A 
ATOM     30  C   UNL     1       8.184  12.584  17.391  0.00  0.00    +0.000 A 
ATOM     31  C   UNL     1       8.475  11.325  17.913  0.00  0.00    +0.000 A 
ATOM     32  O   UNL     1       7.830  10.164  17.597  0.00  0.00    +0.000 OA
ENDBRANCH  21  24
ENDBRANCH   7  20
TORSDOF 4
ENDMDL
MODEL 5
REMARK VINA RESULT:      -8.7      3.875      6.946
REMARK  Name = 
REMARK  4 active torsions:
REMARK  status: ('A' for Active; 'I' for Inactive)
REMARK    1  A    between atoms: C_2  and  C_4
REMARK    2  A    between atoms: C_8  and  C_9
REMARK    3  A    between atoms: C_15  and  N_16
REMARK    4  A    between atoms: C_17  and  C_19
REMARK                            x       y       z     vdW  Elec       q    Type
REMARK                         _______ _______ _______ _____ _____    ______ ____
ROOT
ATOM      1  C   UNL     1       4.755   3.711  19.216  0.00  0.00    +0.000 C 
ATOM      2  O   UNL     1       4.948   2.500  19.340  0.00  0.00    +0.000 OA
ATOM      3  N   UNL     1       3.671   4.361  19.814  0.00  0.00    +0.000 N 
ATOM      4  C   UNL     1       2.808   3.563  20.683  0.00  0.00    +0.000 C 
ATOM      5  C   UNL     1       1.336   3.840  20.392  0.00  0.00    +0.000 C 
ATOM      6  C   UNL     1       1.011   5.333  20.473  0.00  0.00    +0.000 C 
ATOM      7  C   UNL     1       1.979   6.172  19.618  0.00  0.00    +0.000 C 
ATOM      8  C   UNL     1       3.448   5.811  19.947  0.00  0.00    +0.000 C 
ENDROOT
BRANCH   1  13
ATOM      9  C   UNL     1       6.898   4.951  16.331  0.00  0.00    +0.000 A 
ATOM     10  C   UNL     1       7.646   5.947  16.972  0.00  0.00    +0.000 A 
ATOM     11  C   UNL     1       7.491   6.155  18.342  0.00  0.00    +0.000 A 
ATOM     12  C   UNL     1       6.548   5.411  19.053  0.00  0.00    +0.000 A 
ATOM     13  C   UNL     1       5.759   4.447  18.405  0.00  0.00    +0.000 A 
ATOM     14  C   UNL     1       5.989   4.176  17.058  0.00  0.00    +0.000 A 
BRANCH   9  16
ATOM     15  N   UNL     1       6.281   3.670  14.360  0.00  0.00    +0.000 N 
ATOM     16  C   UNL     1       6.985   4.721  14.870  0.00  0.00    +0.000 C 
ATOM     17  O   UNL     1       7.643   5.460  14.147  0.00  0.00    +0.000 OA
ATOM     18  H   UNL     1       6.271   3.581  13.352  0.00  0.00    +0.000 HD
ATOM     19  H   UNL     1       5.552   3.204  14.881  0.00  0.00    +0.000 HD
ENDBRANCH   9  16
ENDBRANCH   1  13
BRANCH   7  20
ATOM     20  N   UNL     1       1.708   7.607  19.696  0.00  0.00    +0.000 N 
ATOM     21  C   UNL     1       1.893   8.489  18.652  0.00  0.00    +0.000 C 
ATOM     22  O   UNL     1       2.365   8.137  17.573  0.00  0.00    +0.000 OA
ATOM     23  H   UNL     1       1.246   7.976  20.523  0.00  0.00    +0.000 HD
BRANCH  21  24
ATOM     24  C   UNL     1       1.479   9.853  18.916  0.00  0.00    +0.000 A 
ATOM     25  C   UNL     1       0.555  10.346  19.820  0.00  0.00    +0.000 A 
ATOM     26  C   UNL     1       0.556  11.757  19.693  0.00  0.00    +0.000 A 
ATOM     27  C   UNL     1      -0.128  12.823  20.306  0.00  0.00    +0.000 A 
ATOM     28  C   UNL     1       0.165  14.133  19.903  0.00  0.00    +0.000 A 
ATOM     29  C   UNL     1       1.120  14.383  18.912  0.00  0.00    +0.000 A 
ATOM     30  C   UNL     1       1.807  13.335  18.288  0.00  0.00    +0.000 A 
ATOM     31  C   UNL     1       1.492  12.044  18.707  0.00  0.00    +0.000 A 
ATOM     32  O   UNL     1       2.047  10.893  18.225  0.00  0.00    +0.000 OA
ENDBRANCH  21  24
ENDBRANCH   7  20
TORSDOF 4
ENDMDL
MODEL 6
REMARK VINA RESULT:      -8.5      3.895      7.132
REMARK  Name = 
REMARK  4 active torsions:
REMARK  status: ('A' for Active; 'I' for Inactive)
REMARK    1  A    between atoms: C_2  and  C_4
REMARK    2  A    between atoms: C_8  and  C_9
REMARK    3  A    between atoms: C_15  and  N_16
REMARK    4  A    between atoms: C_17  and  C_19
REMARK                            x       y       z     vdW  Elec       q    Type
REMARK                         _______ _______ _______ _____ _____    ______ ____
ROOT
ATOM      1  C   UNL     1       4.768   3.748  19.213  0.00  0.00    +0.000 C 
ATOM      2  O   UNL     1       4.994   2.548  19.378  0.00  0.00    +0.000 OA
ATOM      3  N   UNL     1       3.680   4.393  19.811  0.00  0.00    +0.000 N 
ATOM      4  C   UNL     1       2.857   3.607  20.729  0.00  0.00    +0.000 C 
ATOM      5  C   UNL     1       1.372   3.836  20.461  0.00  0.00    +0.000 C 
ATOM      6  C   UNL     1       1.011   5.322  20.494  0.00  0.00    +0.000 C 
ATOM      7  C   UNL     1       1.938   6.152  19.585  0.00  0.00    +0.000 C 
ATOM      8  C   UNL     1       3.422   5.841  19.894  0.00  0.00    +0.000 C 
ENDROOT
BRANCH   1  13
ATOM      9  C   UNL     1       6.736   5.011  16.216  0.00  0.00    +0.000 A 
ATOM     10  C   UNL     1       7.561   5.962  16.829  0.00  0.00    +0.000 A 
ATOM     11  C   UNL     1       7.512   6.132  18.212  0.00  0.00    +0.000 A 
ATOM     12  C   UNL     1       6.599   5.396  18.969  0.00  0.00    +0.000 A 
ATOM     13  C   UNL     1       5.734   4.478  18.352  0.00  0.00    +0.000 A 
ATOM     14  C   UNL     1       5.856   4.241  16.984  0.00  0.00    +0.000 A 
BRANCH   9  16
ATOM     15  N   UNL     1       7.687   5.436  14.020  0.00  0.00    +0.000 N 
ATOM     16  C   UNL     1       6.709   4.823  14.746  0.00  0.00    +0.000 C 
ATOM     17  O   UNL     1       5.857   4.125  14.209  0.00  0.00    +0.000 OA
ATOM     18  H   UNL     1       7.715   5.224  13.031  0.00  0.00    +0.000 HD
ATOM     19  H   UNL     1       8.525   5.807  14.445  0.00  0.00    +0.000 HD
ENDBRANCH   9  16
ENDBRANCH   1  13
BRANCH   7  20
ATOM     20  N   UNL     1       1.631   7.581  19.616  0.00  0.00    +0.000 N 
ATOM     21  C   UNL     1       1.910   8.457  18.586  0.00  0.00    +0.000 C 
ATOM     22  O   UNL     1       2.502   8.103  17.569  0.00  0.00    +0.000 OA
ATOM     23  H   UNL     1       1.076   7.950  20.384  0.00  0.00    +0.000 HD
BRANCH  21  24
ATOM     24  C   UNL     1       1.443   9.814  18.788  0.00  0.00    +0.000 A 
ATOM     25  C   UNL     1       1.926  11.008  18.281  0.00  0.00    +0.000 A 
ATOM     26  C   UNL     1       1.084  12.040  18.766  0.00  0.00    +0.000 A 
ATOM     27  C   UNL     1       1.023  13.438  18.625  0.00  0.00    +0.000 A 
ATOM     28  C   UNL     1      -0.003  14.137  19.276  0.00  0.00    +0.000 A 
ATOM     29  C   UNL     1      -0.952  13.464  20.050  0.00  0.00    +0.000 A 
ATOM     30  C   UNL     1      -0.905  12.072  20.205  0.00  0.00    +0.000 A 
ATOM     31  C   UNL     1       0.128  11.405  19.549  0.00  0.00    +0.000 A 
ATOM     32  O   UNL     1       0.347  10.058  19.575  0.00  0.00    +0.000 OA
ENDBRANCH  21  24
ENDBRANCH   7  20
TORSDOF 4
ENDMDL
MODEL 7
REMARK VINA RESULT:      -8.5      3.095      7.231
REMARK  Name = 
REMARK  4 active torsions:
REMARK  status: ('A' for Active; 'I' for Inactive)
REMARK    1  A    between atoms: C_2  and  C_4
REMARK    2  A    between atoms: C_8  and  C_9
REMARK    3  A    between atoms: C_15  and  N_16
REMARK    4  A    between atoms: C_17  and  C_19
REMARK                            x       y       z     vdW  Elec       q    Type
REMARK                         _______ _______ _______ _____ _____    ______ ____
ROOT
ATOM      1  C   UNL     1       4.452   3.188  18.493  0.00  0.00    +0.000 C 
ATOM      2  O   UNL     1       4.779   2.015  18.303  0.00  0.00    +0.000 OA
ATOM      3  N   UNL     1       3.531   3.557  19.480  0.00  0.00    +0.000 N 
ATOM      4  C   UNL     1       3.028   2.500  20.356  0.00  0.00    +0.000 C 
ATOM      5  C   UNL     1       1.516   2.609  20.529  0.00  0.00    +0.000 C 
ATOM      6  C   UNL     1       1.098   4.001  21.007  0.00  0.00    +0.000 C 
ATOM      7  C   UNL     1       1.701   5.110  20.125  0.00  0.00    +0.000 C 
ATOM      8  C   UNL     1       3.228   4.912  19.971  0.00  0.00    +0.000 C 
ENDROOT
BRANCH   1  13
ATOM      9  C   UNL     1       6.576   6.081  17.241  0.00  0.00    +0.000 A 
ATOM     10  C   UNL     1       6.339   6.000  15.863  0.00  0.00    +0.000 A 
ATOM     11  C   UNL     1       5.443   5.053  15.370  0.00  0.00    +0.000 A 
ATOM     12  C   UNL     1       4.835   4.151  16.245  0.00  0.00    +0.000 A 
ATOM     13  C   UNL     1       5.111   4.194  17.622  0.00  0.00    +0.000 A 
ATOM     14  C   UNL     1       5.929   5.206  18.120  0.00  0.00    +0.000 A 
BRANCH   9  16
ATOM     15  N   UNL     1       8.201   6.654  18.954  0.00  0.00    +0.000 N 
ATOM     16  C   UNL     1       7.555   7.034  17.815  0.00  0.00    +0.000 C 
ATOM     17  O   UNL     1       7.790   8.107  17.274  0.00  0.00    +0.000 OA
ATOM     18  H   UNL     1       8.934   7.270  19.283  0.00  0.00    +0.000 HD
ATOM     19  H   UNL     1       8.210   5.698  19.279  0.00  0.00    +0.000 HD
ENDBRANCH   9  16
ENDBRANCH   1  13
BRANCH   7  20
ATOM     20  N   UNL     1       1.337   6.453  20.574  0.00  0.00    +0.000 N 
ATOM     21  C   UNL     1       1.591   7.606  19.859  0.00  0.00    +0.000 C 
ATOM     22  O   UNL     1       2.206   7.593  18.795  0.00  0.00    +0.000 OA
ATOM     23  H   UNL     1       0.761   6.556  21.405  0.00  0.00    +0.000 HD
BRANCH  21  24
ATOM     24  C   UNL     1       1.069   8.823  20.446  0.00  0.00    +0.000 A 
ATOM     25  C   UNL     1       1.192  10.138  20.031  0.00  0.00    +0.000 A 
ATOM     26  C   UNL     1       0.463  10.936  20.948  0.00  0.00    +0.000 A 
ATOM     27  C   UNL     1       0.190  12.309  21.090  0.00  0.00    +0.000 A 
ATOM     28  C   UNL     1      -0.611  12.729  22.162  0.00  0.00    +0.000 A 
ATOM     29  C   UNL     1      -1.134  11.807  23.073  0.00  0.00    +0.000 A 
ATOM     30  C   UNL     1      -0.869  10.437  22.950  0.00  0.00    +0.000 A 
ATOM     31  C   UNL     1      -0.067  10.050  21.878  0.00  0.00    +0.000 A 
ATOM     32  O   UNL     1       0.306   8.770  21.585  0.00  0.00    +0.000 OA
ENDBRANCH  21  24
ENDBRANCH   7  20
TORSDOF 4
ENDMDL
MODEL 8
REMARK VINA RESULT:      -8.4      3.011      7.270
REMARK  Name = 
REMARK  4 active torsions:
REMARK  status: ('A' for Active; 'I' for Inactive)
REMARK    1  A    between atoms: C_2  and  C_4
REMARK    2  A    between atoms: C_8  and  C_9
REMARK    3  A    between atoms: C_15  and  N_16
REMARK    4  A    between atoms: C_17  and  C_19
REMARK                            x       y       z     vdW  Elec       q    Type
REMARK                         _______ _______ _______ _____ _____    ______ ____
ROOT
ATOM      1  C   UNL     1       4.527   3.390  18.617  0.00  0.00    +0.000 C 
ATOM      2  O   UNL     1       4.926   2.247  18.389  0.00  0.00    +0.000 OA
ATOM      3  N   UNL     1       3.578   3.668  19.606  0.00  0.00    +0.000 N 
ATOM      4  C   UNL     1       3.132   2.552  20.439  0.00  0.00    +0.000 C 
ATOM      5  C   UNL     1       1.615   2.565  20.599  0.00  0.00    +0.000 C 
ATOM      6  C   UNL     1       1.109   3.911  21.121  0.00  0.00    +0.000 C 
ATOM      7  C   UNL     1       1.652   5.085  20.285  0.00  0.00    +0.000 C 
ATOM      8  C   UNL     1       3.189   4.984  20.141  0.00  0.00    +0.000 C 
ENDROOT
BRANCH   1  13
ATOM      9  C   UNL     1       6.628   6.335  17.448  0.00  0.00    +0.000 A 
ATOM     10  C   UNL     1       6.241   6.413  16.104  0.00  0.00    +0.000 A 
ATOM     11  C   UNL     1       5.258   5.554  15.616  0.00  0.00    +0.000 A 
ATOM     12  C   UNL     1       4.709   4.581  16.454  0.00  0.00    +0.000 A 
ATOM     13  C   UNL     1       5.132   4.465  17.788  0.00  0.00    +0.000 A 
ATOM     14  C   UNL     1       6.042   5.390  18.296  0.00  0.00    +0.000 A 
BRANCH   9  16
ATOM     15  N   UNL     1       8.354   6.727  19.114  0.00  0.00    +0.000 N 
ATOM     16  C   UNL     1       7.703   7.187  18.007  0.00  0.00    +0.000 C 
ATOM     17  O   UNL     1       8.011   8.251  17.481  0.00  0.00    +0.000 OA
ATOM     18  H   UNL     1       9.147   7.271  19.429  0.00  0.00    +0.000 HD
ATOM     19  H   UNL     1       8.292   5.766  19.418  0.00  0.00    +0.000 HD
ENDBRANCH   9  16
ENDBRANCH   1  13
BRANCH   7  20
ATOM     20  N   UNL     1       1.204   6.387  20.778  0.00  0.00    +0.000 N 
ATOM     21  C   UNL     1       1.560   7.594  20.211  0.00  0.00    +0.000 C 
ATOM     22  O   UNL     1       2.342   7.669  19.267  0.00  0.00    +0.000 OA
ATOM     23  H   UNL     1       0.497   6.422  21.507  0.00  0.00    +0.000 HD
BRANCH  21  24
ATOM     24  C   UNL     1       0.935   8.760  20.802  0.00  0.00    +0.000 A 
ATOM     25  C   UNL     1       0.046   8.858  21.859  0.00  0.00    +0.000 A 
ATOM     26  C   UNL     1      -0.229  10.235  22.050  0.00  0.00    +0.000 A 
ATOM     27  C   UNL     1      -1.021  10.989  22.934  0.00  0.00    +0.000 A 
ATOM     28  C   UNL     1      -1.025  12.386  22.812  0.00  0.00    +0.000 A 
ATOM     29  C   UNL     1      -0.255  13.024  21.835  0.00  0.00    +0.000 A 
ATOM     30  C   UNL     1       0.538  12.289  20.944  0.00  0.00    +0.000 A 
ATOM     31  C   UNL     1       0.517  10.903  21.087  0.00  0.00    +0.000 A 
ATOM     32  O   UNL     1       1.215  10.014  20.321  0.00  0.00    +0.000 OA
ENDBRANCH  21  24
ENDBRANCH   7  20
TORSDOF 4
ENDMDL
MODEL 9
REMARK VINA RESULT:      -8.4      4.494      7.538
REMARK  Name = 
REMARK  4 active torsions:
REMARK  status: ('A' for Active; 'I' for Inactive)
REMARK    1  A    between atoms: C_2  and  C_4
REMARK    2  A    between atoms: C_8  and  C_9
REMARK    3  A    between atoms: C_15  and  N_16
REMARK    4  A    between atoms: C_17  and  C_19
REMARK                            x       y       z     vdW  Elec       q    Type
REMARK                         _______ _______ _______ _____ _____    ______ ____
ROOT
ATOM      1  C   UNL     1       4.274   3.316  18.302  0.00  0.00    +0.000 C 
ATOM      2  O   UNL     1       4.688   2.180  18.062  0.00  0.00    +0.000 OA
ATOM      3  N   UNL     1       3.464   3.598  19.406  0.00  0.00    +0.000 N 
ATOM      4  C   UNL     1       3.192   2.503  20.336  0.00  0.00    +0.000 C 
ATOM      5  C   UNL     1       1.715   2.462  20.713  0.00  0.00    +0.000 C 
ATOM      6  C   UNL     1       1.228   3.808  21.252  0.00  0.00    +0.000 C 
ATOM      7  C   UNL     1       1.591   4.966  20.303  0.00  0.00    +0.000 C 
ATOM      8  C   UNL     1       3.095   4.920  19.943  0.00  0.00    +0.000 C 
ENDROOT
BRANCH   1  13
ATOM      9  C   UNL     1       5.933   5.172  15.429  0.00  0.00    +0.000 A 
ATOM     10  C   UNL     1       5.393   6.453  15.601  0.00  0.00    +0.000 A 
ATOM     11  C   UNL     1       4.553   6.710  16.683  0.00  0.00    +0.000 A 
ATOM     12  C   UNL     1       4.207   5.675  17.553  0.00  0.00    +0.000 A 
ATOM     13  C   UNL     1       4.704   4.377  17.355  0.00  0.00    +0.000 A 
ATOM     14  C   UNL     1       5.621   4.150  16.331  0.00  0.00    +0.000 A 
BRANCH   9  16
ATOM     15  N   UNL     1       6.482   3.695  13.579  0.00  0.00    +0.000 N 
ATOM     16  C   UNL     1       6.790   4.830  14.270  0.00  0.00    +0.000 C 
ATOM     17  O   UNL     1       7.722   5.550  13.933  0.00  0.00    +0.000 OA
ATOM     18  H   UNL     1       7.014   3.523  12.735  0.00  0.00    +0.000 HD
ATOM     19  H   UNL     1       5.595   3.224  13.680  0.00  0.00    +0.000 HD
ENDBRANCH   9  16
ENDBRANCH   1  13
BRANCH   7  20
ATOM     20  N   UNL     1       1.159   6.269  20.807  0.00  0.00    +0.000 N 
ATOM     21  C   UNL     1       1.520   7.476  20.243  0.00  0.00    +0.000 C 
ATOM     22  O   UNL     1       2.295   7.549  19.292  0.00  0.00    +0.000 OA
ATOM     23  H   UNL     1       0.460   6.306  21.542  0.00  0.00    +0.000 HD
BRANCH  21  24
ATOM     24  C   UNL     1       0.911   8.644  20.846  0.00  0.00    +0.000 A 
ATOM     25  C   UNL     1       0.064   8.748  21.936  0.00  0.00    +0.000 A 
ATOM     26  C   UNL     1      -0.213  10.125  22.122  0.00  0.00    +0.000 A 
ATOM     27  C   UNL     1      -0.976  10.884  23.028  0.00  0.00    +0.000 A 
ATOM     28  C   UNL     1      -0.994  12.279  22.891  0.00  0.00    +0.000 A 
ATOM     29  C   UNL     1      -0.268  12.911  21.878  0.00  0.00    +0.000 A 
ATOM     30  C   UNL     1       0.494  12.172  20.964  0.00  0.00    +0.000 A 
ATOM     31  C   UNL     1       0.490  10.787  21.123  0.00  0.00    +0.000 A 
ATOM     32  O   UNL     1       1.163   9.894  20.340  0.00  0.00    +0.000 OA
ENDBRANCH  21  24
ENDBRANCH   7  20
TORSDOF 4
ENDMDL
