MODEL 1
REMARK VINA RESULT:      -9.0      0.000      0.000
REMARK  Name = 
REMARK  5 active torsions:
REMARK  status: ('A' for Active; 'I' for Inactive)
REMARK    1  A    between atoms: C_2  and  C_17
REMARK    2  A    between atoms: N_3  and  C_4
REMARK    3  A    between atoms: C_4  and  C_5
REMARK    4  A    between atoms: C_8  and  C_9
REMARK    5  A    between atoms: C_9  and  N_10
REMARK                            x       y       z     vdW  Elec       q    Type
REMARK                         _______ _______ _______ _____ _____    ______ ____
ROOT
ATOM      1  O   UNL     1       7.621   6.506  16.309  0.00  0.00    +0.000 OA
ATOM      2  C   UNL     1       7.080   7.017  17.286  0.00  0.00    +0.000 C 
ATOM      3  N   UNL     1       7.452   8.216  17.843  0.00  0.00    +0.000 N 
ATOM      4  H   UNL     1       6.868   8.642  18.548  0.00  0.00    +0.000 HD
ENDROOT
BRANCH   2   5
ATOM      5  C   UNL     1       5.920   6.331  17.921  0.00  0.00    +0.000 A 
ATOM      6  C   UNL     1       4.610   6.482  17.445  0.00  0.00    +0.000 A 
ATOM      7  C   UNL     1       3.546   5.938  18.178  0.00  0.00    +0.000 A 
ATOM      8  C   UNL     1       3.783   5.121  19.288  0.00  0.00    +0.000 A 
ATOM      9  C   UNL     1       5.092   4.645  19.381  0.00  0.00    +0.000 A 
ATOM     10  C   UNL     1       6.157   5.447  18.976  0.00  0.00    +0.000 A 
ATOM     11  N   UNL     1       5.201   3.249  18.975  0.00  0.00    +0.000 N 
ATOM     12  C   UNL     1       3.965   2.626  18.604  0.00  0.00    +0.000 C 
ATOM     13  O   UNL     1       3.819   1.900  17.632  0.00  0.00    +0.000 OA
ATOM     14  C   UNL     1       2.923   2.930  19.672  0.00  0.00    +0.000 C 
ATOM     15  C   UNL     1       1.479   2.541  19.876  0.00  0.00    +0.000 C 
ATOM     16  C   UNL     1       1.235   3.301  21.227  0.00  0.00    +0.000 C 
ATOM     17  C   UNL     1       2.296   4.456  21.232  0.00  0.00    +0.000 C 
ATOM     18  N   UNL     1       2.738   4.391  19.838  0.00  0.00    +0.000 N 
ATOM     19  H   UNL     1       5.694   2.738  19.699  0.00  0.00    +0.000 HD
ENDBRANCH   2   5
BRANCH   3  20
ATOM     20  C   UNL     1       8.577   8.994  17.367  0.00  0.00    +0.000 C 
BRANCH  20  21
ATOM     21  C   UNL     1       8.811  10.171  18.271  0.00  0.00    +0.000 A 
ATOM     22  C   UNL     1       8.581  11.476  17.800  0.00  0.00    +0.000 A 
ATOM     23  C   UNL     1       8.792  12.567  18.604  0.00  0.00    +0.000 A 
ATOM     24  C   UNL     1       9.251  12.429  19.930  0.00  0.00    +0.000 A 
ATOM     25  C   UNL     1       9.476  11.134  20.417  0.00  0.00    +0.000 A 
ATOM     26  C   UNL     1       9.262  10.016  19.595  0.00  0.00    +0.000 A 
BRANCH  24  27
ATOM     27  C   UNL     1       9.488  13.638  20.808  0.00  0.00    +0.000 C 
BRANCH  27  28
ATOM     28  N   UNL     1      10.437  14.583  20.229  0.00  0.00    +0.000 N 
ATOM     29  C   UNL     1      11.745  14.345  19.906  0.00  0.00    +0.000 A 
ATOM     30  C   UNL     1      12.272  15.548  19.500  0.00  0.00    +0.000 A 
ATOM     31  C   UNL     1      11.208  16.463  19.633  0.00  0.00    +0.000 A 
ATOM     32  N   UNL     1      10.094  15.884  20.096  0.00  0.00    +0.000 NA
ENDBRANCH  27  28
ENDBRANCH  24  27
ENDBRANCH  20  21
ENDBRANCH   3  20
TORSDOF 5
ENDMDL
MODEL 2
REMARK VINA RESULT:      -9.0      1.367      2.274
REMARK  Name = 
REMARK  5 active torsions:
REMARK  status: ('A' for Active; 'I' for Inactive)
REMARK    1  A    between atoms: C_2  and  C_17
REMARK    2  A    between atoms: N_3  and  C_4
REMARK    3  A    between atoms: C_4  and  C_5
REMARK    4  A    between atoms: C_8  and  C_9
REMARK    5  A    between atoms: C_9  and  N_10
REMARK                            x       y       z     vdW  Elec       q    Type
REMARK                         _______ _______ _______ _____ _____    ______ ____
ROOT
ATOM      1  O   UNL     1       7.655   6.644  16.287  0.00  0.00    +0.000 OA
ATOM      2  C   UNL     1       7.100   7.148  17.260  0.00  0.00    +0.000 C 
ATOM      3  N   UNL     1       7.457   8.347  17.824  0.00  0.00    +0.000 N 
ATOM      4  H   UNL     1       6.863   8.766  18.524  0.00  0.00    +0.000 HD
ENDROOT
BRANCH   2   5
ATOM      5  C   UNL     1       5.940   6.450  17.881  0.00  0.00    +0.000 A 
ATOM      6  C   UNL     1       4.632   6.601  17.398  0.00  0.00    +0.000 A 
ATOM      7  C   UNL     1       3.565   6.044  18.119  0.00  0.00    +0.000 A 
ATOM      8  C   UNL     1       3.799   5.218  19.222  0.00  0.00    +0.000 A 
ATOM      9  C   UNL     1       5.110   4.747  19.319  0.00  0.00    +0.000 A 
ATOM     10  C   UNL     1       6.173   5.558  18.928  0.00  0.00    +0.000 A 
ATOM     11  N   UNL     1       5.228   3.355  18.901  0.00  0.00    +0.000 N 
ATOM     12  C   UNL     1       3.997   2.730  18.516  0.00  0.00    +0.000 C 
ATOM     13  O   UNL     1       3.860   2.013  17.536  0.00  0.00    +0.000 OA
ATOM     14  C   UNL     1       2.946   3.020  19.581  0.00  0.00    +0.000 C 
ATOM     15  C   UNL     1       1.503   2.623  19.771  0.00  0.00    +0.000 C 
ATOM     16  C   UNL     1       1.247   3.369  21.127  0.00  0.00    +0.000 C 
ATOM     17  C   UNL     1       2.303   4.528  21.151  0.00  0.00    +0.000 C 
ATOM     18  N   UNL     1       2.754   4.478  19.759  0.00  0.00    +0.000 N 
ATOM     19  H   UNL     1       5.718   2.840  19.623  0.00  0.00    +0.000 HD
ENDBRANCH   2   5
BRANCH   3  20
ATOM     20  C   UNL     1       8.580   9.136  17.362  0.00  0.00    +0.000 C 
BRANCH  20  21
ATOM     21  C   UNL     1       8.859  10.254  18.325  0.00  0.00    +0.000 A 
ATOM     22  C   UNL     1       9.140   9.967  19.673  0.00  0.00    +0.000 A 
ATOM     23  C   UNL     1       9.393  10.971  20.573  0.00  0.00    +0.000 A 
ATOM     24  C   UNL     1       9.377  12.328  20.190  0.00  0.00    +0.000 A 
ATOM     25  C   UNL     1       9.107  12.630  18.848  0.00  0.00    +0.000 A 
ATOM     26  C   UNL     1       8.846  11.603  17.926  0.00  0.00    +0.000 A 
BRANCH  24  27
ATOM     27  C   UNL     1       9.649  13.429  21.191  0.00  0.00    +0.000 C 
BRANCH  27  28
ATOM     28  N   UNL     1       8.557  13.617  22.140  0.00  0.00    +0.000 N 
ATOM     29  C   UNL     1       8.516  13.203  23.443  0.00  0.00    +0.000 A 
ATOM     30  C   UNL     1       7.256  13.497  23.907  0.00  0.00    +0.000 A 
ATOM     31  C   UNL     1       6.597  14.069  22.801  0.00  0.00    +0.000 A 
ATOM     32  N   UNL     1       7.378  14.126  21.715  0.00  0.00    +0.000 NA
ENDBRANCH  27  28
ENDBRANCH  24  27
ENDBRANCH  20  21
ENDBRANCH   3  20
TORSDOF 5
ENDMDL
MODEL 3
REMARK VINA RESULT:      -8.9      1.317      2.052
REMARK  Name = 
REMARK  5 active torsions:
REMARK  status: ('A' for Active; 'I' for Inactive)
REMARK    1  A    between atoms: C_2  and  C_17
REMARK    2  A    between atoms: N_3  and  C_4
REMARK    3  A    between atoms: C_4  and  C_5
REMARK    4  A    between atoms: C_8  and  C_9
REMARK    5  A    between atoms: C_9  and  N_10
REMARK                            x       y       z     vdW  Elec       q    Type
REMARK                         _______ _______ _______ _____ _____    ______ ____
ROOT
ATOM      1  O   UNL     1       7.660   6.571  16.324  0.00  0.00    +0.000 OA
ATOM      2  C   UNL     1       7.108   7.076  17.298  0.00  0.00    +0.000 C 
ATOM      3  N   UNL     1       7.479   8.268  17.870  0.00  0.00    +0.000 N 
ATOM      4  H   UNL     1       6.887   8.691  18.571  0.00  0.00    +0.000 HD
ENDROOT
BRANCH   2   5
ATOM      5  C   UNL     1       5.939   6.389  17.914  0.00  0.00    +0.000 A 
ATOM      6  C   UNL     1       4.636   6.545  17.420  0.00  0.00    +0.000 A 
ATOM      7  C   UNL     1       3.560   5.999  18.135  0.00  0.00    +0.000 A 
ATOM      8  C   UNL     1       3.780   5.176  19.244  0.00  0.00    +0.000 A 
ATOM      9  C   UNL     1       5.087   4.697  19.353  0.00  0.00    +0.000 A 
ATOM     10  C   UNL     1       6.159   5.499  18.967  0.00  0.00    +0.000 A 
ATOM     11  N   UNL     1       5.199   3.302  18.942  0.00  0.00    +0.000 N 
ATOM     12  C   UNL     1       3.967   2.684  18.549  0.00  0.00    +0.000 C 
ATOM     13  O   UNL     1       3.833   1.964  17.572  0.00  0.00    +0.000 OA
ATOM     14  C   UNL     1       2.910   2.985  19.605  0.00  0.00    +0.000 C 
ATOM     15  C   UNL     1       1.463   2.598  19.786  0.00  0.00    +0.000 C 
ATOM     16  C   UNL     1       1.202   3.352  21.137  0.00  0.00    +0.000 C 
ATOM     17  C   UNL     1       2.265   4.504  21.164  0.00  0.00    +0.000 C 
ATOM     18  N   UNL     1       2.727   4.445  19.776  0.00  0.00    +0.000 N 
ATOM     19  H   UNL     1       5.681   2.787  19.669  0.00  0.00    +0.000 HD
ENDBRANCH   2   5
BRANCH   3  20
ATOM     20  C   UNL     1       8.612   9.047  17.414  0.00  0.00    +0.000 C 
BRANCH  20  21
ATOM     21  C   UNL     1       8.868  10.188  18.356  0.00  0.00    +0.000 A 
ATOM     22  C   UNL     1       8.826  11.512  17.884  0.00  0.00    +0.000 A 
ATOM     23  C   UNL     1       9.060  12.571  18.723  0.00  0.00    +0.000 A 
ATOM     24  C   UNL     1       9.358  12.380  20.089  0.00  0.00    +0.000 A 
ATOM     25  C   UNL     1       9.394  11.066  20.576  0.00  0.00    +0.000 A 
ATOM     26  C   UNL     1       9.156   9.981  19.718  0.00  0.00    +0.000 A 
BRANCH  24  27
ATOM     27  C   UNL     1       9.623  13.554  21.006  0.00  0.00    +0.000 C 
BRANCH  27  28
ATOM     28  N   UNL     1       8.510  13.834  21.905  0.00  0.00    +0.000 N 
ATOM     29  C   UNL     1       7.287  14.348  21.569  0.00  0.00    +0.000 A 
ATOM     30  C   UNL     1       6.608  14.546  22.747  0.00  0.00    +0.000 A 
ATOM     31  C   UNL     1       7.514  14.142  23.748  0.00  0.00    +0.000 A 
ATOM     32  N   UNL     1       8.681  13.727  23.242  0.00  0.00    +0.000 NA
ENDBRANCH  27  28
ENDBRANCH  24  27
ENDBRANCH  20  21
ENDBRANCH   3  20
TORSDOF 5
ENDMDL
MODEL 4
REMARK VINA RESULT:      -8.7      0.726      1.234
REMARK  Name = 
REMARK  5 active torsions:
REMARK  status: ('A' for Active; 'I' for Inactive)
REMARK    1  A    between atoms: C_2  and  C_17
REMARK    2  A    between atoms: N_3  and  C_4
REMARK    3  A    between atoms: C_4  and  C_5
REMARK    4  A    between atoms: C_8  and  C_9
REMARK    5  A    between atoms: C_9  and  N_10
REMARK                            x       y       z     vdW  Elec       q    Type
REMARK                         _______ _______ _______ _____ _____    ______ ____
ROOT
ATOM      1  O   UNL     1       7.643   6.605  16.304  0.00  0.00    +0.000 OA
ATOM      2  C   UNL     1       7.083   7.119  17.269  0.00  0.00    +0.000 C 
ATOM      3  N   UNL     1       7.433   8.328  17.818  0.00  0.00    +0.000 N 
ATOM      4  H   UNL     1       6.835   8.753  18.511  0.00  0.00    +0.000 HD
ENDROOT
BRANCH   2   5
ATOM      5  C   UNL     1       5.926   6.423  17.897  0.00  0.00    +0.000 A 
ATOM      6  C   UNL     1       4.615   6.577  17.424  0.00  0.00    +0.000 A 
ATOM      7  C   UNL     1       3.552   6.023  18.151  0.00  0.00    +0.000 A 
ATOM      8  C   UNL     1       3.791   5.194  19.252  0.00  0.00    +0.000 A 
ATOM      9  C   UNL     1       5.102   4.720  19.339  0.00  0.00    +0.000 A 
ATOM     10  C   UNL     1       6.164   5.529  18.942  0.00  0.00    +0.000 A 
ATOM     11  N   UNL     1       5.214   3.328  18.919  0.00  0.00    +0.000 N 
ATOM     12  C   UNL     1       3.979   2.707  18.541  0.00  0.00    +0.000 C 
ATOM     13  O   UNL     1       3.833   1.992  17.562  0.00  0.00    +0.000 OA
ATOM     14  C   UNL     1       2.936   2.998  19.614  0.00  0.00    +0.000 C 
ATOM     15  C   UNL     1       1.493   2.604  19.814  0.00  0.00    +0.000 C 
ATOM     16  C   UNL     1       1.249   3.349  21.173  0.00  0.00    +0.000 C 
ATOM     17  C   UNL     1       2.307   4.505  21.190  0.00  0.00    +0.000 C 
ATOM     18  N   UNL     1       2.749   4.456  19.795  0.00  0.00    +0.000 N 
ATOM     19  H   UNL     1       5.708   2.811  19.636  0.00  0.00    +0.000 HD
ENDBRANCH   2   5
BRANCH   3  20
ATOM     20  C   UNL     1       8.553   9.117  17.347  0.00  0.00    +0.000 C 
BRANCH  20  21
ATOM     21  C   UNL     1       8.828  10.244  18.300  0.00  0.00    +0.000 A 
ATOM     22  C   UNL     1       9.178   9.968  19.634  0.00  0.00    +0.000 A 
ATOM     23  C   UNL     1       9.430  10.981  20.524  0.00  0.00    +0.000 A 
ATOM     24  C   UNL     1       9.344  12.336  20.145  0.00  0.00    +0.000 A 
ATOM     25  C   UNL     1       9.004  12.627  18.816  0.00  0.00    +0.000 A 
ATOM     26  C   UNL     1       8.744  11.592  17.904  0.00  0.00    +0.000 A 
BRANCH  24  27
ATOM     27  C   UNL     1       9.616  13.447  21.135  0.00  0.00    +0.000 C 
BRANCH  27  28
ATOM     28  N   UNL     1       9.485  14.776  20.548  0.00  0.00    +0.000 N 
ATOM     29  C   UNL     1      10.484  15.547  20.021  0.00  0.00    +0.000 A 
ATOM     30  C   UNL     1       9.915  16.755  19.694  0.00  0.00    +0.000 A 
ATOM     31  C   UNL     1       8.567  16.627  20.081  0.00  0.00    +0.000 A 
ATOM     32  N   UNL     1       8.304  15.430  20.622  0.00  0.00    +0.000 NA
ENDBRANCH  27  28
ENDBRANCH  24  27
ENDBRANCH  20  21
ENDBRANCH   3  20
TORSDOF 5
ENDMDL
MODEL 5
REMARK VINA RESULT:      -8.7      6.684     10.213
REMARK  Name = 
REMARK  5 active torsions:
REMARK  status: ('A' for Active; 'I' for Inactive)
REMARK    1  A    between atoms: C_2  and  C_17
REMARK    2  A    between atoms: N_3  and  C_4
REMARK    3  A    between atoms: C_4  and  C_5
REMARK    4  A    between atoms: C_8  and  C_9
REMARK    5  A    between atoms: C_9  and  N_10
REMARK                            x       y       z     vdW  Elec       q    Type
REMARK                         _______ _______ _______ _____ _____    ______ ____
ROOT
ATOM      1  O   UNL     1       1.294   7.761  21.051  0.00  0.00    +0.000 OA
ATOM      2  C   UNL     1       1.579   8.205  19.942  0.00  0.00    +0.000 C 
ATOM      3  N   UNL     1       1.110   9.393  19.437  0.00  0.00    +0.000 N 
ATOM      4  H   UNL     1       1.504   9.763  18.583  0.00  0.00    +0.000 HD
ENDROOT
BRANCH   2   5
ATOM      5  C   UNL     1       2.513   7.443  19.066  0.00  0.00    +0.000 A 
ATOM      6  C   UNL     1       3.224   8.054  18.024  0.00  0.00    +0.000 A 
ATOM      7  C   UNL     1       3.965   7.257  17.140  0.00  0.00    +0.000 A 
ATOM      8  C   UNL     1       4.127   5.887  17.372  0.00  0.00    +0.000 A 
ATOM      9  C   UNL     1       3.797   5.482  18.666  0.00  0.00    +0.000 A 
ATOM     10  C   UNL     1       2.745   6.095  19.343  0.00  0.00    +0.000 A 
ATOM     11  N   UNL     1       4.979   5.236  19.485  0.00  0.00    +0.000 N 
ATOM     12  C   UNL     1       6.231   5.413  18.811  0.00  0.00    +0.000 C 
ATOM     13  O   UNL     1       7.199   5.988  19.287  0.00  0.00    +0.000 OA
ATOM     14  C   UNL     1       6.179   4.677  17.478  0.00  0.00    +0.000 C 
ATOM     15  C   UNL     1       7.166   4.457  16.358  0.00  0.00    +0.000 C 
ATOM     16  C   UNL     1       6.248   3.591  15.425  0.00  0.00    +0.000 C 
ATOM     17  C   UNL     1       4.785   3.988  15.825  0.00  0.00    +0.000 C 
ATOM     18  N   UNL     1       5.064   5.172  16.638  0.00  0.00    +0.000 N 
ATOM     19  H   UNL     1       4.891   4.323  19.915  0.00  0.00    +0.000 HD
ENDBRANCH   2   5
BRANCH   3  20
ATOM     20  C   UNL     1       0.171  10.238  20.144  0.00  0.00    +0.000 C 
BRANCH  20  21
ATOM     21  C   UNL     1      -0.986  10.586  19.252  0.00  0.00    +0.000 A 
ATOM     22  C   UNL     1      -1.191   9.874  18.057  0.00  0.00    +0.000 A 
ATOM     23  C   UNL     1      -2.238  10.176  17.223  0.00  0.00    +0.000 A 
ATOM     24  C   UNL     1      -3.146  11.212  17.524  0.00  0.00    +0.000 A 
ATOM     25  C   UNL     1      -2.960  11.925  18.716  0.00  0.00    +0.000 A 
ATOM     26  C   UNL     1      -1.888  11.619  19.570  0.00  0.00    +0.000 A 
BRANCH  24  27
ATOM     27  C   UNL     1      -4.293  11.544  16.595  0.00  0.00    +0.000 C 
BRANCH  27  28
ATOM     28  N   UNL     1      -5.553  11.756  17.300  0.00  0.00    +0.000 N 
ATOM     29  C   UNL     1      -6.316  12.891  17.302  0.00  0.00    +0.000 A 
ATOM     30  C   UNL     1      -7.343  12.670  18.189  0.00  0.00    +0.000 A 
ATOM     31  C   UNL     1      -7.102  11.377  18.693  0.00  0.00    +0.000 A 
ATOM     32  N   UNL     1      -6.000  10.823  18.171  0.00  0.00    +0.000 NA
ENDBRANCH  27  28
ENDBRANCH  24  27
ENDBRANCH  20  21
ENDBRANCH   3  20
TORSDOF 5
ENDMDL
MODEL 6
REMARK VINA RESULT:      -8.6      6.322      9.037
REMARK  Name = 
REMARK  5 active torsions:
REMARK  status: ('A' for Active; 'I' for Inactive)
REMARK    1  A    between atoms: C_2  and  C_17
REMARK    2  A    between atoms: N_3  and  C_4
REMARK    3  A    between atoms: C_4  and  C_5
REMARK    4  A    between atoms: C_8  and  C_9
REMARK    5  A    between atoms: C_9  and  N_10
REMARK                            x       y       z     vdW  Elec       q    Type
REMARK                         _______ _______ _______ _____ _____    ______ ____
ROOT
ATOM      1  O   UNL     1       1.581   5.126  20.818  0.00  0.00    +0.000 OA
ATOM      2  C   UNL     1       2.063   6.097  20.241  0.00  0.00    +0.000 C 
ATOM      3  N   UNL     1       1.846   7.403  20.604  0.00  0.00    +0.000 N 
ATOM      4  H   UNL     1       2.393   8.137  20.177  0.00  0.00    +0.000 HD
ENDROOT
BRANCH   2   5
ATOM      5  C   UNL     1       2.970   5.881  19.079  0.00  0.00    +0.000 A 
ATOM      6  C   UNL     1       3.535   6.946  18.364  0.00  0.00    +0.000 A 
ATOM      7  C   UNL     1       4.252   6.681  17.189  0.00  0.00    +0.000 A 
ATOM      8  C   UNL     1       4.541   5.368  16.805  0.00  0.00    +0.000 A 
ATOM      9  C   UNL     1       4.362   4.422  17.817  0.00  0.00    +0.000 A 
ATOM     10  C   UNL     1       3.332   4.575  18.742  0.00  0.00    +0.000 A 
ATOM     11  N   UNL     1       5.629   3.986  18.394  0.00  0.00    +0.000 N 
ATOM     12  C   UNL     1       6.798   4.566  17.800  0.00  0.00    +0.000 C 
ATOM     13  O   UNL     1       7.757   4.989  18.427  0.00  0.00    +0.000 OA
ATOM     14  C   UNL     1       6.682   4.457  16.284  0.00  0.00    +0.000 C 
ATOM     15  C   UNL     1       7.577   4.837  15.130  0.00  0.00    +0.000 C 
ATOM     16  C   UNL     1       6.649   4.350  13.963  0.00  0.00    +0.000 C 
ATOM     17  C   UNL     1       5.202   4.379  14.565  0.00  0.00    +0.000 C 
ATOM     18  N   UNL     1       5.460   5.135  15.792  0.00  0.00    +0.000 N 
ATOM     19  H   UNL     1       5.653   2.973  18.395  0.00  0.00    +0.000 HD
ENDBRANCH   2   5
BRANCH   3  20
ATOM     20  C   UNL     1       0.967   7.789  21.688  0.00  0.00    +0.000 C 
BRANCH  20  21
ATOM     21  C   UNL     1       0.340   9.121  21.397  0.00  0.00    +0.000 A 
ATOM     22  C   UNL     1      -0.277   9.848  22.431  0.00  0.00    +0.000 A 
ATOM     23  C   UNL     1      -0.861  11.066  22.190  0.00  0.00    +0.000 A 
ATOM     24  C   UNL     1      -0.873  11.637  20.901  0.00  0.00    +0.000 A 
ATOM     25  C   UNL     1      -0.253  10.929  19.861  0.00  0.00    +0.000 A 
ATOM     26  C   UNL     1       0.343   9.682  20.106  0.00  0.00    +0.000 A 
BRANCH  24  27
ATOM     27  C   UNL     1      -1.526  12.977  20.642  0.00  0.00    +0.000 C 
BRANCH  27  28
ATOM     28  N   UNL     1      -2.983  12.904  20.623  0.00  0.00    +0.000 N 
ATOM     29  C   UNL     1      -3.838  13.216  21.644  0.00  0.00    +0.000 A 
ATOM     30  C   UNL     1      -5.101  12.888  21.211  0.00  0.00    +0.000 A 
ATOM     31  C   UNL     1      -4.905  12.362  19.919  0.00  0.00    +0.000 A 
ATOM     32  N   UNL     1      -3.614  12.350  19.563  0.00  0.00    +0.000 NA
ENDBRANCH  27  28
ENDBRANCH  24  27
ENDBRANCH  20  21
ENDBRANCH   3  20
TORSDOF 5
ENDMDL
MODEL 7
REMARK VINA RESULT:      -8.5      2.023     10.638
REMARK  Name = 
REMARK  5 active torsions:
REMARK  status: ('A' for Active; 'I' for Inactive)
REMARK    1  A    between atoms: C_2  and  C_17
REMARK    2  A    between atoms: N_3  and  C_4
REMARK    3  A    between atoms: C_4  and  C_5
REMARK    4  A    between atoms: C_8  and  C_9
REMARK    5  A    between atoms: C_9  and  N_10
REMARK                            x       y       z     vdW  Elec       q    Type
REMARK                         _______ _______ _______ _____ _____    ______ ____
ROOT
ATOM      1  O   UNL     1       8.569   7.472  18.970  0.00  0.00    +0.000 OA
ATOM      2  C   UNL     1       8.199   8.341  18.185  0.00  0.00    +0.000 C 
ATOM      3  N   UNL     1       7.340   8.126  17.135  0.00  0.00    +0.000 N 
ATOM      4  H   UNL     1       6.966   8.914  16.627  0.00  0.00    +0.000 HD
ENDROOT
BRANCH   2   5
ATOM      5  C   UNL     1       8.673   9.742  18.368  0.00  0.00    +0.000 A 
ATOM      6  C   UNL     1       8.126  10.815  17.651  0.00  0.00    +0.000 A 
ATOM      7  C   UNL     1       8.719  12.082  17.751  0.00  0.00    +0.000 A 
ATOM      8  C   UNL     1       9.747  12.322  18.668  0.00  0.00    +0.000 A 
ATOM      9  C   UNL     1       9.879  11.340  19.652  0.00  0.00    +0.000 A 
ATOM     10  C   UNL     1       9.639  10.003  19.341  0.00  0.00    +0.000 A 
ATOM     11  N   UNL     1       9.332  11.768  20.935  0.00  0.00    +0.000 N 
ATOM     12  C   UNL     1       8.810  13.102  20.957  0.00  0.00    +0.000 C 
ATOM     13  O   UNL     1       7.757  13.426  21.485  0.00  0.00    +0.000 OA
ATOM     14  C   UNL     1       9.830  14.038  20.321  0.00  0.00    +0.000 C 
ATOM     15  C   UNL     1       9.888  15.528  20.085  0.00  0.00    +0.000 C 
ATOM     16  C   UNL     1      11.293  15.585  19.390  0.00  0.00    +0.000 C 
ATOM     17  C   UNL     1      11.499  14.152  18.787  0.00  0.00    +0.000 C 
ATOM     18  N   UNL     1      10.140  13.626  18.932  0.00  0.00    +0.000 N 
ATOM     19  H   UNL     1      10.029  11.608  21.653  0.00  0.00    +0.000 HD
ENDBRANCH   2   5
BRANCH   3  20
ATOM     20  C   UNL     1       6.813   6.820  16.799  0.00  0.00    +0.000 C 
BRANCH  20  21
ATOM     21  C   UNL     1       5.566   6.546  17.591  0.00  0.00    +0.000 A 
ATOM     22  C   UNL     1       5.596   5.626  18.653  0.00  0.00    +0.000 A 
ATOM     23  C   UNL     1       4.470   5.356  19.388  0.00  0.00    +0.000 A 
ATOM     24  C   UNL     1       3.237   5.982  19.109  0.00  0.00    +0.000 A 
ATOM     25  C   UNL     1       3.194   6.909  18.058  0.00  0.00    +0.000 A 
ATOM     26  C   UNL     1       4.345   7.185  17.304  0.00  0.00    +0.000 A 
BRANCH  24  27
ATOM     27  C   UNL     1       1.998   5.672  19.920  0.00  0.00    +0.000 C 
BRANCH  27  28
ATOM     28  N   UNL     1       1.521   4.307  19.727  0.00  0.00    +0.000 N 
ATOM     29  C   UNL     1       1.362   3.346  20.688  0.00  0.00    +0.000 A 
ATOM     30  C   UNL     1       1.001   2.193  20.032  0.00  0.00    +0.000 A 
ATOM     31  C   UNL     1       0.990   2.551  18.670  0.00  0.00    +0.000 A 
ATOM     32  N   UNL     1       1.326   3.833  18.477  0.00  0.00    +0.000 NA
ENDBRANCH  27  28
ENDBRANCH  24  27
ENDBRANCH  20  21
ENDBRANCH   3  20
TORSDOF 5
ENDMDL
MODEL 8
REMARK VINA RESULT:      -8.4      6.230      9.157
REMARK  Name = 
REMARK  5 active torsions:
REMARK  status: ('A' for Active; 'I' for Inactive)
REMARK    1  A    between atoms: C_2  and  C_17
REMARK    2  A    between atoms: N_3  and  C_4
REMARK    3  A    between atoms: C_4  and  C_5
REMARK    4  A    between atoms: C_8  and  C_9
REMARK    5  A    between atoms: C_9  and  N_10
REMARK                            x       y       z     vdW  Elec       q    Type
REMARK                         _______ _______ _______ _____ _____    ______ ____
ROOT
ATOM      1  O   UNL     1       1.429   5.553  20.714  0.00  0.00    +0.000 OA
ATOM      2  C   UNL     1       2.084   6.457  20.202  0.00  0.00    +0.000 C 
ATOM      3  N   UNL     1       2.072   7.763  20.627  0.00  0.00    +0.000 N 
ATOM      4  H   UNL     1       2.746   8.416  20.255  0.00  0.00    +0.000 HD
ENDROOT
BRANCH   2   5
ATOM      5  C   UNL     1       2.984   6.149  19.056  0.00  0.00    +0.000 A 
ATOM      6  C   UNL     1       3.582   7.156  18.285  0.00  0.00    +0.000 A 
ATOM      7  C   UNL     1       4.291   6.805  17.127  0.00  0.00    +0.000 A 
ATOM      8  C   UNL     1       4.537   5.464  16.815  0.00  0.00    +0.000 A 
ATOM      9  C   UNL     1       4.329   4.581  17.877  0.00  0.00    +0.000 A 
ATOM     10  C   UNL     1       3.303   4.817  18.790  0.00  0.00    +0.000 A 
ATOM     11  N   UNL     1       5.581   4.136  18.478  0.00  0.00    +0.000 N 
ATOM     12  C   UNL     1       6.767   4.645  17.855  0.00  0.00    +0.000 C 
ATOM     13  O   UNL     1       7.739   5.071  18.460  0.00  0.00    +0.000 OA
ATOM     14  C   UNL     1       6.648   4.458  16.348  0.00  0.00    +0.000 C 
ATOM     15  C   UNL     1       7.555   4.747  15.176  0.00  0.00    +0.000 C 
ATOM     16  C   UNL     1       6.611   4.227  14.036  0.00  0.00    +0.000 C 
ATOM     17  C   UNL     1       5.166   4.334  14.633  0.00  0.00    +0.000 C 
ATOM     18  N   UNL     1       5.448   5.147  15.818  0.00  0.00    +0.000 N 
ATOM     19  H   UNL     1       5.572   3.125  18.535  0.00  0.00    +0.000 HD
ENDBRANCH   2   5
BRANCH   3  20
ATOM     20  C   UNL     1       1.230   8.236  21.707  0.00  0.00    +0.000 C 
BRANCH  20  21
ATOM     21  C   UNL     1       0.397   9.395  21.243  0.00  0.00    +0.000 A 
ATOM     22  C   UNL     1      -0.274  10.200  22.182  0.00  0.00    +0.000 A 
ATOM     23  C   UNL     1      -1.045  11.262  21.783  0.00  0.00    +0.000 A 
ATOM     24  C   UNL     1      -1.203  11.589  20.421  0.00  0.00    +0.000 A 
ATOM     25  C   UNL     1      -0.534  10.802  19.473  0.00  0.00    +0.000 A 
ATOM     26  C   UNL     1       0.255   9.714  19.879  0.00  0.00    +0.000 A 
BRANCH  24  27
ATOM     27  C   UNL     1      -2.062  12.758  19.989  0.00  0.00    +0.000 C 
BRANCH  27  28
ATOM     28  N   UNL     1      -3.374  12.348  19.500  0.00  0.00    +0.000 N 
ATOM     29  C   UNL     1      -3.640  11.563  18.411  0.00  0.00    +0.000 A 
ATOM     30  C   UNL     1      -5.007  11.540  18.271  0.00  0.00    +0.000 A 
ATOM     31  C   UNL     1      -5.483  12.361  19.312  0.00  0.00    +0.000 A 
ATOM     32  N   UNL     1      -4.491  12.873  20.051  0.00  0.00    +0.000 NA
ENDBRANCH  27  28
ENDBRANCH  24  27
ENDBRANCH  20  21
ENDBRANCH   3  20
TORSDOF 5
ENDMDL
MODEL 9
REMARK VINA RESULT:      -8.4      6.298      8.357
REMARK  Name = 
REMARK  5 active torsions:
REMARK  status: ('A' for Active; 'I' for Inactive)
REMARK    1  A    between atoms: C_2  and  C_17
REMARK    2  A    between atoms: N_3  and  C_4
REMARK    3  A    between atoms: C_4  and  C_5
REMARK    4  A    between atoms: C_8  and  C_9
REMARK    5  A    between atoms: C_9  and  N_10
REMARK                            x       y       z     vdW  Elec       q    Type
REMARK                         _______ _______ _______ _____ _____    ______ ____
ROOT
ATOM      1  O   UNL     1       1.529   4.945  20.830  0.00  0.00    +0.000 OA
ATOM      2  C   UNL     1       1.980   5.938  20.265  0.00  0.00    +0.000 C 
ATOM      3  N   UNL     1       1.708   7.233  20.634  0.00  0.00    +0.000 N 
ATOM      4  H   UNL     1       2.231   7.990  20.219  0.00  0.00    +0.000 HD
ENDROOT
BRANCH   2   5
ATOM      5  C   UNL     1       2.909   5.766  19.114  0.00  0.00    +0.000 A 
ATOM      6  C   UNL     1       3.459   6.858  18.428  0.00  0.00    +0.000 A 
ATOM      7  C   UNL     1       4.199   6.633  17.259  0.00  0.00    +0.000 A 
ATOM      8  C   UNL     1       4.523   5.334  16.853  0.00  0.00    +0.000 A 
ATOM      9  C   UNL     1       4.351   4.365  17.843  0.00  0.00    +0.000 A 
ATOM     10  C   UNL     1       3.304   4.476  18.756  0.00  0.00    +0.000 A 
ATOM     11  N   UNL     1       5.619   3.945  18.430  0.00  0.00    +0.000 N 
ATOM     12  C   UNL     1       6.783   4.563  17.865  0.00  0.00    +0.000 C 
ATOM     13  O   UNL     1       7.723   4.995  18.515  0.00  0.00    +0.000 OA
ATOM     14  C   UNL     1       6.692   4.482  16.346  0.00  0.00    +0.000 C 
ATOM     15  C   UNL     1       7.594   4.906  15.214  0.00  0.00    +0.000 C 
ATOM     16  C   UNL     1       6.694   4.421  14.023  0.00  0.00    +0.000 C 
ATOM     17  C   UNL     1       5.238   4.405  14.604  0.00  0.00    +0.000 C 
ATOM     18  N   UNL     1       5.461   5.142  15.849  0.00  0.00    +0.000 N 
ATOM     19  H   UNL     1       5.666   2.933  18.412  0.00  0.00    +0.000 HD
ENDBRANCH   2   5
BRANCH   3  20
ATOM     20  C   UNL     1       0.802   7.576  21.711  0.00  0.00    +0.000 C 
BRANCH  20  21
ATOM     21  C   UNL     1       0.413   9.023  21.619  0.00  0.00    +0.000 A 
ATOM     22  C   UNL     1       0.701   9.756  20.453  0.00  0.00    +0.000 A 
ATOM     23  C   UNL     1       0.360  11.080  20.347  0.00  0.00    +0.000 A 
ATOM     24  C   UNL     1      -0.286  11.763  21.398  0.00  0.00    +0.000 A 
ATOM     25  C   UNL     1      -0.588  11.044  22.563  0.00  0.00    +0.000 A 
ATOM     26  C   UNL     1      -0.238   9.689  22.674  0.00  0.00    +0.000 A 
BRANCH  24  27
ATOM     27  C   UNL     1      -0.652  13.226  21.275  0.00  0.00    +0.000 C 
BRANCH  27  28
ATOM     28  N   UNL     1      -1.298  13.752  22.472  0.00  0.00    +0.000 N 
ATOM     29  C   UNL     1      -2.640  13.795  22.733  0.00  0.00    +0.000 A 
ATOM     30  C   UNL     1      -2.786  14.474  23.920  0.00  0.00    +0.000 A 
ATOM     31  C   UNL     1      -1.473  14.823  24.291  0.00  0.00    +0.000 A 
ATOM     32  N   UNL     1      -0.564  14.404  23.402  0.00  0.00    +0.000 NA
ENDBRANCH  27  28
ENDBRANCH  24  27
ENDBRANCH  20  21
ENDBRANCH   3  20
TORSDOF 5
ENDMDL
