MODEL 1
REMARK VINA RESULT:      -8.3      0.000      0.000
REMARK  Name = 
REMARK  5 active torsions:
REMARK  status: ('A' for Active; 'I' for Inactive)
REMARK    1  A    between atoms: C_2  and  C_14
REMARK    2  A    between atoms: N_3  and  C_4
REMARK    3  A    between atoms: C_6  and  C_7
REMARK    4  A    between atoms: C_7  and  C_8
REMARK    5  A    between atoms: C_18  and  C_19
REMARK                            x       y       z     vdW  Elec       q    Type
REMARK                         _______ _______ _______ _____ _____    ______ ____
ROOT
ATOM      1  O   UNL     1       5.375   3.406  20.053  0.00  0.00    +0.000 OA
ATOM      2  C   UNL     1       4.784   3.443  18.979  0.00  0.00    +0.000 C 
ATOM      3  N   UNL     1       5.387   3.875  17.806  0.00  0.00    +0.000 N 
ATOM      4  H   UNL     1       4.781   4.067  17.019  0.00  0.00    +0.000 HD
ENDROOT
BRANCH   2   5
ATOM      5  C   UNL     1       3.389   3.058  18.824  0.00  0.00    +0.000 A 
ATOM      6  C   UNL     1       2.929   1.793  18.504  0.00  0.00    +0.000 A 
ATOM      7  N   UNL     1       1.572   1.863  18.507  0.00  0.00    +0.000 N 
ATOM      8  N   UNL     1       1.101   3.078  18.802  0.00  0.00    +0.000 NA
ATOM      9  C   UNL     1       2.192   3.844  18.981  0.00  0.00    +0.000 A 
ATOM     10  H   UNL     1       0.903   1.124  18.312  0.00  0.00    +0.000 HD
BRANCH   9  11
ATOM     11  C   UNL     1       2.036   5.287  19.224  0.00  0.00    +0.000 A 
ATOM     12  C   UNL     1       2.351   6.226  18.225  0.00  0.00    +0.000 A 
ATOM     13  C   UNL     1       2.237   7.599  18.473  0.00  0.00    +0.000 A 
ATOM     14  C   UNL     1       1.807   8.034  19.720  0.00  0.00    +0.000 A 
ATOM     15  F   UNL     1       1.696   9.346  19.962  0.00  0.00    +0.000 F 
ATOM     16  C   UNL     1       1.502   7.129  20.724  0.00  0.00    +0.000 A 
ATOM     17  C   UNL     1       1.629   5.759  20.480  0.00  0.00    +0.000 A 
ENDBRANCH   9  11
ENDBRANCH   2   5
BRANCH   3  18
ATOM     18  C   UNL     1       6.724   4.386  17.751  0.00  0.00    +0.000 C 
ATOM     19  C   UNL     1       6.957   5.821  18.155  0.00  0.00    +0.000 C 
ATOM     20  C   UNL     1       7.228   5.396  16.740  0.00  0.00    +0.000 C 
BRANCH  20  21
ATOM     21  C   UNL     1       6.385   5.875  15.597  0.00  0.00    +0.000 C 
BRANCH  21  22
ATOM     22  C   UNL     1       6.506   5.005  14.362  0.00  0.00    +0.000 A 
ATOM     23  C   UNL     1       5.547   4.033  14.041  0.00  0.00    +0.000 A 
ATOM     24  C   UNL     1       5.604   3.352  12.820  0.00  0.00    +0.000 A 
ATOM     25  C   UNL     1       6.631   3.620  11.916  0.00  0.00    +0.000 A 
ATOM     26  C   UNL     1       7.613   4.551  12.241  0.00  0.00    +0.000 A 
ATOM     27  C   UNL     1       7.549   5.241  13.453  0.00  0.00    +0.000 A 
ENDBRANCH  21  22
ENDBRANCH  20  21
ENDBRANCH   3  18
TORSDOF 5
ENDMDL
MODEL 2
REMARK VINA RESULT:      -8.2      0.303      1.010
REMARK  Name = 
REMARK  5 active torsions:
REMARK  status: ('A' for Active; 'I' for Inactive)
REMARK    1  A    between atoms: C_2  and  C_14
REMARK    2  A    between atoms: N_3  and  C_4
REMARK    3  A    between atoms: C_6  and  C_7
REMARK    4  A    between atoms: C_7  and  C_8
REMARK    5  A    between atoms: C_18  and  C_19
REMARK                            x       y       z     vdW  Elec       q    Type
REMARK                         _______ _______ _______ _____ _____    ______ ____
ROOT
ATOM      1  O   UNL     1       5.262   2.775  19.979  0.00  0.00    +0.000 OA
ATOM      2  C   UNL     1       4.599   3.077  18.992  0.00  0.00    +0.000 C 
ATOM      3  N   UNL     1       5.138   3.748  17.904  0.00  0.00    +0.000 N 
ATOM      4  H   UNL     1       4.488   4.135  17.232  0.00  0.00    +0.000 HD
ENDROOT
BRANCH   2   5
ATOM      5  C   UNL     1       3.179   2.782  18.865  0.00  0.00    +0.000 A 
ATOM      6  C   UNL     1       2.631   1.543  18.585  0.00  0.00    +0.000 A 
ATOM      7  N   UNL     1       1.282   1.704  18.604  0.00  0.00    +0.000 N 
ATOM      8  N   UNL     1       0.897   2.954  18.873  0.00  0.00    +0.000 NA
ATOM      9  C   UNL     1       2.039   3.650  19.017  0.00  0.00    +0.000 A 
ATOM     10  H   UNL     1       0.563   1.006  18.437  0.00  0.00    +0.000 HD
BRANCH   9  11
ATOM     11  C   UNL     1       1.984   5.106  19.223  0.00  0.00    +0.000 A 
ATOM     12  C   UNL     1       2.365   5.996  18.202  0.00  0.00    +0.000 A 
ATOM     13  C   UNL     1       2.345   7.379  18.415  0.00  0.00    +0.000 A 
ATOM     14  C   UNL     1       1.944   7.874  19.649  0.00  0.00    +0.000 A 
ATOM     15  F   UNL     1       1.924   9.196  19.858  0.00  0.00    +0.000 F 
ATOM     16  C   UNL     1       1.576   7.018  20.675  0.00  0.00    +0.000 A 
ATOM     17  C   UNL     1       1.607   5.637  20.466  0.00  0.00    +0.000 A 
ENDBRANCH   9  11
ENDBRANCH   2   5
BRANCH   3  18
ATOM     18  C   UNL     1       6.492   4.215  17.860  0.00  0.00    +0.000 C 
ATOM     19  C   UNL     1       6.782   5.609  18.361  0.00  0.00    +0.000 C 
ATOM     20  C   UNL     1       7.015   5.277  16.914  0.00  0.00    +0.000 C 
BRANCH  20  21
ATOM     21  C   UNL     1       6.171   5.865  15.824  0.00  0.00    +0.000 C 
BRANCH  21  22
ATOM     22  C   UNL     1       6.347   5.165  14.491  0.00  0.00    +0.000 A 
ATOM     23  C   UNL     1       7.460   5.398  13.671  0.00  0.00    +0.000 A 
ATOM     24  C   UNL     1       7.672   4.628  12.522  0.00  0.00    +0.000 A 
ATOM     25  C   UNL     1       6.764   3.631  12.170  0.00  0.00    +0.000 A 
ATOM     26  C   UNL     1       5.633   3.418  12.952  0.00  0.00    +0.000 A 
ATOM     27  C   UNL     1       5.428   4.176  14.107  0.00  0.00    +0.000 A 
ENDBRANCH  21  22
ENDBRANCH  20  21
ENDBRANCH   3  18
TORSDOF 5
ENDMDL
MODEL 3
REMARK VINA RESULT:      -8.0      1.290      1.883
REMARK  Name = 
REMARK  5 active torsions:
REMARK  status: ('A' for Active; 'I' for Inactive)
REMARK    1  A    between atoms: C_2  and  C_14
REMARK    2  A    between atoms: N_3  and  C_4
REMARK    3  A    between atoms: C_6  and  C_7
REMARK    4  A    between atoms: C_7  and  C_8
REMARK    5  A    between atoms: C_18  and  C_19
REMARK                            x       y       z     vdW  Elec       q    Type
REMARK                         _______ _______ _______ _____ _____    ______ ____
ROOT
ATOM      1  O   UNL     1       5.048   2.446  20.000  0.00  0.00    +0.000 OA
ATOM      2  C   UNL     1       4.279   3.345  19.675  0.00  0.00    +0.000 C 
ATOM      3  N   UNL     1       4.660   4.398  18.857  0.00  0.00    +0.000 N 
ATOM      4  H   UNL     1       4.035   5.193  18.806  0.00  0.00    +0.000 HD
ENDROOT
BRANCH   2   5
ATOM      5  C   UNL     1       2.897   3.413  20.129  0.00  0.00    +0.000 A 
ATOM      6  C   UNL     1       2.192   2.388  20.732  0.00  0.00    +0.000 A 
ATOM      7  N   UNL     1       0.964   2.888  21.033  0.00  0.00    +0.000 N 
ATOM      8  N   UNL     1       0.805   4.164  20.672  0.00  0.00    +0.000 NA
ATOM      9  C   UNL     1       1.967   4.513  20.092  0.00  0.00    +0.000 A 
ATOM     10  H   UNL     1       0.184   2.415  21.480  0.00  0.00    +0.000 HD
BRANCH   9  11
ATOM     11  C   UNL     1       2.104   5.843  19.479  0.00  0.00    +0.000 A 
ATOM     12  C   UNL     1       1.895   7.012  20.234  0.00  0.00    +0.000 A 
ATOM     13  C   UNL     1       1.991   8.275  19.638  0.00  0.00    +0.000 A 
ATOM     14  C   UNL     1       2.296   8.371  18.286  0.00  0.00    +0.000 A 
ATOM     15  F   UNL     1       2.389   9.576  17.712  0.00  0.00    +0.000 F 
ATOM     16  C   UNL     1       2.494   7.234  17.519  0.00  0.00    +0.000 A 
ATOM     17  C   UNL     1       2.386   5.973  18.111  0.00  0.00    +0.000 A 
ENDBRANCH   9  11
ENDBRANCH   2   5
BRANCH   3  18
ATOM     18  C   UNL     1       5.997   4.576  18.375  0.00  0.00    +0.000 C 
ATOM     19  C   UNL     1       6.331   5.861  17.658  0.00  0.00    +0.000 C 
ATOM     20  C   UNL     1       6.405   4.557  16.915  0.00  0.00    +0.000 C 
BRANCH  20  21
ATOM     21  C   UNL     1       5.442   4.218  15.819  0.00  0.00    +0.000 C 
BRANCH  21  22
ATOM     22  C   UNL     1       6.053   4.329  14.435  0.00  0.00    +0.000 A 
ATOM     23  C   UNL     1       7.171   5.135  14.179  0.00  0.00    +0.000 A 
ATOM     24  C   UNL     1       7.804   5.100  12.932  0.00  0.00    +0.000 A 
ATOM     25  C   UNL     1       7.314   4.274  11.921  0.00  0.00    +0.000 A 
ATOM     26  C   UNL     1       6.180   3.499  12.149  0.00  0.00    +0.000 A 
ATOM     27  C   UNL     1       5.556   3.524  13.398  0.00  0.00    +0.000 A 
ENDBRANCH  21  22
ENDBRANCH  20  21
ENDBRANCH   3  18
TORSDOF 5
ENDMDL
MODEL 4
REMARK VINA RESULT:      -7.9      4.325      7.971
REMARK  Name = 
REMARK  5 active torsions:
REMARK  status: ('A' for Active; 'I' for Inactive)
REMARK    1  A    between atoms: C_2  and  C_14
REMARK    2  A    between atoms: N_3  and  C_4
REMARK    3  A    between atoms: C_6  and  C_7
REMARK    4  A    between atoms: C_7  and  C_8
REMARK    5  A    between atoms: C_18  and  C_19
REMARK                            x       y       z     vdW  Elec       q    Type
REMARK                         _______ _______ _______ _____ _____    ______ ____
ROOT
ATOM      1  O   UNL     1       3.130   7.984  17.703  0.00  0.00    +0.000 OA
ATOM      2  C   UNL     1       2.459   7.819  18.717  0.00  0.00    +0.000 C 
ATOM      3  N   UNL     1       1.593   8.785  19.208  0.00  0.00    +0.000 N 
ATOM      4  H   UNL     1       1.238   8.654  20.147  0.00  0.00    +0.000 HD
ENDROOT
BRANCH   2   5
ATOM      5  C   UNL     1       2.513   6.606  19.519  0.00  0.00    +0.000 A 
ATOM      6  C   UNL     1       1.728   6.330  20.624  0.00  0.00    +0.000 A 
ATOM      7  N   UNL     1       2.069   5.081  21.039  0.00  0.00    +0.000 N 
ATOM      8  N   UNL     1       3.021   4.513  20.294  0.00  0.00    +0.000 NA
ATOM      9  C   UNL     1       3.334   5.432  19.363  0.00  0.00    +0.000 A 
ATOM     10  H   UNL     1       1.699   4.557  21.826  0.00  0.00    +0.000 HD
BRANCH   9  11
ATOM     11  C   UNL     1       4.436   5.171  18.423  0.00  0.00    +0.000 A 
ATOM     12  C   UNL     1       4.181   4.676  17.131  0.00  0.00    +0.000 A 
ATOM     13  C   UNL     1       5.235   4.395  16.253  0.00  0.00    +0.000 A 
ATOM     14  C   UNL     1       6.543   4.608  16.666  0.00  0.00    +0.000 A 
ATOM     15  F   UNL     1       7.554   4.340  15.830  0.00  0.00    +0.000 F 
ATOM     16  C   UNL     1       6.820   5.083  17.938  0.00  0.00    +0.000 A 
ATOM     17  C   UNL     1       5.769   5.352  18.818  0.00  0.00    +0.000 A 
ENDBRANCH   9  11
ENDBRANCH   2   5
BRANCH   3  18
ATOM     18  C   UNL     1       1.455  10.088  18.626  0.00  0.00    +0.000 C 
ATOM     19  C   UNL     1       1.223  11.259  19.548  0.00  0.00    +0.000 C 
ATOM     20  C   UNL     1       0.163  10.876  18.554  0.00  0.00    +0.000 C 
BRANCH  20  21
ATOM     21  C   UNL     1      -1.151  10.300  18.986  0.00  0.00    +0.000 C 
BRANCH  21  22
ATOM     22  C   UNL     1      -2.234  10.433  17.934  0.00  0.00    +0.000 A 
ATOM     23  C   UNL     1      -3.377  11.221  18.139  0.00  0.00    +0.000 A 
ATOM     24  C   UNL     1      -4.283  11.447  17.097  0.00  0.00    +0.000 A 
ATOM     25  C   UNL     1      -4.067  10.873  15.845  0.00  0.00    +0.000 A 
ATOM     26  C   UNL     1      -2.960  10.055  15.640  0.00  0.00    +0.000 A 
ATOM     27  C   UNL     1      -2.048   9.840  16.675  0.00  0.00    +0.000 A 
ENDBRANCH  21  22
ENDBRANCH  20  21
ENDBRANCH   3  18
TORSDOF 5
ENDMDL
MODEL 5
REMARK VINA RESULT:      -7.9      3.322      7.439
REMARK  Name = 
REMARK  5 active torsions:
REMARK  status: ('A' for Active; 'I' for Inactive)
REMARK    1  A    between atoms: C_2  and  C_14
REMARK    2  A    between atoms: N_3  and  C_4
REMARK    3  A    between atoms: C_6  and  C_7
REMARK    4  A    between atoms: C_7  and  C_8
REMARK    5  A    between atoms: C_18  and  C_19
REMARK                            x       y       z     vdW  Elec       q    Type
REMARK                         _______ _______ _______ _____ _____    ______ ____
ROOT
ATOM      1  O   UNL     1       2.133   5.226  21.152  0.00  0.00    +0.000 OA
ATOM      2  C   UNL     1       2.237   5.657  20.008  0.00  0.00    +0.000 C 
ATOM      3  N   UNL     1       2.078   6.999  19.695  0.00  0.00    +0.000 N 
ATOM      4  H   UNL     1       1.977   7.236  18.716  0.00  0.00    +0.000 HD
ENDROOT
BRANCH   2   5
ATOM      5  C   UNL     1       2.518   4.807  18.860  0.00  0.00    +0.000 A 
ATOM      6  C   UNL     1       1.658   3.870  18.317  0.00  0.00    +0.000 A 
ATOM      7  N   UNL     1       2.294   3.340  17.239  0.00  0.00    +0.000 N 
ATOM      8  N   UNL     1       3.509   3.855  17.030  0.00  0.00    +0.000 NA
ATOM      9  C   UNL     1       3.689   4.745  18.022  0.00  0.00    +0.000 A 
ATOM     10  H   UNL     1       1.962   2.621  16.603  0.00  0.00    +0.000 HD
BRANCH   9  11
ATOM     11  C   UNL     1       4.982   5.433  18.157  0.00  0.00    +0.000 A 
ATOM     12  C   UNL     1       5.361   6.442  17.252  0.00  0.00    +0.000 A 
ATOM     13  C   UNL     1       6.608   7.069  17.363  0.00  0.00    +0.000 A 
ATOM     14  C   UNL     1       7.476   6.689  18.378  0.00  0.00    +0.000 A 
ATOM     15  F   UNL     1       8.669   7.286  18.487  0.00  0.00    +0.000 F 
ATOM     16  C   UNL     1       7.130   5.691  19.274  0.00  0.00    +0.000 A 
ATOM     17  C   UNL     1       5.891   5.056  19.156  0.00  0.00    +0.000 A 
ENDBRANCH   9  11
ENDBRANCH   2   5
BRANCH   3  18
ATOM     18  C   UNL     1       1.707   7.993  20.658  0.00  0.00    +0.000 C 
ATOM     19  C   UNL     1       0.238   8.221  20.917  0.00  0.00    +0.000 C 
ATOM     20  C   UNL     1       1.067   9.327  20.328  0.00  0.00    +0.000 C 
BRANCH  20  21
ATOM     21  C   UNL     1       0.871   9.794  18.918  0.00  0.00    +0.000 C 
BRANCH  21  22
ATOM     22  C   UNL     1      -0.475  10.454  18.691  0.00  0.00    +0.000 A 
ATOM     23  C   UNL     1      -1.358  10.018  17.693  0.00  0.00    +0.000 A 
ATOM     24  C   UNL     1      -2.652  10.544  17.606  0.00  0.00    +0.000 A 
ATOM     25  C   UNL     1      -3.070  11.525  18.504  0.00  0.00    +0.000 A 
ATOM     26  C   UNL     1      -2.190  11.997  19.473  0.00  0.00    +0.000 A 
ATOM     27  C   UNL     1      -0.904  11.462  19.569  0.00  0.00    +0.000 A 
ENDBRANCH  21  22
ENDBRANCH  20  21
ENDBRANCH   3  18
TORSDOF 5
ENDMDL
MODEL 6
REMARK VINA RESULT:      -7.9      3.071      7.262
REMARK  Name = 
REMARK  5 active torsions:
REMARK  status: ('A' for Active; 'I' for Inactive)
REMARK    1  A    between atoms: C_2  and  C_14
REMARK    2  A    between atoms: N_3  and  C_4
REMARK    3  A    between atoms: C_6  and  C_7
REMARK    4  A    between atoms: C_7  and  C_8
REMARK    5  A    between atoms: C_18  and  C_19
REMARK                            x       y       z     vdW  Elec       q    Type
REMARK                         _______ _______ _______ _____ _____    ______ ____
ROOT
ATOM      1  O   UNL     1       3.805   4.393  17.078  0.00  0.00    +0.000 OA
ATOM      2  C   UNL     1       4.614   5.230  17.466  0.00  0.00    +0.000 C 
ATOM      3  N   UNL     1       4.258   6.540  17.752  0.00  0.00    +0.000 N 
ATOM      4  H   UNL     1       5.009   7.209  17.867  0.00  0.00    +0.000 HD
ENDROOT
BRANCH   2   5
ATOM      5  C   UNL     1       6.029   4.945  17.649  0.00  0.00    +0.000 A 
ATOM      6  C   UNL     1       6.705   4.941  18.856  0.00  0.00    +0.000 A 
ATOM      7  N   UNL     1       7.986   4.581  18.581  0.00  0.00    +0.000 N 
ATOM      8  N   UNL     1       8.209   4.350  17.284  0.00  0.00    +0.000 NA
ATOM      9  C   UNL     1       7.032   4.586  16.678  0.00  0.00    +0.000 A 
ATOM     10  H   UNL     1       8.764   4.479  19.226  0.00  0.00    +0.000 HD
BRANCH   9  11
ATOM     11  C   UNL     1       6.942   4.523  15.211  0.00  0.00    +0.000 A 
ATOM     12  C   UNL     1       6.022   3.667  14.579  0.00  0.00    +0.000 A 
ATOM     13  C   UNL     1       5.965   3.583  13.183  0.00  0.00    +0.000 A 
ATOM     14  C   UNL     1       6.829   4.355  12.417  0.00  0.00    +0.000 A 
ATOM     15  F   UNL     1       6.779   4.278  11.082  0.00  0.00    +0.000 F 
ATOM     16  C   UNL     1       7.753   5.197  13.016  0.00  0.00    +0.000 A 
ATOM     17  C   UNL     1       7.818   5.271  14.410  0.00  0.00    +0.000 A 
ENDBRANCH   9  11
ENDBRANCH   2   5
BRANCH   3  18
ATOM     18  C   UNL     1       2.937   7.058  17.552  0.00  0.00    +0.000 C 
ATOM     19  C   UNL     1       2.615   8.423  18.109  0.00  0.00    +0.000 C 
ATOM     20  C   UNL     1       1.891   7.216  18.638  0.00  0.00    +0.000 C 
BRANCH  20  21
ATOM     21  C   UNL     1       2.105   6.719  20.035  0.00  0.00    +0.000 C 
BRANCH  21  22
ATOM     22  C   UNL     1       1.819   5.238  20.190  0.00  0.00    +0.000 A 
ATOM     23  C   UNL     1       1.244   4.481  19.159  0.00  0.00    +0.000 A 
ATOM     24  C   UNL     1       1.132   3.091  19.273  0.00  0.00    +0.000 A 
ATOM     25  C   UNL     1       1.575   2.445  20.427  0.00  0.00    +0.000 A 
ATOM     26  C   UNL     1       2.109   3.190  21.475  0.00  0.00    +0.000 A 
ATOM     27  C   UNL     1       2.234   4.575  21.355  0.00  0.00    +0.000 A 
ENDBRANCH  21  22
ENDBRANCH  20  21
ENDBRANCH   3  18
TORSDOF 5
ENDMDL
MODEL 7
REMARK VINA RESULT:      -7.9      1.426      2.009
REMARK  Name = 
REMARK  5 active torsions:
REMARK  status: ('A' for Active; 'I' for Inactive)
REMARK    1  A    between atoms: C_2  and  C_14
REMARK    2  A    between atoms: N_3  and  C_4
REMARK    3  A    between atoms: C_6  and  C_7
REMARK    4  A    between atoms: C_7  and  C_8
REMARK    5  A    between atoms: C_18  and  C_19
REMARK                            x       y       z     vdW  Elec       q    Type
REMARK                         _______ _______ _______ _____ _____    ______ ____
ROOT
ATOM      1  O   UNL     1       4.851   3.154  17.876  0.00  0.00    +0.000 OA
ATOM      2  C   UNL     1       4.764   3.892  18.852  0.00  0.00    +0.000 C 
ATOM      3  N   UNL     1       5.773   4.769  19.221  0.00  0.00    +0.000 N 
ATOM      4  H   UNL     1       5.710   5.186  20.141  0.00  0.00    +0.000 HD
ENDROOT
BRANCH   2   5
ATOM      5  C   UNL     1       3.607   3.912  19.735  0.00  0.00    +0.000 A 
ATOM      6  C   UNL     1       3.183   2.868  20.537  0.00  0.00    +0.000 A 
ATOM      7  N   UNL     1       2.102   3.323  21.225  0.00  0.00    +0.000 N 
ATOM      8  N   UNL     1       1.780   4.586  20.936  0.00  0.00    +0.000 NA
ATOM      9  C   UNL     1       2.670   4.973  20.005  0.00  0.00    +0.000 A 
ATOM     10  H   UNL     1       1.533   2.826  21.903  0.00  0.00    +0.000 HD
BRANCH   9  11
ATOM     11  C   UNL     1       2.542   6.299  19.381  0.00  0.00    +0.000 A 
ATOM     12  C   UNL     1       1.899   7.355  20.052  0.00  0.00    +0.000 A 
ATOM     13  C   UNL     1       1.747   8.604  19.439  0.00  0.00    +0.000 A 
ATOM     14  C   UNL     1       2.239   8.800  18.156  0.00  0.00    +0.000 A 
ATOM     15  F   UNL     1       2.096   9.992  17.565  0.00  0.00    +0.000 F 
ATOM     16  C   UNL     1       2.866   7.772  17.469  0.00  0.00    +0.000 A 
ATOM     17  C   UNL     1       3.006   6.521  18.076  0.00  0.00    +0.000 A 
ENDBRANCH   9  11
ENDBRANCH   2   5
BRANCH   3  18
ATOM     18  C   UNL     1       7.036   4.845  18.547  0.00  0.00    +0.000 C 
ATOM     19  C   UNL     1       7.624   6.210  18.288  0.00  0.00    +0.000 C 
ATOM     20  C   UNL     1       7.235   5.337  17.128  0.00  0.00    +0.000 C 
BRANCH  20  21
ATOM     21  C   UNL     1       6.086   5.684  16.231  0.00  0.00    +0.000 C 
BRANCH  21  22
ATOM     22  C   UNL     1       6.225   5.109  14.835  0.00  0.00    +0.000 A 
ATOM     23  C   UNL     1       7.350   5.362  14.037  0.00  0.00    +0.000 A 
ATOM     24  C   UNL     1       7.522   4.697  12.817  0.00  0.00    +0.000 A 
ATOM     25  C   UNL     1       6.561   3.789  12.373  0.00  0.00    +0.000 A 
ATOM     26  C   UNL     1       5.420   3.561  13.137  0.00  0.00    +0.000 A 
ATOM     27  C   UNL     1       5.255   4.213  14.360  0.00  0.00    +0.000 A 
ENDBRANCH  21  22
ENDBRANCH  20  21
ENDBRANCH   3  18
TORSDOF 5
ENDMDL
MODEL 8
REMARK VINA RESULT:      -7.9      3.733      7.811
REMARK  Name = 
REMARK  5 active torsions:
REMARK  status: ('A' for Active; 'I' for Inactive)
REMARK    1  A    between atoms: C_2  and  C_14
REMARK    2  A    between atoms: N_3  and  C_4
REMARK    3  A    between atoms: C_6  and  C_7
REMARK    4  A    between atoms: C_7  and  C_8
REMARK    5  A    between atoms: C_18  and  C_19
REMARK                            x       y       z     vdW  Elec       q    Type
REMARK                         _______ _______ _______ _____ _____    ______ ____
ROOT
ATOM      1  O   UNL     1       4.343   7.251  16.192  0.00  0.00    +0.000 OA
ATOM      2  C   UNL     1       4.241   6.877  17.356  0.00  0.00    +0.000 C 
ATOM      3  N   UNL     1       3.218   7.298  18.192  0.00  0.00    +0.000 N 
ATOM      4  H   UNL     1       3.321   7.109  19.181  0.00  0.00    +0.000 HD
ENDROOT
BRANCH   2   5
ATOM      5  C   UNL     1       5.190   5.970  17.987  0.00  0.00    +0.000 A 
ATOM      6  C   UNL     1       6.545   6.199  18.146  0.00  0.00    +0.000 A 
ATOM      7  N   UNL     1       7.041   5.128  18.820  0.00  0.00    +0.000 N 
ATOM      8  N   UNL     1       6.117   4.209  19.116  0.00  0.00    +0.000 NA
ATOM      9  C   UNL     1       4.971   4.684  18.598  0.00  0.00    +0.000 A 
ATOM     10  H   UNL     1       7.999   4.954  19.107  0.00  0.00    +0.000 HD
BRANCH   9  11
ATOM     11  C   UNL     1       3.751   3.863  18.654  0.00  0.00    +0.000 A 
ATOM     12  C   UNL     1       3.523   2.842  17.714  0.00  0.00    +0.000 A 
ATOM     13  C   UNL     1       2.345   2.087  17.749  0.00  0.00    +0.000 A 
ATOM     14  C   UNL     1       1.393   2.352  18.726  0.00  0.00    +0.000 A 
ATOM     15  F   UNL     1       0.265   1.634  18.764  0.00  0.00    +0.000 F 
ATOM     16  C   UNL     1       1.589   3.360  19.656  0.00  0.00    +0.000 A 
ATOM     17  C   UNL     1       2.760   4.122  19.613  0.00  0.00    +0.000 A 
ENDBRANCH   9  11
ENDBRANCH   2   5
BRANCH   3  18
ATOM     18  C   UNL     1       2.231   8.262  17.803  0.00  0.00    +0.000 C 
ATOM     19  C   UNL     1       2.484   9.713  18.128  0.00  0.00    +0.000 C 
ATOM     20  C   UNL     1       1.318   9.004  18.758  0.00  0.00    +0.000 C 
BRANCH  20  21
ATOM     21  C   UNL     1       1.277   8.704  20.225  0.00  0.00    +0.000 C 
BRANCH  21  22
ATOM     22  C   UNL     1       0.322   9.598  20.990  0.00  0.00    +0.000 A 
ATOM     23  C   UNL     1      -0.041   9.334  22.318  0.00  0.00    +0.000 A 
ATOM     24  C   UNL     1      -0.802  10.256  23.046  0.00  0.00    +0.000 A 
ATOM     25  C   UNL     1      -1.224  11.442  22.448  0.00  0.00    +0.000 A 
ATOM     26  C   UNL     1      -0.906  11.698  21.117  0.00  0.00    +0.000 A 
ATOM     27  C   UNL     1      -0.136  10.785  20.395  0.00  0.00    +0.000 A 
ENDBRANCH  21  22
ENDBRANCH  20  21
ENDBRANCH   3  18
TORSDOF 5
ENDMDL
MODEL 9
REMARK VINA RESULT:      -7.8      1.434      1.797
REMARK  Name = 
REMARK  5 active torsions:
REMARK  status: ('A' for Active; 'I' for Inactive)
REMARK    1  A    between atoms: C_2  and  C_14
REMARK    2  A    between atoms: N_3  and  C_4
REMARK    3  A    between atoms: C_6  and  C_7
REMARK    4  A    between atoms: C_7  and  C_8
REMARK    5  A    between atoms: C_18  and  C_19
REMARK                            x       y       z     vdW  Elec       q    Type
REMARK                         _______ _______ _______ _____ _____    ______ ____
ROOT
ATOM      1  O   UNL     1       4.766   2.929  18.003  0.00  0.00    +0.000 OA
ATOM      2  C   UNL     1       4.688   3.739  18.922  0.00  0.00    +0.000 C 
ATOM      3  N   UNL     1       5.692   4.653  19.202  0.00  0.00    +0.000 N 
ATOM      4  H   UNL     1       5.641   5.139  20.089  0.00  0.00    +0.000 HD
ENDROOT
BRANCH   2   5
ATOM      5  C   UNL     1       3.548   3.812  19.823  0.00  0.00    +0.000 A 
ATOM      6  C   UNL     1       3.128   2.812  20.681  0.00  0.00    +0.000 A 
ATOM      7  N   UNL     1       2.066   3.311  21.366  0.00  0.00    +0.000 N 
ATOM      8  N   UNL     1       1.751   4.563  21.025  0.00  0.00    +0.000 NA
ATOM      9  C   UNL     1       2.628   4.896  20.061  0.00  0.00    +0.000 A 
ATOM     10  H   UNL     1       1.504   2.852  22.078  0.00  0.00    +0.000 HD
BRANCH   9  11
ATOM     11  C   UNL     1       2.502   6.193  19.378  0.00  0.00    +0.000 A 
ATOM     12  C   UNL     1       3.015   6.379  18.081  0.00  0.00    +0.000 A 
ATOM     13  C   UNL     1       2.925   7.625  17.449  0.00  0.00    +0.000 A 
ATOM     14  C   UNL     1       2.321   8.685  18.112  0.00  0.00    +0.000 A 
ATOM     15  F   UNL     1       2.233   9.878  17.513  0.00  0.00    +0.000 F 
ATOM     16  C   UNL     1       1.819   8.530  19.395  0.00  0.00    +0.000 A 
ATOM     17  C   UNL     1       1.920   7.289  20.030  0.00  0.00    +0.000 A 
ENDBRANCH   9  11
ENDBRANCH   2   5
BRANCH   3  18
ATOM     18  C   UNL     1       6.940   4.692  18.499  0.00  0.00    +0.000 C 
ATOM     19  C   UNL     1       7.468   6.035  18.058  0.00  0.00    +0.000 C 
ATOM     20  C   UNL     1       7.099   5.008  17.025  0.00  0.00    +0.000 C 
BRANCH  20  21
ATOM     21  C   UNL     1       5.923   5.193  16.115  0.00  0.00    +0.000 C 
BRANCH  21  22
ATOM     22  C   UNL     1       6.232   4.863  14.668  0.00  0.00    +0.000 A 
ATOM     23  C   UNL     1       7.369   5.366  14.018  0.00  0.00    +0.000 A 
ATOM     24  C   UNL     1       7.709   4.925  12.735  0.00  0.00    +0.000 A 
ATOM     25  C   UNL     1       6.907   3.992  12.079  0.00  0.00    +0.000 A 
ATOM     26  C   UNL     1       5.753   3.517  12.696  0.00  0.00    +0.000 A 
ATOM     27  C   UNL     1       5.421   3.946  13.982  0.00  0.00    +0.000 A 
ENDBRANCH  21  22
ENDBRANCH  20  21
ENDBRANCH   3  18
TORSDOF 5
ENDMDL
