MODEL 1
REMARK VINA RESULT:      -7.9      0.000      0.000
REMARK  Name = 
REMARK  9 active torsions:
REMARK  status: ('A' for Active; 'I' for Inactive)
REMARK    1  A    between atoms: C_1  and  C_2
REMARK    2  A    between atoms: C_4  and  C_5
REMARK    3  A    between atoms: N_7  and  C_8
REMARK    4  A    between atoms: C_12  and  C_13
REMARK    5  A    between atoms: C_14  and  O_15
REMARK    6  A    between atoms: O_15  and  C_16
REMARK    7  A    between atoms: C_16  and  C_17
REMARK    8  A    between atoms: N_21  and  C_22
REMARK    9  A    between atoms: C_25  and  C_26
REMARK                            x       y       z     vdW  Elec       q    Type
REMARK                         _______ _______ _______ _____ _____    ______ ____
ROOT
ATOM      1  C   UNL     1       1.455   9.960  18.143  0.00  0.00    +0.000 A 
ATOM      2  C   UNL     1       2.267  11.098  18.138  0.00  0.00    +0.000 A 
ATOM      3  C   UNL     1       1.766  12.348  18.508  0.00  0.00    +0.000 A 
ATOM      4  C   UNL     1       0.431  12.489  18.871  0.00  0.00    +0.000 A 
ATOM      5  C   UNL     1      -0.432  11.388  18.851  0.00  0.00    +0.000 A 
ATOM      6  C   UNL     1       0.090  10.125  18.473  0.00  0.00    +0.000 A 
ENDROOT
BRANCH   1   9
ATOM      7  C   UNL     1       2.314   7.683  18.732  0.00  0.00    +0.000 C 
ATOM      8  O   UNL     1       2.170   7.755  19.948  0.00  0.00    +0.000 OA
ATOM      9  N   UNL     1       1.956   8.669  17.808  0.00  0.00    +0.000 N 
ATOM     10  H   UNL     1       1.923   8.418  16.831  0.00  0.00    +0.000 HD
BRANCH   7  14
ATOM     11  C   UNL     1       2.128   2.715  17.832  0.00  0.00    +0.000 C 
ATOM     12  C   UNL     1       2.777   4.064  17.777  0.00  0.00    +0.000 A 
ATOM     13  C   UNL     1       2.210   5.187  18.355  0.00  0.00    +0.000 A 
ATOM     14  C   UNL     1       2.880   6.402  18.208  0.00  0.00    +0.000 A 
ATOM     15  C   UNL     1       4.076   6.451  17.465  0.00  0.00    +0.000 A 
ATOM     16  C   UNL     1       4.592   5.286  16.915  0.00  0.00    +0.000 A 
ATOM     17  N   UNL     1       3.943   4.111  17.094  0.00  0.00    +0.000 NA
BRANCH  16  18
ATOM     18  C   UNL     1       5.848   5.182  16.078  0.00  0.00    +0.000 C 
ATOM     19  C   UNL     1       5.644   4.970  14.590  0.00  0.00    +0.000 C 
ATOM     20  C   UNL     1       6.427   3.976  15.390  0.00  0.00    +0.000 C 
ENDBRANCH  16  18
ENDBRANCH   7  14
ENDBRANCH   1   9
BRANCH   5  21
ATOM     21  C   UNL     1      -1.877  11.567  19.114  0.00  0.00    +0.000 C 
ATOM     22  C   UNL     1      -2.407  12.324  20.090  0.00  0.00    +0.000 C 
BRANCH  22  23
ATOM     23  O   UNL     1      -3.763  12.539  20.178  0.00  0.00    +0.000 OA
BRANCH  23  24
ATOM     24  C   UNL     1      -4.101  13.658  21.009  0.00  0.00    +0.000 C 
BRANCH  24  25
ATOM     25  C   UNL     1      -4.340  13.145  22.388  0.00  0.00    +0.000 A 
ATOM     26  N   UNL     1      -5.384  12.440  22.785  0.00  0.00    +0.000 NA
ATOM     27  N   UNL     1      -5.216  12.129  24.114  0.00  0.00    +0.000 NA
ATOM     28  C   UNL     1      -4.074  12.642  24.501  0.00  0.00    +0.000 A 
ATOM     29  N   UNL     1      -3.484  13.281  23.451  0.00  0.00    +0.000 N 
ATOM     30  C   UNL     1      -2.207  13.938  23.483  0.00  0.00    +0.000 C 
ENDBRANCH  24  25
ENDBRANCH  23  24
ENDBRANCH  22  23
ENDBRANCH   5  21
TORSDOF 7
ENDMDL
MODEL 2
REMARK VINA RESULT:      -7.8      2.111      3.235
REMARK  Name = 
REMARK  9 active torsions:
REMARK  status: ('A' for Active; 'I' for Inactive)
REMARK    1  A    between atoms: C_1  and  C_2
REMARK    2  A    between atoms: C_4  and  C_5
REMARK    3  A    between atoms: N_7  and  C_8
REMARK    4  A    between atoms: C_12  and  C_13
REMARK    5  A    between atoms: C_14  and  O_15
REMARK    6  A    between atoms: O_15  and  C_16
REMARK    7  A    between atoms: C_16  and  C_17
REMARK    8  A    between atoms: N_21  and  C_22
REMARK    9  A    between atoms: C_25  and  C_26
REMARK                            x       y       z     vdW  Elec       q    Type
REMARK                         _______ _______ _______ _____ _____    ______ ____
ROOT
ATOM      1  C   UNL     1       0.946   9.713  18.026  0.00  0.00    +0.000 A 
ATOM      2  C   UNL     1       1.529  10.891  18.499  0.00  0.00    +0.000 A 
ATOM      3  C   UNL     1       0.748  11.980  18.891  0.00  0.00    +0.000 A 
ATOM      4  C   UNL     1      -0.638  11.920  18.794  0.00  0.00    +0.000 A 
ATOM      5  C   UNL     1      -1.267  10.778  18.286  0.00  0.00    +0.000 A 
ATOM      6  C   UNL     1      -0.462   9.680  17.892  0.00  0.00    +0.000 A 
ENDROOT
BRANCH   1   9
ATOM      7  C   UNL     1       2.277   7.659  18.558  0.00  0.00    +0.000 C 
ATOM      8  O   UNL     1       2.106   7.655  19.773  0.00  0.00    +0.000 OA
ATOM      9  N   UNL     1       1.723   8.575  17.659  0.00  0.00    +0.000 N 
ATOM     10  H   UNL     1       1.757   8.357  16.674  0.00  0.00    +0.000 HD
BRANCH   7  14
ATOM     11  C   UNL     1       6.577   5.772  16.696  0.00  0.00    +0.000 C 
ATOM     12  C   UNL     1       5.150   5.670  17.141  0.00  0.00    +0.000 A 
ATOM     13  C   UNL     1       4.425   6.768  17.573  0.00  0.00    +0.000 A 
ATOM     14  C   UNL     1       3.117   6.553  18.005  0.00  0.00    +0.000 A 
ATOM     15  C   UNL     1       2.593   5.245  18.014  0.00  0.00    +0.000 A 
ATOM     16  C   UNL     1       3.373   4.189  17.563  0.00  0.00    +0.000 A 
ATOM     17  N   UNL     1       4.632   4.422  17.119  0.00  0.00    +0.000 NA
BRANCH  16  18
ATOM     18  C   UNL     1       2.963   2.734  17.532  0.00  0.00    +0.000 C 
ATOM     19  C   UNL     1       2.235   2.218  18.759  0.00  0.00    +0.000 C 
ATOM     20  C   UNL     1       3.516   1.578  18.320  0.00  0.00    +0.000 C 
ENDBRANCH  16  18
ENDBRANCH   7  14
ENDBRANCH   1   9
BRANCH   5  21
ATOM     21  C   UNL     1      -2.731  10.767  18.067  0.00  0.00    +0.000 C 
ATOM     22  C   UNL     1      -3.371  11.352  17.040  0.00  0.00    +0.000 C 
BRANCH  22  23
ATOM     23  O   UNL     1      -4.722  11.178  16.842  0.00  0.00    +0.000 OA
BRANCH  23  24
ATOM     24  C   UNL     1      -5.506  12.280  17.317  0.00  0.00    +0.000 C 
BRANCH  24  25
ATOM     25  C   UNL     1      -6.140  11.867  18.602  0.00  0.00    +0.000 A 
ATOM     26  N   UNL     1      -7.118  10.991  18.740  0.00  0.00    +0.000 NA
ATOM     27  N   UNL     1      -7.396  10.860  20.080  0.00  0.00    +0.000 NA
ATOM     28  C   UNL     1      -6.582  11.651  20.734  0.00  0.00    +0.000 A 
ATOM     29  N   UNL     1      -5.769  12.297  19.850  0.00  0.00    +0.000 N 
ATOM     30  C   UNL     1      -4.725  13.222  20.196  0.00  0.00    +0.000 C 
ENDBRANCH  24  25
ENDBRANCH  23  24
ENDBRANCH  22  23
ENDBRANCH   5  21
TORSDOF 7
ENDMDL
MODEL 3
REMARK VINA RESULT:      -7.8      3.329     11.070
REMARK  Name = 
REMARK  9 active torsions:
REMARK  status: ('A' for Active; 'I' for Inactive)
REMARK    1  A    between atoms: C_1  and  C_2
REMARK    2  A    between atoms: C_4  and  C_5
REMARK    3  A    between atoms: N_7  and  C_8
REMARK    4  A    between atoms: C_12  and  C_13
REMARK    5  A    between atoms: C_14  and  O_15
REMARK    6  A    between atoms: O_15  and  C_16
REMARK    7  A    between atoms: C_16  and  C_17
REMARK    8  A    between atoms: N_21  and  C_22
REMARK    9  A    between atoms: C_25  and  C_26
REMARK                            x       y       z     vdW  Elec       q    Type
REMARK                         _______ _______ _______ _____ _____    ______ ____
ROOT
ATOM      1  C   UNL     1       2.263   7.046  19.569  0.00  0.00    +0.000 A 
ATOM      2  C   UNL     1       1.914   6.067  20.504  0.00  0.00    +0.000 A 
ATOM      3  C   UNL     1       2.560   4.829  20.532  0.00  0.00    +0.000 A 
ATOM      4  C   UNL     1       3.556   4.536  19.607  0.00  0.00    +0.000 A 
ATOM      5  C   UNL     1       3.912   5.467  18.625  0.00  0.00    +0.000 A 
ATOM      6  C   UNL     1       3.248   6.720  18.608  0.00  0.00    +0.000 A 
ENDROOT
BRANCH   1   9
ATOM      7  C   UNL     1       1.579   9.171  18.434  0.00  0.00    +0.000 C 
ATOM      8  O   UNL     1       1.965   8.892  17.304  0.00  0.00    +0.000 OA
ATOM      9  N   UNL     1       1.645   8.330  19.549  0.00  0.00    +0.000 N 
ATOM     10  H   UNL     1       1.110   8.580  20.367  0.00  0.00    +0.000 HD
BRANCH   7  14
ATOM     11  C   UNL     1      -2.387  12.216  19.147  0.00  0.00    +0.000 C 
ATOM     12  C   UNL     1      -0.928  11.939  18.953  0.00  0.00    +0.000 A 
ATOM     13  C   UNL     1      -0.436  10.664  18.730  0.00  0.00    +0.000 A 
ATOM     14  C   UNL     1       0.945  10.514  18.604  0.00  0.00    +0.000 A 
ATOM     15  C   UNL     1       1.782  11.640  18.733  0.00  0.00    +0.000 A 
ATOM     16  C   UNL     1       1.222  12.891  18.953  0.00  0.00    +0.000 A 
ATOM     17  N   UNL     1      -0.124  13.021  19.042  0.00  0.00    +0.000 NA
BRANCH  16  18
ATOM     18  C   UNL     1       1.985  14.184  19.134  0.00  0.00    +0.000 C 
ATOM     19  C   UNL     1       2.934  14.563  18.013  0.00  0.00    +0.000 C 
ATOM     20  C   UNL     1       3.450  14.386  19.407  0.00  0.00    +0.000 C 
ENDBRANCH  16  18
ENDBRANCH   7  14
ENDBRANCH   1   9
BRANCH   5  21
ATOM     21  C   UNL     1       4.880   5.104  17.567  0.00  0.00    +0.000 C 
ATOM     22  C   UNL     1       6.128   4.649  17.772  0.00  0.00    +0.000 C 
BRANCH  22  23
ATOM     23  O   UNL     1       6.913   4.209  16.731  0.00  0.00    +0.000 OA
BRANCH  23  24
ATOM     24  C   UNL     1       6.166   3.951  15.535  0.00  0.00    +0.000 C 
BRANCH  24  25
ATOM     25  C   UNL     1       6.900   4.575  14.397  0.00  0.00    +0.000 A 
ATOM     26  N   UNL     1       7.852   5.486  14.491  0.00  0.00    +0.000 NA
ATOM     27  N   UNL     1       8.300   5.777  13.225  0.00  0.00    +0.000 NA
ATOM     28  C   UNL     1       7.619   5.038  12.383  0.00  0.00    +0.000 A 
ATOM     29  N   UNL     1       6.736   4.262  13.072  0.00  0.00    +0.000 N 
ATOM     30  C   UNL     1       5.840   3.298  12.493  0.00  0.00    +0.000 C 
ENDBRANCH  24  25
ENDBRANCH  23  24
ENDBRANCH  22  23
ENDBRANCH   5  21
TORSDOF 7
ENDMDL
MODEL 4
REMARK VINA RESULT:      -7.7      3.005     11.369
REMARK  Name = 
REMARK  9 active torsions:
REMARK  status: ('A' for Active; 'I' for Inactive)
REMARK    1  A    between atoms: C_1  and  C_2
REMARK    2  A    between atoms: C_4  and  C_5
REMARK    3  A    between atoms: N_7  and  C_8
REMARK    4  A    between atoms: C_12  and  C_13
REMARK    5  A    between atoms: C_14  and  O_15
REMARK    6  A    between atoms: O_15  and  C_16
REMARK    7  A    between atoms: C_16  and  C_17
REMARK    8  A    between atoms: N_21  and  C_22
REMARK    9  A    between atoms: C_25  and  C_26
REMARK                            x       y       z     vdW  Elec       q    Type
REMARK                         _______ _______ _______ _____ _____    ______ ____
ROOT
ATOM      1  C   UNL     1       2.193   6.318  20.121  0.00  0.00    +0.000 A 
ATOM      2  C   UNL     1       1.707   5.251  20.881  0.00  0.00    +0.000 A 
ATOM      3  C   UNL     1       2.164   3.947  20.675  0.00  0.00    +0.000 A 
ATOM      4  C   UNL     1       3.103   3.680  19.685  0.00  0.00    +0.000 A 
ATOM      5  C   UNL     1       3.588   4.709  18.870  0.00  0.00    +0.000 A 
ATOM      6  C   UNL     1       3.115   6.027  19.089  0.00  0.00    +0.000 A 
ENDROOT
BRANCH   1   9
ATOM      7  C   UNL     1       1.565   8.612  19.338  0.00  0.00    +0.000 C 
ATOM      8  O   UNL     1       1.636   8.406  18.130  0.00  0.00    +0.000 OA
ATOM      9  N   UNL     1       1.770   7.661  20.341  0.00  0.00    +0.000 N 
ATOM     10  H   UNL     1       1.479   7.889  21.280  0.00  0.00    +0.000 HD
BRANCH   7  14
ATOM     11  C   UNL     1       1.017  13.566  18.515  0.00  0.00    +0.000 C 
ATOM     12  C   UNL     1       0.911  12.326  19.348  0.00  0.00    +0.000 A 
ATOM     13  C   UNL     1       1.364  11.093  18.909  0.00  0.00    +0.000 A 
ATOM     14  C   UNL     1       1.178   9.996  19.750  0.00  0.00    +0.000 A 
ATOM     15  C   UNL     1       0.523  10.169  20.985  0.00  0.00    +0.000 A 
ATOM     16  C   UNL     1       0.097  11.434  21.366  0.00  0.00    +0.000 A 
ATOM     17  N   UNL     1       0.314  12.493  20.549  0.00  0.00    +0.000 NA
BRANCH  16  18
ATOM     18  C   UNL     1      -0.636  11.776  22.644  0.00  0.00    +0.000 C 
ATOM     19  C   UNL     1      -2.150  11.803  22.560  0.00  0.00    +0.000 C 
ATOM     20  C   UNL     1      -1.399  13.024  22.991  0.00  0.00    +0.000 C 
ENDBRANCH  16  18
ENDBRANCH   7  14
ENDBRANCH   1   9
BRANCH   5  21
ATOM     21  C   UNL     1       4.489   4.401  17.736  0.00  0.00    +0.000 C 
ATOM     22  C   UNL     1       5.822   4.573  17.729  0.00  0.00    +0.000 C 
BRANCH  22  23
ATOM     23  O   UNL     1       6.597   4.135  16.680  0.00  0.00    +0.000 OA
BRANCH  23  24
ATOM     24  C   UNL     1       5.881   4.075  15.439  0.00  0.00    +0.000 C 
BRANCH  24  25
ATOM     25  C   UNL     1       6.766   4.630  14.375  0.00  0.00    +0.000 A 
ATOM     26  N   UNL     1       7.726   5.520  14.549  0.00  0.00    +0.000 NA
ATOM     27  N   UNL     1       8.332   5.745  13.336  0.00  0.00    +0.000 NA
ATOM     28  C   UNL     1       7.736   4.988  12.447  0.00  0.00    +0.000 A 
ATOM     29  N   UNL     1       6.753   4.264  13.054  0.00  0.00    +0.000 N 
ATOM     30  C   UNL     1       5.905   3.300  12.408  0.00  0.00    +0.000 C 
ENDBRANCH  24  25
ENDBRANCH  23  24
ENDBRANCH  22  23
ENDBRANCH   5  21
TORSDOF 7
ENDMDL
MODEL 5
REMARK VINA RESULT:      -7.7      2.074      3.486
REMARK  Name = 
REMARK  9 active torsions:
REMARK  status: ('A' for Active; 'I' for Inactive)
REMARK    1  A    between atoms: C_1  and  C_2
REMARK    2  A    between atoms: C_4  and  C_5
REMARK    3  A    between atoms: N_7  and  C_8
REMARK    4  A    between atoms: C_12  and  C_13
REMARK    5  A    between atoms: C_14  and  O_15
REMARK    6  A    between atoms: O_15  and  C_16
REMARK    7  A    between atoms: C_16  and  C_17
REMARK    8  A    between atoms: N_21  and  C_22
REMARK    9  A    between atoms: C_25  and  C_26
REMARK                            x       y       z     vdW  Elec       q    Type
REMARK                         _______ _______ _______ _____ _____    ______ ____
ROOT
ATOM      1  C   UNL     1       1.309  10.415  18.756  0.00  0.00    +0.000 A 
ATOM      2  C   UNL     1       1.943  11.526  18.192  0.00  0.00    +0.000 A 
ATOM      3  C   UNL     1       1.503  12.824  18.458  0.00  0.00    +0.000 A 
ATOM      4  C   UNL     1       0.401  13.037  19.279  0.00  0.00    +0.000 A 
ATOM      5  C   UNL     1      -0.293  11.956  19.833  0.00  0.00    +0.000 A 
ATOM      6  C   UNL     1       0.164  10.643  19.554  0.00  0.00    +0.000 A 
ENDROOT
BRANCH   1   9
ATOM      7  C   UNL     1       1.952   8.120  19.525  0.00  0.00    +0.000 C 
ATOM      8  O   UNL     1       1.671   8.253  20.711  0.00  0.00    +0.000 OA
ATOM      9  N   UNL     1       1.767   9.084  18.530  0.00  0.00    +0.000 N 
ATOM     10  H   UNL     1       1.833   8.793  17.565  0.00  0.00    +0.000 HD
BRANCH   7  14
ATOM     11  C   UNL     1       4.766   5.108  16.605  0.00  0.00    +0.000 C 
ATOM     12  C   UNL     1       3.835   5.379  17.747  0.00  0.00    +0.000 A 
ATOM     13  C   UNL     1       3.322   6.639  18.005  0.00  0.00    +0.000 A 
ATOM     14  C   UNL     1       2.497   6.789  19.119  0.00  0.00    +0.000 A 
ATOM     15  C   UNL     1       2.240   5.679  19.948  0.00  0.00    +0.000 A 
ATOM     16  C   UNL     1       2.783   4.442  19.629  0.00  0.00    +0.000 A 
ATOM     17  N   UNL     1       3.558   4.310  18.525  0.00  0.00    +0.000 NA
BRANCH  16  18
ATOM     18  C   UNL     1       2.617   3.168  20.428  0.00  0.00    +0.000 C 
ATOM     19  C   UNL     1       1.212   2.600  20.495  0.00  0.00    +0.000 C 
ATOM     20  C   UNL     1       1.936   2.966  21.753  0.00  0.00    +0.000 C 
ENDBRANCH  16  18
ENDBRANCH   7  14
ENDBRANCH   1   9
BRANCH   5  21
ATOM     21  C   UNL     1      -1.539  12.181  20.599  0.00  0.00    +0.000 C 
ATOM     22  C   UNL     1      -2.729  12.521  20.075  0.00  0.00    +0.000 C 
BRANCH  22  23
ATOM     23  O   UNL     1      -3.865  12.579  20.849  0.00  0.00    +0.000 OA
BRANCH  23  24
ATOM     24  C   UNL     1      -5.049  12.854  20.088  0.00  0.00    +0.000 C 
BRANCH  24  25
ATOM     25  C   UNL     1      -6.141  11.987  20.616  0.00  0.00    +0.000 A 
ATOM     26  N   UNL     1      -6.601  11.983  21.854  0.00  0.00    +0.000 NA
ATOM     27  N   UNL     1      -7.628  11.073  21.931  0.00  0.00    +0.000 NA
ATOM     28  C   UNL     1      -7.780  10.543  20.742  0.00  0.00    +0.000 A 
ATOM     29  N   UNL     1      -6.876  11.092  19.882  0.00  0.00    +0.000 N 
ATOM     30  C   UNL     1      -6.760  10.784  18.483  0.00  0.00    +0.000 C 
ENDBRANCH  24  25
ENDBRANCH  23  24
ENDBRANCH  22  23
ENDBRANCH   5  21
TORSDOF 7
ENDMDL
MODEL 6
REMARK VINA RESULT:      -7.6      2.086      2.671
REMARK  Name = 
REMARK  9 active torsions:
REMARK  status: ('A' for Active; 'I' for Inactive)
REMARK    1  A    between atoms: C_1  and  C_2
REMARK    2  A    between atoms: C_4  and  C_5
REMARK    3  A    between atoms: N_7  and  C_8
REMARK    4  A    between atoms: C_12  and  C_13
REMARK    5  A    between atoms: C_14  and  O_15
REMARK    6  A    between atoms: O_15  and  C_16
REMARK    7  A    between atoms: C_16  and  C_17
REMARK    8  A    between atoms: N_21  and  C_22
REMARK    9  A    between atoms: C_25  and  C_26
REMARK                            x       y       z     vdW  Elec       q    Type
REMARK                         _______ _______ _______ _____ _____    ______ ____
ROOT
ATOM      1  C   UNL     1       1.197   9.840  18.053  0.00  0.00    +0.000 A 
ATOM      2  C   UNL     1       1.918  10.972  18.440  0.00  0.00    +0.000 A 
ATOM      3  C   UNL     1       1.270  12.151  18.815  0.00  0.00    +0.000 A 
ATOM      4  C   UNL     1      -0.118  12.228  18.789  0.00  0.00    +0.000 A 
ATOM      5  C   UNL     1      -0.883  11.135  18.368  0.00  0.00    +0.000 A 
ATOM      6  C   UNL     1      -0.213   9.945  17.990  0.00  0.00    +0.000 A 
ENDROOT
BRANCH   1   9
ATOM      7  C   UNL     1       2.251   7.640  18.617  0.00  0.00    +0.000 C 
ATOM      8  O   UNL     1       2.051   7.659  19.827  0.00  0.00    +0.000 OA
ATOM      9  N   UNL     1       1.836   8.614  17.705  0.00  0.00    +0.000 N 
ATOM     10  H   UNL     1       1.869   8.392  16.721  0.00  0.00    +0.000 HD
BRANCH   7  14
ATOM     11  C   UNL     1       2.595   2.709  17.575  0.00  0.00    +0.000 C 
ATOM     12  C   UNL     1       3.109   4.116  17.585  0.00  0.00    +0.000 A 
ATOM     13  C   UNL     1       2.410   5.159  18.168  0.00  0.00    +0.000 A 
ATOM     14  C   UNL     1       2.962   6.437  18.084  0.00  0.00    +0.000 A 
ATOM     15  C   UNL     1       4.177   6.626  17.397  0.00  0.00    +0.000 A 
ATOM     16  C   UNL     1       4.829   5.535  16.839  0.00  0.00    +0.000 A 
ATOM     17  N   UNL     1       4.292   4.297  16.957  0.00  0.00    +0.000 NA
BRANCH  16  18
ATOM     18  C   UNL     1       6.122   5.580  16.056  0.00  0.00    +0.000 C 
ATOM     19  C   UNL     1       6.181   4.713  14.813  0.00  0.00    +0.000 C 
ATOM     20  C   UNL     1       7.177   4.517  15.913  0.00  0.00    +0.000 C 
ENDBRANCH  16  18
ENDBRANCH   7  14
ENDBRANCH   1   9
BRANCH   5  21
ATOM     21  C   UNL     1      -2.350  11.262  18.220  0.00  0.00    +0.000 C 
ATOM     22  C   UNL     1      -3.005  11.446  17.061  0.00  0.00    +0.000 C 
BRANCH  22  23
ATOM     23  O   UNL     1      -4.380  11.420  17.000  0.00  0.00    +0.000 OA
BRANCH  23  24
ATOM     24  C   UNL     1      -4.988  10.988  18.224  0.00  0.00    +0.000 C 
BRANCH  24  25
ATOM     25  C   UNL     1      -6.084  11.945  18.551  0.00  0.00    +0.000 A 
ATOM     26  N   UNL     1      -7.103  12.255  17.770  0.00  0.00    +0.000 NA
ATOM     27  N   UNL     1      -7.910  13.140  18.444  0.00  0.00    +0.000 NA
ATOM     28  C   UNL     1      -7.374  13.351  19.621  0.00  0.00    +0.000 A 
ATOM     29  N   UNL     1      -6.232  12.616  19.738  0.00  0.00    +0.000 N 
ATOM     30  C   UNL     1      -5.387  12.561  20.899  0.00  0.00    +0.000 C 
ENDBRANCH  24  25
ENDBRANCH  23  24
ENDBRANCH  22  23
ENDBRANCH   5  21
TORSDOF 7
ENDMDL
MODEL 7
REMARK VINA RESULT:      -7.6      1.188      2.853
REMARK  Name = 
REMARK  9 active torsions:
REMARK  status: ('A' for Active; 'I' for Inactive)
REMARK    1  A    between atoms: C_1  and  C_2
REMARK    2  A    between atoms: C_4  and  C_5
REMARK    3  A    between atoms: N_7  and  C_8
REMARK    4  A    between atoms: C_12  and  C_13
REMARK    5  A    between atoms: C_14  and  O_15
REMARK    6  A    between atoms: O_15  and  C_16
REMARK    7  A    between atoms: C_16  and  C_17
REMARK    8  A    between atoms: N_21  and  C_22
REMARK    9  A    between atoms: C_25  and  C_26
REMARK                            x       y       z     vdW  Elec       q    Type
REMARK                         _______ _______ _______ _____ _____    ______ ____
ROOT
ATOM      1  C   UNL     1       1.399  10.088  18.157  0.00  0.00    +0.000 A 
ATOM      2  C   UNL     1       2.176  11.249  18.202  0.00  0.00    +0.000 A 
ATOM      3  C   UNL     1       1.626  12.475  18.584  0.00  0.00    +0.000 A 
ATOM      4  C   UNL     1       0.277  12.568  18.908  0.00  0.00    +0.000 A 
ATOM      5  C   UNL     1      -0.551  11.442  18.837  0.00  0.00    +0.000 A 
ATOM      6  C   UNL     1       0.020  10.205  18.447  0.00  0.00    +0.000 A 
ENDROOT
BRANCH   1   9
ATOM      7  C   UNL     1       2.273   7.810  18.718  0.00  0.00    +0.000 C 
ATOM      8  O   UNL     1       2.055   7.835  19.925  0.00  0.00    +0.000 OA
ATOM      9  N   UNL     1       1.949   8.820  17.808  0.00  0.00    +0.000 N 
ATOM     10  H   UNL     1       1.980   8.603  16.823  0.00  0.00    +0.000 HD
BRANCH   7  14
ATOM     11  C   UNL     1       5.778   5.300  16.085  0.00  0.00    +0.000 C 
ATOM     12  C   UNL     1       4.562   5.386  16.955  0.00  0.00    +0.000 A 
ATOM     13  C   UNL     1       4.008   6.595  17.341  0.00  0.00    +0.000 A 
ATOM     14  C   UNL     1       2.899   6.560  18.186  0.00  0.00    +0.000 A 
ATOM     15  C   UNL     1       2.405   5.319  18.635  0.00  0.00    +0.000 A 
ATOM     16  C   UNL     1       3.006   4.144  18.205  0.00  0.00    +0.000 A 
ATOM     17  N   UNL     1       4.063   4.197  17.360  0.00  0.00    +0.000 NA
BRANCH  16  18
ATOM     18  C   UNL     1       2.606   2.744  18.613  0.00  0.00    +0.000 C 
ATOM     19  C   UNL     1       1.124   2.428  18.556  0.00  0.00    +0.000 C 
ATOM     20  C   UNL     1       1.872   2.292  19.846  0.00  0.00    +0.000 C 
ENDBRANCH  16  18
ENDBRANCH   7  14
ENDBRANCH   1   9
BRANCH   5  21
ATOM     21  C   UNL     1      -2.009  11.572  19.058  0.00  0.00    +0.000 C 
ATOM     22  C   UNL     1      -2.602  12.496  19.833  0.00  0.00    +0.000 C 
BRANCH  22  23
ATOM     23  O   UNL     1      -3.971  12.627  19.875  0.00  0.00    +0.000 OA
BRANCH  23  24
ATOM     24  C   UNL     1      -4.413  13.597  20.835  0.00  0.00    +0.000 C 
BRANCH  24  25
ATOM     25  C   UNL     1      -5.568  13.012  21.575  0.00  0.00    +0.000 A 
ATOM     26  N   UNL     1      -5.524  12.465  22.776  0.00  0.00    +0.000 NA
ATOM     27  N   UNL     1      -6.798  12.079  23.122  0.00  0.00    +0.000 NA
ATOM     28  C   UNL     1      -7.593  12.401  22.132  0.00  0.00    +0.000 A 
ATOM     29  N   UNL     1      -6.869  12.996  21.142  0.00  0.00    +0.000 N 
ATOM     30  C   UNL     1      -7.401  13.514  19.912  0.00  0.00    +0.000 C 
ENDBRANCH  24  25
ENDBRANCH  23  24
ENDBRANCH  22  23
ENDBRANCH   5  21
TORSDOF 7
ENDMDL
MODEL 8
REMARK VINA RESULT:      -7.5      3.267     11.194
REMARK  Name = 
REMARK  9 active torsions:
REMARK  status: ('A' for Active; 'I' for Inactive)
REMARK    1  A    between atoms: C_1  and  C_2
REMARK    2  A    between atoms: C_4  and  C_5
REMARK    3  A    between atoms: N_7  and  C_8
REMARK    4  A    between atoms: C_12  and  C_13
REMARK    5  A    between atoms: C_14  and  O_15
REMARK    6  A    between atoms: O_15  and  C_16
REMARK    7  A    between atoms: C_16  and  C_17
REMARK    8  A    between atoms: N_21  and  C_22
REMARK    9  A    between atoms: C_25  and  C_26
REMARK                            x       y       z     vdW  Elec       q    Type
REMARK                         _______ _______ _______ _____ _____    ______ ____
ROOT
ATOM      1  C   UNL     1       1.873   5.021  20.279  0.00  0.00    +0.000 A 
ATOM      2  C   UNL     1       1.485   3.889  21.000  0.00  0.00    +0.000 A 
ATOM      3  C   UNL     1       2.117   2.658  20.812  0.00  0.00    +0.000 A 
ATOM      4  C   UNL     1       3.140   2.530  19.879  0.00  0.00    +0.000 A 
ATOM      5  C   UNL     1       3.536   3.625  19.102  0.00  0.00    +0.000 A 
ATOM      6  C   UNL     1       2.885   4.868  19.303  0.00  0.00    +0.000 A 
ENDROOT
BRANCH   1   9
ATOM      7  C   UNL     1       1.741   7.501  19.960  0.00  0.00    +0.000 C 
ATOM      8  O   UNL     1       2.686   7.625  19.187  0.00  0.00    +0.000 OA
ATOM      9  N   UNL     1       1.268   6.296  20.484  0.00  0.00    +0.000 N 
ATOM     10  H   UNL     1       0.364   6.293  20.934  0.00  0.00    +0.000 HD
BRANCH   7  14
ATOM     11  C   UNL     1      -0.892  10.421  23.132  0.00  0.00    +0.000 C 
ATOM     12  C   UNL     1      -0.211  10.131  21.830  0.00  0.00    +0.000 A 
ATOM     13  C   UNL     1       0.374   8.906  21.552  0.00  0.00    +0.000 A 
ATOM     14  C   UNL     1       1.018   8.758  20.324  0.00  0.00    +0.000 A 
ATOM     15  C   UNL     1       1.076   9.848  19.433  0.00  0.00    +0.000 A 
ATOM     16  C   UNL     1       0.465  11.047  19.772  0.00  0.00    +0.000 A 
ATOM     17  N   UNL     1      -0.182  11.162  20.957  0.00  0.00    +0.000 NA
BRANCH  16  18
ATOM     18  C   UNL     1       0.459  12.307  18.935  0.00  0.00    +0.000 C 
ATOM     19  C   UNL     1       0.709  13.604  19.680  0.00  0.00    +0.000 C 
ATOM     20  C   UNL     1      -0.557  13.415  18.903  0.00  0.00    +0.000 C 
ENDBRANCH  16  18
ENDBRANCH   7  14
ENDBRANCH   1   9
BRANCH   5  21
ATOM     21  C   UNL     1       4.534   3.453  18.024  0.00  0.00    +0.000 C 
ATOM     22  C   UNL     1       5.365   4.407  17.569  0.00  0.00    +0.000 C 
BRANCH  22  23
ATOM     23  O   UNL     1       6.354   4.124  16.655  0.00  0.00    +0.000 OA
BRANCH  23  24
ATOM     24  C   UNL     1       5.843   3.839  15.345  0.00  0.00    +0.000 C 
BRANCH  24  25
ATOM     25  C   UNL     1       6.745   4.492  14.354  0.00  0.00    +0.000 A 
ATOM     26  N   UNL     1       7.690   5.374  14.624  0.00  0.00    +0.000 NA
ATOM     27  N   UNL     1       8.321   5.707  13.449  0.00  0.00    +0.000 NA
ATOM     28  C   UNL     1       7.755   5.022  12.486  0.00  0.00    +0.000 A 
ATOM     29  N   UNL     1       6.767   4.239  13.006  0.00  0.00    +0.000 N 
ATOM     30  C   UNL     1       5.946   3.324  12.261  0.00  0.00    +0.000 C 
ENDBRANCH  24  25
ENDBRANCH  23  24
ENDBRANCH  22  23
ENDBRANCH   5  21
TORSDOF 7
ENDMDL
MODEL 9
REMARK VINA RESULT:      -7.5      2.655      3.336
REMARK  Name = 
REMARK  9 active torsions:
REMARK  status: ('A' for Active; 'I' for Inactive)
REMARK    1  A    between atoms: C_1  and  C_2
REMARK    2  A    between atoms: C_4  and  C_5
REMARK    3  A    between atoms: N_7  and  C_8
REMARK    4  A    between atoms: C_12  and  C_13
REMARK    5  A    between atoms: C_14  and  O_15
REMARK    6  A    between atoms: O_15  and  C_16
REMARK    7  A    between atoms: C_16  and  C_17
REMARK    8  A    between atoms: N_21  and  C_22
REMARK    9  A    between atoms: C_25  and  C_26
REMARK                            x       y       z     vdW  Elec       q    Type
REMARK                         _______ _______ _______ _____ _____    ______ ____
ROOT
ATOM      1  C   UNL     1       1.400   8.443  20.670  0.00  0.00    +0.000 A 
ATOM      2  C   UNL     1       1.476   8.661  22.048  0.00  0.00    +0.000 A 
ATOM      3  C   UNL     1       0.637   9.578  22.684  0.00  0.00    +0.000 A 
ATOM      4  C   UNL     1      -0.284  10.314  21.947  0.00  0.00    +0.000 A 
ATOM      5  C   UNL     1      -0.369  10.162  20.559  0.00  0.00    +0.000 A 
ATOM      6  C   UNL     1       0.489   9.229  19.926  0.00  0.00    +0.000 A 
ENDROOT
BRANCH   1   9
ATOM      7  C   UNL     1       2.103   6.097  20.145  0.00  0.00    +0.000 C 
ATOM      8  O   UNL     1       1.234   5.512  20.782  0.00  0.00    +0.000 OA
ATOM      9  N   UNL     1       2.220   7.483  20.007  0.00  0.00    +0.000 N 
ATOM     10  H   UNL     1       2.838   7.841  19.293  0.00  0.00    +0.000 HD
BRANCH   7  14
ATOM     11  C   UNL     1       3.571   1.755  18.021  0.00  0.00    +0.000 C 
ATOM     12  C   UNL     1       3.763   3.189  18.411  0.00  0.00    +0.000 A 
ATOM     13  C   UNL     1       2.824   3.891  19.148  0.00  0.00    +0.000 A 
ATOM     14  C   UNL     1       3.085   5.234  19.421  0.00  0.00    +0.000 A 
ATOM     15  C   UNL     1       4.261   5.829  18.923  0.00  0.00    +0.000 A 
ATOM     16  C   UNL     1       5.163   5.065  18.194  0.00  0.00    +0.000 A 
ATOM     17  N   UNL     1       4.906   3.755  17.965  0.00  0.00    +0.000 NA
BRANCH  16  18
ATOM     18  C   UNL     1       6.451   5.563  17.578  0.00  0.00    +0.000 C 
ATOM     19  C   UNL     1       7.584   5.856  18.544  0.00  0.00    +0.000 C 
ATOM     20  C   UNL     1       7.063   6.935  17.646  0.00  0.00    +0.000 C 
ENDBRANCH  16  18
ENDBRANCH   7  14
ENDBRANCH   1   9
BRANCH   5  21
ATOM     21  C   UNL     1      -1.259  11.038  19.765  0.00  0.00    +0.000 C 
ATOM     22  C   UNL     1      -1.864  10.700  18.613  0.00  0.00    +0.000 C 
BRANCH  22  23
ATOM     23  O   UNL     1      -2.781  11.530  18.011  0.00  0.00    +0.000 OA
BRANCH  23  24
ATOM     24  C   UNL     1      -3.550  12.293  18.952  0.00  0.00    +0.000 C 
BRANCH  24  25
ATOM     25  C   UNL     1      -4.949  11.778  18.920  0.00  0.00    +0.000 A 
ATOM     26  N   UNL     1      -5.501  11.088  17.939  0.00  0.00    +0.000 NA
ATOM     27  N   UNL     1      -6.787  10.769  18.304  0.00  0.00    +0.000 NA
ATOM     28  C   UNL     1      -6.995  11.265  19.499  0.00  0.00    +0.000 A 
ATOM     29  N   UNL     1      -5.868  11.899  19.930  0.00  0.00    +0.000 N 
ATOM     30  C   UNL     1      -5.704  12.538  21.207  0.00  0.00    +0.000 C 
ENDBRANCH  24  25
ENDBRANCH  23  24
ENDBRANCH  22  23
ENDBRANCH   5  21
TORSDOF 7
ENDMDL
