MODEL 1
REMARK VINA RESULT:      -9.0      0.000      0.000
REMARK  Name = 
REMARK  9 active torsions:
REMARK  status: ('A' for Active; 'I' for Inactive)
REMARK    1  A    between atoms: C_2  and  C_3
REMARK    2  A    between atoms: C_3  and  C_4
REMARK    3  A    between atoms: C_4  and  C_5
REMARK    4  A    between atoms: C_5  and  C_6
REMARK    5  A    between atoms: N_15  and  CA_16
REMARK    6  A    between atoms: CA_16  and  CB_17
REMARK    7  A    between atoms: CA_16  and  C_27
REMARK    8  A    between atoms: CB_17  and  CG_18
REMARK    9  A    between atoms: C_27  and  OXT_29
REMARK                            x       y       z     vdW  Elec       q    Type
REMARK                         _______ _______ _______ _____ _____    ______ ____
ROOT
ATOM      1  O   UNK A   0       8.190   6.922  18.757  0.00  0.00    +0.000 OA
ATOM      2  C   UNK A   0       7.696   7.652  17.905  0.00  0.00    +0.000 C 
ATOM      3  N   TRP A   1       6.683   7.251  17.066  0.00  0.00    +0.000 N 
ATOM      4  H   TRP A   1       6.381   7.869  16.314  0.00  0.00    +0.000 HD
ENDROOT
BRANCH   2   5
ATOM      5  C   UNK A   0       8.122   9.096  17.693  0.00  0.00    +0.000 C 
BRANCH   5   6
ATOM      6  C   UNK A   0       9.057   9.606  18.793  0.00  0.00    +0.000 C 
BRANCH   6   7
ATOM      7  C   UNK A   0       8.993  11.126  18.910  0.00  0.00    +0.000 C 
BRANCH   7   8
ATOM      8  C   UNK A   0      10.052  11.865  18.157  0.00  0.00    +0.000 A 
ATOM      9  C   UNK A   0      11.246  11.334  17.706  0.00  0.00    +0.000 A 
ATOM     10  N   UNK A   0      12.027  12.359  17.246  0.00  0.00    +0.000 N 
ATOM     11  C   UNK A   0      11.361  13.555  17.367  0.00  0.00    +0.000 A 
ATOM     12  C   UNK A   0      11.791  14.859  17.086  0.00  0.00    +0.000 A 
ATOM     13  C   UNK A   0      10.878  15.898  17.283  0.00  0.00    +0.000 A 
ATOM     14  C   UNK A   0       9.585  15.640  17.732  0.00  0.00    +0.000 A 
ATOM     15  C   UNK A   0       9.182  14.334  18.037  0.00  0.00    +0.000 A 
ATOM     16  C   UNK A   0      10.090  13.268  17.867  0.00  0.00    +0.000 A 
ATOM     17  H   UNK A   0      12.972  12.263  16.902  0.00  0.00    +0.000 HD
ENDBRANCH   7   8
ENDBRANCH   6   7
ENDBRANCH   5   6
ENDBRANCH   2   5
BRANCH   3  18
ATOM     18  CA  TRP A   1       6.077   5.915  17.057  0.00  0.00    +0.000 C 
BRANCH  18  19
ATOM     19  C   TRP A   1       6.785   5.130  15.938  0.00  0.00    +0.000 C 
ATOM     20  O   TRP A   1       7.474   5.666  15.075  0.00  0.00    +0.000 OA
BRANCH  19  21
ATOM     21  OXT TRP A   1       6.660   3.787  16.002  0.00  0.00    +0.000 OA
ATOM     22  HXT TRP A   1       7.376   3.320  16.465  0.00  0.00    +0.000 HD
ENDBRANCH  19  21
ENDBRANCH  18  19
BRANCH  18  23
ATOM     23  CB  TRP A   1       4.544   5.924  16.901  0.00  0.00    +0.000 C 
BRANCH  23  24
ATOM     24  CG  TRP A   1       3.797   6.232  18.164  0.00  0.00    +0.000 A 
ATOM     25  CD1 TRP A   1       3.738   5.445  19.299  0.00  0.00    +0.000 A 
ATOM     26  NE1 TRP A   1       2.901   6.051  20.199  0.00  0.00    +0.000 N 
ATOM     27  CE2 TRP A   1       2.390   7.211  19.666  0.00  0.00    +0.000 A 
ATOM     28  CZ2 TRP A   1       1.456   8.111  20.190  0.00  0.00    +0.000 A 
ATOM     29  CH2 TRP A   1       1.093   9.203  19.398  0.00  0.00    +0.000 A 
ATOM     30  CZ3 TRP A   1       1.685   9.417  18.155  0.00  0.00    +0.000 A 
ATOM     31  CE3 TRP A   1       2.647   8.527  17.667  0.00  0.00    +0.000 A 
ATOM     32  CD2 TRP A   1       2.975   7.378  18.411  0.00  0.00    +0.000 A 
ATOM     33  HE1 TRP A   1       2.656   5.684  21.108  0.00  0.00    +0.000 HD
ENDBRANCH  23  24
ENDBRANCH  18  23
ENDBRANCH   3  18
TORSDOF 9
ENDMDL
MODEL 2
REMARK VINA RESULT:      -9.0      2.266      3.126
REMARK  Name = 
REMARK  9 active torsions:
REMARK  status: ('A' for Active; 'I' for Inactive)
REMARK    1  A    between atoms: C_2  and  C_3
REMARK    2  A    between atoms: C_3  and  C_4
REMARK    3  A    between atoms: C_4  and  C_5
REMARK    4  A    between atoms: C_5  and  C_6
REMARK    5  A    between atoms: N_15  and  CA_16
REMARK    6  A    between atoms: CA_16  and  CB_17
REMARK    7  A    between atoms: CA_16  and  C_27
REMARK    8  A    between atoms: CB_17  and  CG_18
REMARK    9  A    between atoms: C_27  and  OXT_29
REMARK                            x       y       z     vdW  Elec       q    Type
REMARK                         _______ _______ _______ _____ _____    ______ ____
ROOT
ATOM      1  O   UNK A   0       8.250   6.916  18.834  0.00  0.00    +0.000 OA
ATOM      2  C   UNK A   0       7.825   7.656  17.953  0.00  0.00    +0.000 C 
ATOM      3  N   TRP A   1       6.885   7.266  17.030  0.00  0.00    +0.000 N 
ATOM      4  H   TRP A   1       6.644   7.893  16.263  0.00  0.00    +0.000 HD
ENDROOT
BRANCH   2   5
ATOM      5  C   UNK A   0       8.265   9.103  17.796  0.00  0.00    +0.000 C 
BRANCH   5   6
ATOM      6  C   UNK A   0       9.025   9.628  19.016  0.00  0.00    +0.000 C 
BRANCH   6   7
ATOM      7  C   UNK A   0       9.551  11.040  18.773  0.00  0.00    +0.000 C 
BRANCH   7   8
ATOM      8  C   UNK A   0       9.689  11.885  19.998  0.00  0.00    +0.000 A 
ATOM      9  C   UNK A   0       9.123  11.623  21.232  0.00  0.00    +0.000 A 
ATOM     10  N   UNK A   0       9.307  12.719  22.032  0.00  0.00    +0.000 N 
ATOM     11  C   UNK A   0      10.002  13.691  21.353  0.00  0.00    +0.000 A 
ATOM     12  C   UNK A   0      10.357  14.987  21.749  0.00  0.00    +0.000 A 
ATOM     13  C   UNK A   0      11.096  15.759  20.850  0.00  0.00    +0.000 A 
ATOM     14  C   UNK A   0      11.475  15.248  19.611  0.00  0.00    +0.000 A 
ATOM     15  C   UNK A   0      11.086  13.961  19.219  0.00  0.00    +0.000 A 
ATOM     16  C   UNK A   0      10.320  13.169  20.099  0.00  0.00    +0.000 A 
ATOM     17  H   UNK A   0       8.953  12.819  22.972  0.00  0.00    +0.000 HD
ENDBRANCH   7   8
ENDBRANCH   6   7
ENDBRANCH   5   6
ENDBRANCH   2   5
BRANCH   3  18
ATOM     18  CA  TRP A   1       6.284   5.929  16.954  0.00  0.00    +0.000 C 
BRANCH  18  19
ATOM     19  C   TRP A   1       7.256   5.067  16.128  0.00  0.00    +0.000 C 
ATOM     20  O   TRP A   1       7.465   5.250  14.932  0.00  0.00    +0.000 OA
BRANCH  19  21
ATOM     21  OXT TRP A   1       7.931   4.126  16.822  0.00  0.00    +0.000 OA
ATOM     22  HXT TRP A   1       8.280   4.409  17.684  0.00  0.00    +0.000 HD
ENDBRANCH  19  21
ENDBRANCH  18  19
BRANCH  18  23
ATOM     23  CB  TRP A   1       4.851   5.919  16.389  0.00  0.00    +0.000 C 
BRANCH  23  24
ATOM     24  CG  TRP A   1       3.778   5.806  17.431  0.00  0.00    +0.000 A 
ATOM     25  CD1 TRP A   1       3.354   6.804  18.288  0.00  0.00    +0.000 A 
ATOM     26  NE1 TRP A   1       2.405   6.277  19.125  0.00  0.00    +0.000 N 
ATOM     27  CE2 TRP A   1       2.214   4.945  18.847  0.00  0.00    +0.000 A 
ATOM     28  CZ2 TRP A   1       1.401   3.998  19.480  0.00  0.00    +0.000 A 
ATOM     29  CH2 TRP A   1       1.435   2.687  18.994  0.00  0.00    +0.000 A 
ATOM     30  CZ3 TRP A   1       2.205   2.353  17.883  0.00  0.00    +0.000 A 
ATOM     31  CE3 TRP A   1       2.979   3.323  17.240  0.00  0.00    +0.000 A 
ATOM     32  CD2 TRP A   1       3.023   4.634  17.754  0.00  0.00    +0.000 A 
ATOM     33  HE1 TRP A   1       1.938   6.778  19.868  0.00  0.00    +0.000 HD
ENDBRANCH  23  24
ENDBRANCH  18  23
ENDBRANCH   3  18
TORSDOF 9
ENDMDL
MODEL 3
REMARK VINA RESULT:      -8.9      1.735      2.313
REMARK  Name = 
REMARK  9 active torsions:
REMARK  status: ('A' for Active; 'I' for Inactive)
REMARK    1  A    between atoms: C_2  and  C_3
REMARK    2  A    between atoms: C_3  and  C_4
REMARK    3  A    between atoms: C_4  and  C_5
REMARK    4  A    between atoms: C_5  and  C_6
REMARK    5  A    between atoms: N_15  and  CA_16
REMARK    6  A    between atoms: CA_16  and  CB_17
REMARK    7  A    between atoms: CA_16  and  C_27
REMARK    8  A    between atoms: CB_17  and  CG_18
REMARK    9  A    between atoms: C_27  and  OXT_29
REMARK                            x       y       z     vdW  Elec       q    Type
REMARK                         _______ _______ _______ _____ _____    ______ ____
ROOT
ATOM      1  O   UNK A   0       7.888   6.470  18.534  0.00  0.00    +0.000 OA
ATOM      2  C   UNK A   0       7.373   7.185  17.681  0.00  0.00    +0.000 C 
ATOM      3  N   TRP A   1       6.516   6.710  16.717  0.00  0.00    +0.000 N 
ATOM      4  H   TRP A   1       6.198   7.334  15.977  0.00  0.00    +0.000 HD
ENDROOT
BRANCH   2   5
ATOM      5  C   UNK A   0       7.598   8.687  17.605  0.00  0.00    +0.000 C 
BRANCH   5   6
ATOM      6  C   UNK A   0       8.924   9.121  18.233  0.00  0.00    +0.000 C 
BRANCH   6   7
ATOM      7  C   UNK A   0       8.860  10.568  18.714  0.00  0.00    +0.000 C 
BRANCH   7   8
ATOM      8  C   UNK A   0       9.882  11.480  18.117  0.00  0.00    +0.000 A 
ATOM      9  C   UNK A   0      11.170  11.130  17.757  0.00  0.00    +0.000 A 
ATOM     10  N   UNK A   0      11.855  12.272  17.440  0.00  0.00    +0.000 N 
ATOM     11  C   UNK A   0      11.035  13.368  17.566  0.00  0.00    +0.000 A 
ATOM     12  C   UNK A   0      11.321  14.730  17.409  0.00  0.00    +0.000 A 
ATOM     13  C   UNK A   0      10.271  15.636  17.576  0.00  0.00    +0.000 A 
ATOM     14  C   UNK A   0       8.984  15.193  17.877  0.00  0.00    +0.000 A 
ATOM     15  C   UNK A   0       8.723  13.830  18.060  0.00  0.00    +0.000 A 
ATOM     16  C   UNK A   0       9.770  12.896  17.918  0.00  0.00    +0.000 A 
ATOM     17  H   UNK A   0      12.831  12.315  17.187  0.00  0.00    +0.000 HD
ENDBRANCH   7   8
ENDBRANCH   6   7
ENDBRANCH   5   6
ENDBRANCH   2   5
BRANCH   3  18
ATOM     18  CA  TRP A   1       6.120   5.305  16.562  0.00  0.00    +0.000 C 
BRANCH  18  19
ATOM     19  C   TRP A   1       6.800   4.808  15.273  0.00  0.00    +0.000 C 
ATOM     20  O   TRP A   1       7.721   5.407  14.725  0.00  0.00    +0.000 OA
BRANCH  19  21
ATOM     21  OXT TRP A   1       6.364   3.616  14.810  0.00  0.00    +0.000 OA
ATOM     22  HXT TRP A   1       7.007   2.888  14.854  0.00  0.00    +0.000 HD
ENDBRANCH  19  21
ENDBRANCH  18  19
BRANCH  18  23
ATOM     23  CB  TRP A   1       4.596   5.082  16.556  0.00  0.00    +0.000 C 
BRANCH  23  24
ATOM     24  CG  TRP A   1       3.957   5.147  17.912  0.00  0.00    +0.000 A 
ATOM     25  CD1 TRP A   1       4.347   5.947  18.969  0.00  0.00    +0.000 A 
ATOM     26  NE1 TRP A   1       3.548   5.659  20.043  0.00  0.00    +0.000 N 
ATOM     27  CE2 TRP A   1       2.653   4.667  19.718  0.00  0.00    +0.000 A 
ATOM     28  CZ2 TRP A   1       1.700   4.016  20.508  0.00  0.00    +0.000 A 
ATOM     29  CH2 TRP A   1       0.941   3.007  19.908  0.00  0.00    +0.000 A 
ATOM     30  CZ3 TRP A   1       1.091   2.704  18.557  0.00  0.00    +0.000 A 
ATOM     31  CE3 TRP A   1       2.021   3.394  17.775  0.00  0.00    +0.000 A 
ATOM     32  CD2 TRP A   1       2.851   4.363  18.372  0.00  0.00    +0.000 A 
ATOM     33  HE1 TRP A   1       3.625   6.081  20.959  0.00  0.00    +0.000 HD
ENDBRANCH  23  24
ENDBRANCH  18  23
ENDBRANCH   3  18
TORSDOF 9
ENDMDL
MODEL 4
REMARK VINA RESULT:      -8.9      1.667      2.509
REMARK  Name = 
REMARK  9 active torsions:
REMARK  status: ('A' for Active; 'I' for Inactive)
REMARK    1  A    between atoms: C_2  and  C_3
REMARK    2  A    between atoms: C_3  and  C_4
REMARK    3  A    between atoms: C_4  and  C_5
REMARK    4  A    between atoms: C_5  and  C_6
REMARK    5  A    between atoms: N_15  and  CA_16
REMARK    6  A    between atoms: CA_16  and  CB_17
REMARK    7  A    between atoms: CA_16  and  C_27
REMARK    8  A    between atoms: CB_17  and  CG_18
REMARK    9  A    between atoms: C_27  and  OXT_29
REMARK                            x       y       z     vdW  Elec       q    Type
REMARK                         _______ _______ _______ _____ _____    ______ ____
ROOT
ATOM      1  O   UNK A   0       7.668   7.084  16.547  0.00  0.00    +0.000 OA
ATOM      2  C   UNK A   0       7.667   7.070  17.773  0.00  0.00    +0.000 C 
ATOM      3  N   TRP A   1       6.955   6.158  18.515  0.00  0.00    +0.000 N 
ATOM      4  H   TRP A   1       6.915   6.257  19.529  0.00  0.00    +0.000 HD
ENDROOT
BRANCH   2   5
ATOM      5  C   UNK A   0       8.476   8.040  18.620  0.00  0.00    +0.000 C 
BRANCH   5   6
ATOM      6  C   UNK A   0       8.430   9.474  18.086  0.00  0.00    +0.000 C 
BRANCH   6   7
ATOM      7  C   UNK A   0       9.215  10.423  18.987  0.00  0.00    +0.000 C 
BRANCH   7   8
ATOM      8  C   UNK A   0      10.085  11.404  18.270  0.00  0.00    +0.000 A 
ATOM      9  C   UNK A   0      11.365  11.164  17.806  0.00  0.00    +0.000 A 
ATOM     10  N   UNK A   0      11.903  12.353  17.390  0.00  0.00    +0.000 N 
ATOM     11  C   UNK A   0      10.991  13.369  17.554  0.00  0.00    +0.000 A 
ATOM     12  C   UNK A   0      11.126  14.744  17.326  0.00  0.00    +0.000 A 
ATOM     13  C   UNK A   0      10.010  15.551  17.558  0.00  0.00    +0.000 A 
ATOM     14  C   UNK A   0       8.805  15.000  17.989  0.00  0.00    +0.000 A 
ATOM     15  C   UNK A   0       8.697  13.626  18.240  0.00  0.00    +0.000 A 
ATOM     16  C   UNK A   0       9.816  12.792  18.034  0.00  0.00    +0.000 A 
ATOM     17  H   UNK A   0      12.844  12.478  17.048  0.00  0.00    +0.000 HD
ENDBRANCH   7   8
ENDBRANCH   6   7
ENDBRANCH   5   6
ENDBRANCH   2   5
BRANCH   3  18
ATOM     18  CA  TRP A   1       6.096   5.107  17.957  0.00  0.00    +0.000 C 
BRANCH  18  19
ATOM     19  C   TRP A   1       6.932   4.400  16.874  0.00  0.00    +0.000 C 
ATOM     20  O   TRP A   1       6.519   4.192  15.737  0.00  0.00    +0.000 OA
BRANCH  19  21
ATOM     21  OXT TRP A   1       8.193   4.077  17.232  0.00  0.00    +0.000 OA
ATOM     22  HXT TRP A   1       8.798   3.873  16.499  0.00  0.00    +0.000 HD
ENDBRANCH  19  21
ENDBRANCH  18  19
BRANCH  18  23
ATOM     23  CB  TRP A   1       4.744   5.620  17.425  0.00  0.00    +0.000 C 
BRANCH  23  24
ATOM     24  CG  TRP A   1       3.624   5.553  18.420  0.00  0.00    +0.000 A 
ATOM     25  CD1 TRP A   1       3.324   6.493  19.388  0.00  0.00    +0.000 A 
ATOM     26  NE1 TRP A   1       2.271   6.026  20.129  0.00  0.00    +0.000 N 
ATOM     27  CE2 TRP A   1       1.888   4.784  19.680  0.00  0.00    +0.000 A 
ATOM     28  CZ2 TRP A   1       0.914   3.908  20.170  0.00  0.00    +0.000 A 
ATOM     29  CH2 TRP A   1       0.764   2.677  19.523  0.00  0.00    +0.000 A 
ATOM     30  CZ3 TRP A   1       1.520   2.363  18.396  0.00  0.00    +0.000 A 
ATOM     31  CE3 TRP A   1       2.460   3.270  17.898  0.00  0.00    +0.000 A 
ATOM     32  CD2 TRP A   1       2.684   4.484  18.575  0.00  0.00    +0.000 A 
ATOM     33  HE1 TRP A   1       1.856   6.500  20.920  0.00  0.00    +0.000 HD
ENDBRANCH  23  24
ENDBRANCH  18  23
ENDBRANCH   3  18
TORSDOF 9
ENDMDL
MODEL 5
REMARK VINA RESULT:      -8.8      1.984      2.433
REMARK  Name = 
REMARK  9 active torsions:
REMARK  status: ('A' for Active; 'I' for Inactive)
REMARK    1  A    between atoms: C_2  and  C_3
REMARK    2  A    between atoms: C_3  and  C_4
REMARK    3  A    between atoms: C_4  and  C_5
REMARK    4  A    between atoms: C_5  and  C_6
REMARK    5  A    between atoms: N_15  and  CA_16
REMARK    6  A    between atoms: CA_16  and  CB_17
REMARK    7  A    between atoms: CA_16  and  C_27
REMARK    8  A    between atoms: CB_17  and  CG_18
REMARK    9  A    between atoms: C_27  and  OXT_29
REMARK                            x       y       z     vdW  Elec       q    Type
REMARK                         _______ _______ _______ _____ _____    ______ ____
ROOT
ATOM      1  O   UNK A   0       7.487   7.741  16.783  0.00  0.00    +0.000 OA
ATOM      2  C   UNK A   0       7.767   7.569  17.964  0.00  0.00    +0.000 C 
ATOM      3  N   TRP A   1       7.367   6.465  18.680  0.00  0.00    +0.000 N 
ATOM      4  H   TRP A   1       7.547   6.426  19.683  0.00  0.00    +0.000 HD
ENDROOT
BRANCH   2   5
ATOM      5  C   UNK A   0       8.615   8.540  18.771  0.00  0.00    +0.000 C 
BRANCH   5   6
ATOM      6  C   UNK A   0       8.644   9.945  18.166  0.00  0.00    +0.000 C 
BRANCH   6   7
ATOM      7  C   UNK A   0       9.519  10.883  18.993  0.00  0.00    +0.000 C 
BRANCH   7   8
ATOM      8  C   UNK A   0      10.369  11.822  18.199  0.00  0.00    +0.000 A 
ATOM      9  C   UNK A   0      11.618  11.542  17.677  0.00  0.00    +0.000 A 
ATOM     10  N   UNK A   0      12.155  12.705  17.195  0.00  0.00    +0.000 N 
ATOM     11  C   UNK A   0      11.273  13.744  17.372  0.00  0.00    +0.000 A 
ATOM     12  C   UNK A   0      11.421  15.109  17.092  0.00  0.00    +0.000 A 
ATOM     13  C   UNK A   0      10.334  15.945  17.354  0.00  0.00    +0.000 A 
ATOM     14  C   UNK A   0       9.143  15.433  17.865  0.00  0.00    +0.000 A 
ATOM     15  C   UNK A   0       9.023  14.071  18.167  0.00  0.00    +0.000 A 
ATOM     16  C   UNK A   0      10.113  13.208  17.932  0.00  0.00    +0.000 A 
ATOM     17  H   UNK A   0      13.079  12.800  16.800  0.00  0.00    +0.000 HD
ENDBRANCH   7   8
ENDBRANCH   6   7
ENDBRANCH   5   6
ENDBRANCH   2   5
BRANCH   3  18
ATOM     18  CA  TRP A   1       6.547   5.370  18.149  0.00  0.00    +0.000 C 
BRANCH  18  19
ATOM     19  C   TRP A   1       7.394   4.690  17.058  0.00  0.00    +0.000 C 
ATOM     20  O   TRP A   1       8.375   3.994  17.306  0.00  0.00    +0.000 OA
BRANCH  19  21
ATOM     21  OXT TRP A   1       6.948   4.848  15.793  0.00  0.00    +0.000 OA
ATOM     22  HXT TRP A   1       7.511   5.387  15.214  0.00  0.00    +0.000 HD
ENDBRANCH  19  21
ENDBRANCH  18  19
BRANCH  18  23
ATOM     23  CB  TRP A   1       5.164   5.816  17.638  0.00  0.00    +0.000 C 
BRANCH  23  24
ATOM     24  CG  TRP A   1       4.095   4.771  17.760  0.00  0.00    +0.000 A 
ATOM     25  CD1 TRP A   1       3.818   3.766  16.852  0.00  0.00    +0.000 A 
ATOM     26  NE1 TRP A   1       2.729   3.067  17.304  0.00  0.00    +0.000 N 
ATOM     27  CE2 TRP A   1       2.272   3.609  18.482  0.00  0.00    +0.000 A 
ATOM     28  CZ2 TRP A   1       1.160   3.270  19.260  0.00  0.00    +0.000 A 
ATOM     29  CH2 TRP A   1       0.917   4.030  20.409  0.00  0.00    +0.000 A 
ATOM     30  CZ3 TRP A   1       1.786   5.049  20.792  0.00  0.00    +0.000 A 
ATOM     31  CE3 TRP A   1       2.914   5.345  20.022  0.00  0.00    +0.000 A 
ATOM     32  CD2 TRP A   1       3.140   4.646  18.820  0.00  0.00    +0.000 A 
ATOM     33  HE1 TRP A   1       2.293   2.291  16.826  0.00  0.00    +0.000 HD
ENDBRANCH  23  24
ENDBRANCH  18  23
ENDBRANCH   3  18
TORSDOF 9
ENDMDL
MODEL 6
REMARK VINA RESULT:      -8.8      2.128      2.949
REMARK  Name = 
REMARK  9 active torsions:
REMARK  status: ('A' for Active; 'I' for Inactive)
REMARK    1  A    between atoms: C_2  and  C_3
REMARK    2  A    between atoms: C_3  and  C_4
REMARK    3  A    between atoms: C_4  and  C_5
REMARK    4  A    between atoms: C_5  and  C_6
REMARK    5  A    between atoms: N_15  and  CA_16
REMARK    6  A    between atoms: CA_16  and  CB_17
REMARK    7  A    between atoms: CA_16  and  C_27
REMARK    8  A    between atoms: CB_17  and  CG_18
REMARK    9  A    between atoms: C_27  and  OXT_29
REMARK                            x       y       z     vdW  Elec       q    Type
REMARK                         _______ _______ _______ _____ _____    ______ ____
ROOT
ATOM      1  O   UNK A   0       8.320   6.970  18.788  0.00  0.00    +0.000 OA
ATOM      2  C   UNK A   0       7.746   7.603  17.909  0.00  0.00    +0.000 C 
ATOM      3  N   TRP A   1       6.678   7.108  17.199  0.00  0.00    +0.000 N 
ATOM      4  H   TRP A   1       6.306   7.643  16.415  0.00  0.00    +0.000 HD
ENDROOT
BRANCH   2   5
ATOM      5  C   UNK A   0       8.127   9.023  17.520  0.00  0.00    +0.000 C 
BRANCH   5   6
ATOM      6  C   UNK A   0       8.705   9.824  18.689  0.00  0.00    +0.000 C 
BRANCH   6   7
ATOM      7  C   UNK A   0       9.868  10.701  18.235  0.00  0.00    +0.000 C 
BRANCH   7   8
ATOM      8  C   UNK A   0       9.710  12.160  18.519  0.00  0.00    +0.000 A 
ATOM      9  C   UNK A   0       9.776  13.179  17.587  0.00  0.00    +0.000 A 
ATOM     10  N   UNK A   0       9.785  14.374  18.255  0.00  0.00    +0.000 N 
ATOM     11  C   UNK A   0       9.705  14.161  19.610  0.00  0.00    +0.000 A 
ATOM     12  C   UNK A   0       9.746  15.076  20.670  0.00  0.00    +0.000 A 
ATOM     13  C   UNK A   0       9.617  14.573  21.966  0.00  0.00    +0.000 A 
ATOM     14  C   UNK A   0       9.440  13.209  22.190  0.00  0.00    +0.000 A 
ATOM     15  C   UNK A   0       9.432  12.305  21.121  0.00  0.00    +0.000 A 
ATOM     16  C   UNK A   0       9.582  12.785  19.803  0.00  0.00    +0.000 A 
ATOM     17  H   UNK A   0       9.874  15.282  17.822  0.00  0.00    +0.000 HD
ENDBRANCH   7   8
ENDBRANCH   6   7
ENDBRANCH   5   6
ENDBRANCH   2   5
BRANCH   3  18
ATOM     18  CA  TRP A   1       6.099   5.772  17.373  0.00  0.00    +0.000 C 
BRANCH  18  19
ATOM     19  C   TRP A   1       7.141   4.778  16.828  0.00  0.00    +0.000 C 
ATOM     20  O   TRP A   1       7.396   4.661  15.633  0.00  0.00    +0.000 OA
BRANCH  19  21
ATOM     21  OXT TRP A   1       7.821   4.079  17.762  0.00  0.00    +0.000 OA
ATOM     22  HXT TRP A   1       7.338   3.339  18.167  0.00  0.00    +0.000 HD
ENDBRANCH  19  21
ENDBRANCH  18  19
BRANCH  18  23
ATOM     23  CB  TRP A   1       4.714   5.600  16.720  0.00  0.00    +0.000 C 
BRANCH  23  24
ATOM     24  CG  TRP A   1       3.860   4.541  17.351  0.00  0.00    +0.000 A 
ATOM     25  CD1 TRP A   1       3.663   3.255  16.883  0.00  0.00    +0.000 A 
ATOM     26  NE1 TRP A   1       2.767   2.630  17.710  0.00  0.00    +0.000 N 
ATOM     27  CE2 TRP A   1       2.354   3.490  18.700  0.00  0.00    +0.000 A 
ATOM     28  CZ2 TRP A   1       1.409   3.311  19.716  0.00  0.00    +0.000 A 
ATOM     29  CH2 TRP A   1       1.165   4.389  20.572  0.00  0.00    +0.000 A 
ATOM     30  CZ3 TRP A   1       1.882   5.577  20.452  0.00  0.00    +0.000 A 
ATOM     31  CE3 TRP A   1       2.851   5.722  19.455  0.00  0.00    +0.000 A 
ATOM     32  CD2 TRP A   1       3.063   4.679  18.532  0.00  0.00    +0.000 A 
ATOM     33  HE1 TRP A   1       2.422   1.688  17.592  0.00  0.00    +0.000 HD
ENDBRANCH  23  24
ENDBRANCH  18  23
ENDBRANCH   3  18
TORSDOF 9
ENDMDL
MODEL 7
REMARK VINA RESULT:      -8.5      1.866      2.757
REMARK  Name = 
REMARK  9 active torsions:
REMARK  status: ('A' for Active; 'I' for Inactive)
REMARK    1  A    between atoms: C_2  and  C_3
REMARK    2  A    between atoms: C_3  and  C_4
REMARK    3  A    between atoms: C_4  and  C_5
REMARK    4  A    between atoms: C_5  and  C_6
REMARK    5  A    between atoms: N_15  and  CA_16
REMARK    6  A    between atoms: CA_16  and  CB_17
REMARK    7  A    between atoms: CA_16  and  C_27
REMARK    8  A    between atoms: CB_17  and  CG_18
REMARK    9  A    between atoms: C_27  and  OXT_29
REMARK                            x       y       z     vdW  Elec       q    Type
REMARK                         _______ _______ _______ _____ _____    ______ ____
ROOT
ATOM      1  O   UNK A   0       8.355   7.288  18.888  0.00  0.00    +0.000 OA
ATOM      2  C   UNK A   0       7.863   7.837  17.908  0.00  0.00    +0.000 C 
ATOM      3  N   TRP A   1       6.871   7.270  17.144  0.00  0.00    +0.000 N 
ATOM      4  H   TRP A   1       6.572   7.732  16.286  0.00  0.00    +0.000 HD
ENDROOT
BRANCH   2   5
ATOM      5  C   UNK A   0       8.271   9.225  17.437  0.00  0.00    +0.000 C 
BRANCH   5   6
ATOM      6  C   UNK A   0       9.040  10.010  18.502  0.00  0.00    +0.000 C 
BRANCH   6   7
ATOM      7  C   UNK A   0       8.884  11.514  18.299  0.00  0.00    +0.000 C 
BRANCH   7   8
ATOM      8  C   UNK A   0      10.155  12.298  18.362  0.00  0.00    +0.000 A 
ATOM      9  C   UNK A   0      11.382  11.894  17.869  0.00  0.00    +0.000 A 
ATOM     10  N   UNK A   0      12.331  12.785  18.292  0.00  0.00    +0.000 N 
ATOM     11  C   UNK A   0      11.748  13.781  19.039  0.00  0.00    +0.000 A 
ATOM     12  C   UNK A   0      12.333  14.857  19.719  0.00  0.00    +0.000 A 
ATOM     13  C   UNK A   0      11.482  15.741  20.385  0.00  0.00    +0.000 A 
ATOM     14  C   UNK A   0      10.101  15.562  20.360  0.00  0.00    +0.000 A 
ATOM     15  C   UNK A   0       9.535  14.464  19.701  0.00  0.00    +0.000 A 
ATOM     16  C   UNK A   0      10.373  13.544  19.038  0.00  0.00    +0.000 A 
ATOM     17  H   UNK A   0      13.322  12.707  18.117  0.00  0.00    +0.000 HD
ENDBRANCH   7   8
ENDBRANCH   6   7
ENDBRANCH   5   6
ENDBRANCH   2   5
BRANCH   3  18
ATOM     18  CA  TRP A   1       6.286   5.944  17.376  0.00  0.00    +0.000 C 
BRANCH  18  19
ATOM     19  C   TRP A   1       7.332   4.923  16.893  0.00  0.00    +0.000 C 
ATOM     20  O   TRP A   1       7.740   4.875  15.736  0.00  0.00    +0.000 OA
BRANCH  19  21
ATOM     21  OXT TRP A   1       7.837   4.113  17.849  0.00  0.00    +0.000 OA
ATOM     22  HXT TRP A   1       7.182   3.625  18.375  0.00  0.00    +0.000 HD
ENDBRANCH  19  21
ENDBRANCH  18  19
BRANCH  18  23
ATOM     23  CB  TRP A   1       4.909   5.744  16.714  0.00  0.00    +0.000 C 
BRANCH  23  24
ATOM     24  CG  TRP A   1       3.782   5.542  17.683  0.00  0.00    +0.000 A 
ATOM     25  CD1 TRP A   1       3.230   6.498  18.515  0.00  0.00    +0.000 A 
ATOM     26  NE1 TRP A   1       2.271   5.894  19.285  0.00  0.00    +0.000 N 
ATOM     27  CE2 TRP A   1       2.199   4.554  18.990  0.00  0.00    +0.000 A 
ATOM     28  CZ2 TRP A   1       1.420   3.543  19.564  0.00  0.00    +0.000 A 
ATOM     29  CH2 TRP A   1       1.583   2.243  19.076  0.00  0.00    +0.000 A 
ATOM     30  CZ3 TRP A   1       2.446   1.978  18.016  0.00  0.00    +0.000 A 
ATOM     31  CE3 TRP A   1       3.185   3.009  17.429  0.00  0.00    +0.000 A 
ATOM     32  CD2 TRP A   1       3.097   4.314  17.951  0.00  0.00    +0.000 A 
ATOM     33  HE1 TRP A   1       1.721   6.353  19.999  0.00  0.00    +0.000 HD
ENDBRANCH  23  24
ENDBRANCH  18  23
ENDBRANCH   3  18
TORSDOF 9
ENDMDL
MODEL 8
REMARK VINA RESULT:      -8.5      1.795      2.469
REMARK  Name = 
REMARK  9 active torsions:
REMARK  status: ('A' for Active; 'I' for Inactive)
REMARK    1  A    between atoms: C_2  and  C_3
REMARK    2  A    between atoms: C_3  and  C_4
REMARK    3  A    between atoms: C_4  and  C_5
REMARK    4  A    between atoms: C_5  and  C_6
REMARK    5  A    between atoms: N_15  and  CA_16
REMARK    6  A    between atoms: CA_16  and  CB_17
REMARK    7  A    between atoms: CA_16  and  C_27
REMARK    8  A    between atoms: CB_17  and  CG_18
REMARK    9  A    between atoms: C_27  and  OXT_29
REMARK                            x       y       z     vdW  Elec       q    Type
REMARK                         _______ _______ _______ _____ _____    ______ ____
ROOT
ATOM      1  O   UNK A   0       8.342   7.179  18.784  0.00  0.00    +0.000 OA
ATOM      2  C   UNK A   0       7.748   7.856  17.952  0.00  0.00    +0.000 C 
ATOM      3  N   TRP A   1       6.773   7.349  17.126  0.00  0.00    +0.000 N 
ATOM      4  H   TRP A   1       6.385   7.937  16.388  0.00  0.00    +0.000 HD
ENDROOT
BRANCH   2   5
ATOM      5  C   UNK A   0       7.998   9.342  17.753  0.00  0.00    +0.000 C 
BRANCH   5   6
ATOM      6  C   UNK A   0       9.347   9.797  18.315  0.00  0.00    +0.000 C 
BRANCH   6   7
ATOM      7  C   UNK A   0       9.175  10.951  19.298  0.00  0.00    +0.000 C 
BRANCH   7   8
ATOM      8  C   UNK A   0       9.258  12.316  18.694  0.00  0.00    +0.000 A 
ATOM      9  C   UNK A   0       8.393  12.839  17.751  0.00  0.00    +0.000 A 
ATOM     10  N   UNK A   0       8.911  14.024  17.302  0.00  0.00    +0.000 N 
ATOM     11  C   UNK A   0      10.092  14.302  17.948  0.00  0.00    +0.000 A 
ATOM     12  C   UNK A   0      10.991  15.360  17.766  0.00  0.00    +0.000 A 
ATOM     13  C   UNK A   0      12.116  15.404  18.593  0.00  0.00    +0.000 A 
ATOM     14  C   UNK A   0      12.324  14.432  19.570  0.00  0.00    +0.000 A 
ATOM     15  C   UNK A   0      11.431  13.364  19.717  0.00  0.00    +0.000 A 
ATOM     16  C   UNK A   0      10.298  13.285  18.881  0.00  0.00    +0.000 A 
ATOM     17  H   UNK A   0       8.508  14.598  16.575  0.00  0.00    +0.000 HD
ENDBRANCH   7   8
ENDBRANCH   6   7
ENDBRANCH   5   6
ENDBRANCH   2   5
BRANCH   3  18
ATOM     18  CA  TRP A   1       6.327   5.951  17.109  0.00  0.00    +0.000 C 
BRANCH  18  19
ATOM     19  C   TRP A   1       7.343   5.188  16.240  0.00  0.00    +0.000 C 
ATOM     20  O   TRP A   1       8.024   4.259  16.664  0.00  0.00    +0.000 OA
BRANCH  19  21
ATOM     21  OXT TRP A   1       7.391   5.558  14.942  0.00  0.00    +0.000 OA
ATOM     22  HXT TRP A   1       8.019   6.270  14.732  0.00  0.00    +0.000 HD
ENDBRANCH  19  21
ENDBRANCH  18  19
BRANCH  18  23
ATOM     23  CB  TRP A   1       4.874   5.764  16.632  0.00  0.00    +0.000 C 
BRANCH  23  24
ATOM     24  CG  TRP A   1       4.102   4.731  17.397  0.00  0.00    +0.000 A 
ATOM     25  CD1 TRP A   1       4.031   3.379  17.116  0.00  0.00    +0.000 A 
ATOM     26  NE1 TRP A   1       3.172   2.799  18.012  0.00  0.00    +0.000 N 
ATOM     27  CE2 TRP A   1       2.659   3.749  18.863  0.00  0.00    +0.000 A 
ATOM     28  CZ2 TRP A   1       1.707   3.630  19.881  0.00  0.00    +0.000 A 
ATOM     29  CH2 TRP A   1       1.347   4.791  20.570  0.00  0.00    +0.000 A 
ATOM     30  CZ3 TRP A   1       1.959   6.011  20.291  0.00  0.00    +0.000 A 
ATOM     31  CE3 TRP A   1       2.937   6.101  19.297  0.00  0.00    +0.000 A 
ATOM     32  CD2 TRP A   1       3.264   4.962  18.535  0.00  0.00    +0.000 A 
ATOM     33  HE1 TRP A   1       2.915   1.821  18.025  0.00  0.00    +0.000 HD
ENDBRANCH  23  24
ENDBRANCH  18  23
ENDBRANCH   3  18
TORSDOF 9
ENDMDL
MODEL 9
REMARK VINA RESULT:      -8.5      4.965      8.072
REMARK  Name = 
REMARK  9 active torsions:
REMARK  status: ('A' for Active; 'I' for Inactive)
REMARK    1  A    between atoms: C_2  and  C_3
REMARK    2  A    between atoms: C_3  and  C_4
REMARK    3  A    between atoms: C_4  and  C_5
REMARK    4  A    between atoms: C_5  and  C_6
REMARK    5  A    between atoms: N_15  and  CA_16
REMARK    6  A    between atoms: CA_16  and  CB_17
REMARK    7  A    between atoms: CA_16  and  C_27
REMARK    8  A    between atoms: CB_17  and  CG_18
REMARK    9  A    between atoms: C_27  and  OXT_29
REMARK                            x       y       z     vdW  Elec       q    Type
REMARK                         _______ _______ _______ _____ _____    ______ ____
ROOT
ATOM      1  O   UNK A   0       3.150   4.271  20.132  0.00  0.00    +0.000 OA
ATOM      2  C   UNK A   0       2.645   5.095  19.378  0.00  0.00    +0.000 C 
ATOM      3  N   TRP A   1       2.386   4.844  18.051  0.00  0.00    +0.000 N 
ATOM      4  H   TRP A   1       2.056   5.601  17.453  0.00  0.00    +0.000 HD
ENDROOT
BRANCH   2   5
ATOM      5  C   UNK A   0       2.215   6.483  19.827  0.00  0.00    +0.000 C 
BRANCH   5   6
ATOM      6  C   UNK A   0       2.696   7.587  18.882  0.00  0.00    +0.000 C 
BRANCH   6   7
ATOM      7  C   UNK A   0       1.518   8.340  18.269  0.00  0.00    +0.000 C 
BRANCH   7   8
ATOM      8  C   UNK A   0       1.099   9.570  19.008  0.00  0.00    +0.000 A 
ATOM      9  C   UNK A   0       1.366  10.873  18.631  0.00  0.00    +0.000 A 
ATOM     10  N   UNK A   0       0.999  11.702  19.657  0.00  0.00    +0.000 N 
ATOM     11  C   UNK A   0       0.475  10.970  20.696  0.00  0.00    +0.000 A 
ATOM     12  C   UNK A   0       0.035  11.385  21.959  0.00  0.00    +0.000 A 
ATOM     13  C   UNK A   0      -0.480  10.412  22.818  0.00  0.00    +0.000 A 
ATOM     14  C   UNK A   0      -0.561   9.078  22.422  0.00  0.00    +0.000 A 
ATOM     15  C   UNK A   0      -0.087   8.676  21.167  0.00  0.00    +0.000 A 
ATOM     16  C   UNK A   0       0.457   9.635  20.288  0.00  0.00    +0.000 A 
ATOM     17  H   UNK A   0       1.126  12.704  19.670  0.00  0.00    +0.000 HD
ENDBRANCH   7   8
ENDBRANCH   6   7
ENDBRANCH   5   6
ENDBRANCH   2   5
BRANCH   3  18
ATOM     18  CA  TRP A   1       2.692   3.588  17.358  0.00  0.00    +0.000 C 
BRANCH  18  19
ATOM     19  C   TRP A   1       1.977   2.477  18.148  0.00  0.00    +0.000 C 
ATOM     20  O   TRP A   1       0.758   2.432  18.289  0.00  0.00    +0.000 OA
BRANCH  19  21
ATOM     21  OXT TRP A   1       2.775   1.498  18.626  0.00  0.00    +0.000 OA
ATOM     22  HXT TRP A   1       3.008   1.569  19.567  0.00  0.00    +0.000 HD
ENDBRANCH  19  21
ENDBRANCH  18  19
BRANCH  18  23
ATOM     23  CB  TRP A   1       4.199   3.320  17.185  0.00  0.00    +0.000 C 
BRANCH  23  24
ATOM     24  CG  TRP A   1       5.003   4.530  16.811  0.00  0.00    +0.000 A 
ATOM     25  CD1 TRP A   1       5.002   5.174  15.589  0.00  0.00    +0.000 A 
ATOM     26  NE1 TRP A   1       5.918   6.191  15.638  0.00  0.00    +0.000 N 
ATOM     27  CE2 TRP A   1       6.538   6.212  16.865  0.00  0.00    +0.000 A 
ATOM     28  CZ2 TRP A   1       7.574   7.024  17.340  0.00  0.00    +0.000 A 
ATOM     29  CH2 TRP A   1       8.035   6.794  18.639  0.00  0.00    +0.000 A 
ATOM     30  CZ3 TRP A   1       7.441   5.830  19.451  0.00  0.00    +0.000 A 
ATOM     31  CE3 TRP A   1       6.380   5.056  18.971  0.00  0.00    +0.000 A 
ATOM     32  CD2 TRP A   1       5.947   5.215  17.640  0.00  0.00    +0.000 A 
ATOM     33  HE1 TRP A   1       6.143   6.814  14.874  0.00  0.00    +0.000 HD
ENDBRANCH  23  24
ENDBRANCH  18  23
ENDBRANCH   3  18
TORSDOF 9
ENDMDL
