MODEL 1
REMARK VINA RESULT:      -8.3      0.000      0.000
REMARK  Name = 
REMARK  7 active torsions:
REMARK  status: ('A' for Active; 'I' for Inactive)
REMARK    1  A    between atoms: C_1  and  C_2
REMARK    2  A    between atoms: C_6  and  C_7
REMARK    3  A    between atoms: N_9  and  C_10
REMARK    4  A    between atoms: C_14  and  S_15
REMARK    5  A    between atoms: S_15  and  N_18
REMARK    6  A    between atoms: N_18  and  C_19
REMARK    7  A    between atoms: C_19  and  C_20
REMARK                            x       y       z     vdW  Elec       q    Type
REMARK                         _______ _______ _______ _____ _____    ______ ____
ROOT
ATOM      1  C   UNL     1       3.198   6.043  18.421  0.00  0.00    +0.000 A 
ATOM      2  C   UNL     1       2.597   4.893  17.898  0.00  0.00    +0.000 A 
ATOM      3  C   UNL     1       3.360   3.864  17.337  0.00  0.00    +0.000 A 
ATOM      4  C   UNL     1       4.745   3.972  17.280  0.00  0.00    +0.000 A 
ATOM      5  C   UNL     1       5.357   5.120  17.787  0.00  0.00    +0.000 A 
ATOM      6  C   UNL     1       4.591   6.163  18.339  0.00  0.00    +0.000 A 
ENDROOT
BRANCH   1   9
ATOM      7  C   UNL     1       2.150   8.303  18.418  0.00  0.00    +0.000 C 
ATOM      8  O   UNL     1       2.433   8.624  17.267  0.00  0.00    +0.000 OA
ATOM      9  N   UNL     1       2.463   7.096  19.025  0.00  0.00    +0.000 N 
ATOM     10  H   UNL     1       2.022   6.892  19.912  0.00  0.00    +0.000 HD
BRANCH   7  16
ATOM     11  C   UNL     1      -0.256   9.256  22.666  0.00  0.00    +0.000 C 
ATOM     12  C   UNL     1       0.139   9.706  21.291  0.00  0.00    +0.000 A 
ATOM     13  C   UNL     1      -0.304  10.922  20.763  0.00  0.00    +0.000 A 
ATOM     14  C   UNL     1       0.066  11.310  19.472  0.00  0.00    +0.000 A 
ATOM     15  C   UNL     1       0.886  10.489  18.689  0.00  0.00    +0.000 A 
ATOM     16  C   UNL     1       1.338   9.272  19.207  0.00  0.00    +0.000 A 
ATOM     17  C   UNL     1       0.959   8.889  20.504  0.00  0.00    +0.000 A 
ENDBRANCH   7  16
ENDBRANCH   1   9
BRANCH   5  18
ATOM     18  S   UNL     1       7.118   5.315  17.619  0.00  0.00    +0.000 S 
ATOM     19  O   UNL     1       7.413   6.731  17.629  0.00  0.00    +0.000 OA
ATOM     20  O   UNL     1       7.728   4.404  18.562  0.00  0.00    +0.000 OA
BRANCH  18  21
ATOM     21  N   UNL     1       7.426   4.705  16.075  0.00  0.00    +0.000 NA
ATOM     22  H   UNL     1       7.110   3.741  15.974  0.00  0.00    +0.000 HD
BRANCH  21  23
ATOM     23  C   UNL     1       6.970   5.551  14.961  0.00  0.00    +0.000 C 
BRANCH  23  24
ATOM     24  C   UNL     1       6.616   4.672  13.815  0.00  0.00    +0.000 A 
ATOM     25  C   UNL     1       5.585   3.783  13.582  0.00  0.00    +0.000 A 
ATOM     26  C   UNL     1       5.836   3.202  12.316  0.00  0.00    +0.000 A 
ATOM     27  C   UNL     1       6.992   3.784  11.850  0.00  0.00    +0.000 A 
ATOM     28  O   UNL     1       7.468   4.684  12.749  0.00  0.00    +0.000 OA
ENDBRANCH  23  24
ENDBRANCH  21  23
ENDBRANCH  18  21
ENDBRANCH   5  18
TORSDOF 6
ENDMDL
MODEL 2
REMARK VINA RESULT:      -8.1      1.158      1.314
REMARK  Name = 
REMARK  7 active torsions:
REMARK  status: ('A' for Active; 'I' for Inactive)
REMARK    1  A    between atoms: C_1  and  C_2
REMARK    2  A    between atoms: C_6  and  C_7
REMARK    3  A    between atoms: N_9  and  C_10
REMARK    4  A    between atoms: C_14  and  S_15
REMARK    5  A    between atoms: S_15  and  N_18
REMARK    6  A    between atoms: N_18  and  C_19
REMARK    7  A    between atoms: C_19  and  C_20
REMARK                            x       y       z     vdW  Elec       q    Type
REMARK                         _______ _______ _______ _____ _____    ______ ____
ROOT
ATOM      1  C   UNL     1       3.185   6.006  18.022  0.00  0.00    +0.000 A 
ATOM      2  C   UNL     1       2.566   4.788  17.716  0.00  0.00    +0.000 A 
ATOM      3  C   UNL     1       3.305   3.692  17.261  0.00  0.00    +0.000 A 
ATOM      4  C   UNL     1       4.682   3.796  17.095  0.00  0.00    +0.000 A 
ATOM      5  C   UNL     1       5.309   5.008  17.386  0.00  0.00    +0.000 A 
ATOM      6  C   UNL     1       4.567   6.118  17.830  0.00  0.00    +0.000 A 
ENDROOT
BRANCH   1   9
ATOM      7  C   UNL     1       1.997   7.272  19.809  0.00  0.00    +0.000 C 
ATOM      8  O   UNL     1       2.141   6.462  20.720  0.00  0.00    +0.000 OA
ATOM      9  N   UNL     1       2.477   7.133  18.515  0.00  0.00    +0.000 N 
ATOM     10  H   UNL     1       2.441   7.946  17.914  0.00  0.00    +0.000 HD
BRANCH   7  16
ATOM     11  C   UNL     1      -0.575   9.871  23.181  0.00  0.00    +0.000 C 
ATOM     12  C   UNL     1       0.020   9.796  21.807  0.00  0.00    +0.000 A 
ATOM     13  C   UNL     1      -0.144  10.829  20.880  0.00  0.00    +0.000 A 
ATOM     14  C   UNL     1       0.408  10.726  19.599  0.00  0.00    +0.000 A 
ATOM     15  C   UNL     1       1.133   9.588  19.226  0.00  0.00    +0.000 A 
ATOM     16  C   UNL     1       1.307   8.549  20.145  0.00  0.00    +0.000 A 
ATOM     17  C   UNL     1       0.746   8.660  21.428  0.00  0.00    +0.000 A 
ENDBRANCH   7  16
ENDBRANCH   1   9
BRANCH   5  18
ATOM     18  S   UNL     1       7.052   5.184  17.071  0.00  0.00    +0.000 S 
ATOM     19  O   UNL     1       7.314   6.577  16.780  0.00  0.00    +0.000 OA
ATOM     20  O   UNL     1       7.739   4.488  18.136  0.00  0.00    +0.000 OA
BRANCH  18  21
ATOM     21  N   UNL     1       7.281   4.280  15.663  0.00  0.00    +0.000 NA
ATOM     22  H   UNL     1       6.688   3.451  15.640  0.00  0.00    +0.000 HD
BRANCH  21  23
ATOM     23  C   UNL     1       7.209   5.042  14.406  0.00  0.00    +0.000 C 
BRANCH  23  24
ATOM     24  C   UNL     1       6.494   4.218  13.396  0.00  0.00    +0.000 A 
ATOM     25  C   UNL     1       6.889   3.584  12.235  0.00  0.00    +0.000 A 
ATOM     26  C   UNL     1       5.723   3.007  11.677  0.00  0.00    +0.000 A 
ATOM     27  C   UNL     1       4.696   3.312  12.539  0.00  0.00    +0.000 A 
ATOM     28  O   UNL     1       5.155   4.039  13.590  0.00  0.00    +0.000 OA
ENDBRANCH  23  24
ENDBRANCH  21  23
ENDBRANCH  18  21
ENDBRANCH   5  18
TORSDOF 6
ENDMDL
MODEL 3
REMARK VINA RESULT:      -8.1      0.586      1.368
REMARK  Name = 
REMARK  7 active torsions:
REMARK  status: ('A' for Active; 'I' for Inactive)
REMARK    1  A    between atoms: C_1  and  C_2
REMARK    2  A    between atoms: C_6  and  C_7
REMARK    3  A    between atoms: N_9  and  C_10
REMARK    4  A    between atoms: C_14  and  S_15
REMARK    5  A    between atoms: S_15  and  N_18
REMARK    6  A    between atoms: N_18  and  C_19
REMARK    7  A    between atoms: C_19  and  C_20
REMARK                            x       y       z     vdW  Elec       q    Type
REMARK                         _______ _______ _______ _____ _____    ______ ____
ROOT
ATOM      1  C   UNL     1       3.278   5.682  18.757  0.00  0.00    +0.000 A 
ATOM      2  C   UNL     1       2.684   4.600  18.098  0.00  0.00    +0.000 A 
ATOM      3  C   UNL     1       3.442   3.712  17.328  0.00  0.00    +0.000 A 
ATOM      4  C   UNL     1       4.814   3.897  17.196  0.00  0.00    +0.000 A 
ATOM      5  C   UNL     1       5.417   4.979  17.839  0.00  0.00    +0.000 A 
ATOM      6  C   UNL     1       4.655   5.883  18.603  0.00  0.00    +0.000 A 
ENDROOT
BRANCH   1   9
ATOM      7  C   UNL     1       2.081   7.828  19.166  0.00  0.00    +0.000 C 
ATOM      8  O   UNL     1       2.199   8.308  18.043  0.00  0.00    +0.000 OA
ATOM      9  N   UNL     1       2.550   6.587  19.572  0.00  0.00    +0.000 N 
ATOM     10  H   UNL     1       2.236   6.241  20.469  0.00  0.00    +0.000 HD
BRANCH   7  16
ATOM     11  C   UNL     1      -0.860  11.750  20.005  0.00  0.00    +0.000 C 
ATOM     12  C   UNL     1      -0.115  10.570  20.553  0.00  0.00    +0.000 A 
ATOM     13  C   UNL     1      -0.089  10.292  21.923  0.00  0.00    +0.000 A 
ATOM     14  C   UNL     1       0.628   9.194  22.409  0.00  0.00    +0.000 A 
ATOM     15  C   UNL     1       1.327   8.356  21.533  0.00  0.00    +0.000 A 
ATOM     16  C   UNL     1       1.306   8.621  20.160  0.00  0.00    +0.000 A 
ATOM     17  C   UNL     1       0.586   9.729  19.682  0.00  0.00    +0.000 A 
ENDBRANCH   7  16
ENDBRANCH   1   9
BRANCH   5  18
ATOM     18  S   UNL     1       7.152   5.286  17.586  0.00  0.00    +0.000 S 
ATOM     19  O   UNL     1       7.354   6.719  17.575  0.00  0.00    +0.000 OA
ATOM     20  O   UNL     1       7.864   4.425  18.503  0.00  0.00    +0.000 OA
BRANCH  18  21
ATOM     21  N   UNL     1       7.426   4.685  16.032  0.00  0.00    +0.000 NA
ATOM     22  H   UNL     1       7.119   3.717  15.936  0.00  0.00    +0.000 HD
BRANCH  21  23
ATOM     23  C   UNL     1       6.929   5.528  14.933  0.00  0.00    +0.000 C 
BRANCH  23  24
ATOM     24  C   UNL     1       6.604   4.653  13.776  0.00  0.00    +0.000 A 
ATOM     25  C   UNL     1       5.580   3.765  13.515  0.00  0.00    +0.000 A 
ATOM     26  C   UNL     1       5.863   3.188  12.253  0.00  0.00    +0.000 A 
ATOM     27  C   UNL     1       7.029   3.772  11.818  0.00  0.00    +0.000 A 
ATOM     28  O   UNL     1       7.483   4.669  12.732  0.00  0.00    +0.000 OA
ENDBRANCH  23  24
ENDBRANCH  21  23
ENDBRANCH  18  21
ENDBRANCH   5  18
TORSDOF 6
ENDMDL
MODEL 4
REMARK VINA RESULT:      -8.0      2.607      4.017
REMARK  Name = 
REMARK  7 active torsions:
REMARK  status: ('A' for Active; 'I' for Inactive)
REMARK    1  A    between atoms: C_1  and  C_2
REMARK    2  A    between atoms: C_6  and  C_7
REMARK    3  A    between atoms: N_9  and  C_10
REMARK    4  A    between atoms: C_14  and  S_15
REMARK    5  A    between atoms: S_15  and  N_18
REMARK    6  A    between atoms: N_18  and  C_19
REMARK    7  A    between atoms: C_19  and  C_20
REMARK                            x       y       z     vdW  Elec       q    Type
REMARK                         _______ _______ _______ _____ _____    ______ ____
ROOT
ATOM      1  C   UNL     1       3.072   6.067  18.205  0.00  0.00    +0.000 A 
ATOM      2  C   UNL     1       2.551   4.783  18.008  0.00  0.00    +0.000 A 
ATOM      3  C   UNL     1       3.303   3.782  17.386  0.00  0.00    +0.000 A 
ATOM      4  C   UNL     1       4.593   4.050  16.940  0.00  0.00    +0.000 A 
ATOM      5  C   UNL     1       5.120   5.329  17.121  0.00  0.00    +0.000 A 
ATOM      6  C   UNL     1       4.361   6.344  17.733  0.00  0.00    +0.000 A 
ENDROOT
BRANCH   1   9
ATOM      7  C   UNL     1       2.101   8.358  18.325  0.00  0.00    +0.000 C 
ATOM      8  O   UNL     1       2.430   8.745  17.208  0.00  0.00    +0.000 OA
ATOM      9  N   UNL     1       2.354   7.103  18.858  0.00  0.00    +0.000 N 
ATOM     10  H   UNL     1       1.880   6.856  19.717  0.00  0.00    +0.000 HD
BRANCH   7  16
ATOM     11  C   UNL     1       0.109   9.357  22.773  0.00  0.00    +0.000 C 
ATOM     12  C   UNL     1       0.305   9.756  21.340  0.00  0.00    +0.000 A 
ATOM     13  C   UNL     1      -0.303  10.896  20.808  0.00  0.00    +0.000 A 
ATOM     14  C   UNL     1      -0.117  11.236  19.464  0.00  0.00    +0.000 A 
ATOM     15  C   UNL     1       0.681  10.441  18.633  0.00  0.00    +0.000 A 
ATOM     16  C   UNL     1       1.298   9.300  19.154  0.00  0.00    +0.000 A 
ATOM     17  C   UNL     1       1.102   8.965  20.504  0.00  0.00    +0.000 A 
ENDBRANCH   7  16
ENDBRANCH   1   9
BRANCH   5  18
ATOM     18  S   UNL     1       6.726   5.712  16.456  0.00  0.00    +0.000 S 
ATOM     19  O   UNL     1       7.687   4.824  17.072  0.00  0.00    +0.000 OA
ATOM     20  O   UNL     1       6.573   5.790  15.020  0.00  0.00    +0.000 OA
BRANCH  18  21
ATOM     21  N   UNL     1       7.005   7.284  17.006  0.00  0.00    +0.000 NA
ATOM     22  H   UNL     1       6.136   7.785  17.190  0.00  0.00    +0.000 HD
BRANCH  21  23
ATOM     23  C   UNL     1       7.952   7.400  18.127  0.00  0.00    +0.000 C 
BRANCH  23  24
ATOM     24  C   UNL     1       8.344   8.827  18.267  0.00  0.00    +0.000 A 
ATOM     25  C   UNL     1       8.065   9.966  17.537  0.00  0.00    +0.000 A 
ATOM     26  C   UNL     1       8.789  11.019  18.146  0.00  0.00    +0.000 A 
ATOM     27  C   UNL     1       9.449  10.461  19.216  0.00  0.00    +0.000 A 
ATOM     28  O   UNL     1       9.179   9.132  19.302  0.00  0.00    +0.000 OA
ENDBRANCH  23  24
ENDBRANCH  21  23
ENDBRANCH  18  21
ENDBRANCH   5  18
TORSDOF 6
ENDMDL
MODEL 5
REMARK VINA RESULT:      -7.8      0.932      1.769
REMARK  Name = 
REMARK  7 active torsions:
REMARK  status: ('A' for Active; 'I' for Inactive)
REMARK    1  A    between atoms: C_1  and  C_2
REMARK    2  A    between atoms: C_6  and  C_7
REMARK    3  A    between atoms: N_9  and  C_10
REMARK    4  A    between atoms: C_14  and  S_15
REMARK    5  A    between atoms: S_15  and  N_18
REMARK    6  A    between atoms: N_18  and  C_19
REMARK    7  A    between atoms: C_19  and  C_20
REMARK                            x       y       z     vdW  Elec       q    Type
REMARK                         _______ _______ _______ _____ _____    ______ ____
ROOT
ATOM      1  C   UNL     1       2.902   5.913  18.294  0.00  0.00    +0.000 A 
ATOM      2  C   UNL     1       2.198   4.750  17.960  0.00  0.00    +0.000 A 
ATOM      3  C   UNL     1       2.832   3.670  17.337  0.00  0.00    +0.000 A 
ATOM      4  C   UNL     1       4.186   3.738  17.027  0.00  0.00    +0.000 A 
ATOM      5  C   UNL     1       4.897   4.896  17.345  0.00  0.00    +0.000 A 
ATOM      6  C   UNL     1       4.260   5.990  17.959  0.00  0.00    +0.000 A 
ENDROOT
BRANCH   1   9
ATOM      7  C   UNL     1       2.067   8.258  18.379  0.00  0.00    +0.000 C 
ATOM      8  O   UNL     1       2.309   8.570  17.216  0.00  0.00    +0.000 OA
ATOM      9  N   UNL     1       2.305   7.018  18.954  0.00  0.00    +0.000 N 
ATOM     10  H   UNL     1       1.902   6.841  19.864  0.00  0.00    +0.000 HD
BRANCH   7  16
ATOM     11  C   UNL     1       0.389  12.926  18.751  0.00  0.00    +0.000 C 
ATOM     12  C   UNL     1       0.605  11.589  19.396  0.00  0.00    +0.000 A 
ATOM     13  C   UNL     1       0.272  11.359  20.733  0.00  0.00    +0.000 A 
ATOM     14  C   UNL     1       0.499  10.107  21.314  0.00  0.00    +0.000 A 
ATOM     15  C   UNL     1       1.062   9.067  20.566  0.00  0.00    +0.000 A 
ATOM     16  C   UNL     1       1.397   9.283  19.226  0.00  0.00    +0.000 A 
ATOM     17  C   UNL     1       1.167  10.545  18.652  0.00  0.00    +0.000 A 
ENDBRANCH   7  16
ENDBRANCH   1   9
BRANCH   5  18
ATOM     18  S   UNL     1       6.602   5.034  16.854  0.00  0.00    +0.000 S 
ATOM     19  O   UNL     1       6.833   6.395  16.422  0.00  0.00    +0.000 OA
ATOM     20  O   UNL     1       7.388   4.425  17.904  0.00  0.00    +0.000 OA
BRANCH  18  21
ATOM     21  N   UNL     1       6.699   4.012  15.513  0.00  0.00    +0.000 NA
ATOM     22  H   UNL     1       5.904   3.375  15.458  0.00  0.00    +0.000 HD
BRANCH  21  23
ATOM     23  C   UNL     1       6.954   4.681  14.227  0.00  0.00    +0.000 C 
BRANCH  23  24
ATOM     24  C   UNL     1       6.317   3.885  13.146  0.00  0.00    +0.000 A 
ATOM     25  C   UNL     1       6.814   3.094  12.129  0.00  0.00    +0.000 A 
ATOM     26  C   UNL     1       5.695   2.650  11.384  0.00  0.00    +0.000 A 
ATOM     27  C   UNL     1       4.588   3.184  12.001  0.00  0.00    +0.000 A 
ATOM     28  O   UNL     1       4.954   3.928  13.077  0.00  0.00    +0.000 OA
ENDBRANCH  23  24
ENDBRANCH  21  23
ENDBRANCH  18  21
ENDBRANCH   5  18
TORSDOF 6
ENDMDL
MODEL 6
REMARK VINA RESULT:      -7.8      2.756      4.321
REMARK  Name = 
REMARK  7 active torsions:
REMARK  status: ('A' for Active; 'I' for Inactive)
REMARK    1  A    between atoms: C_1  and  C_2
REMARK    2  A    between atoms: C_6  and  C_7
REMARK    3  A    between atoms: N_9  and  C_10
REMARK    4  A    between atoms: C_14  and  S_15
REMARK    5  A    between atoms: S_15  and  N_18
REMARK    6  A    between atoms: N_18  and  C_19
REMARK    7  A    between atoms: C_19  and  C_20
REMARK                            x       y       z     vdW  Elec       q    Type
REMARK                         _______ _______ _______ _____ _____    ______ ____
ROOT
ATOM      1  C   UNL     1       3.217   6.144  18.061  0.00  0.00    +0.000 A 
ATOM      2  C   UNL     1       2.616   4.901  17.831  0.00  0.00    +0.000 A 
ATOM      3  C   UNL     1       3.320   3.853  17.230  0.00  0.00    +0.000 A 
ATOM      4  C   UNL     1       4.642   4.032  16.838  0.00  0.00    +0.000 A 
ATOM      5  C   UNL     1       5.250   5.270  17.050  0.00  0.00    +0.000 A 
ATOM      6  C   UNL     1       4.540   6.332  17.641  0.00  0.00    +0.000 A 
ENDROOT
BRANCH   1   9
ATOM      7  C   UNL     1       1.941   7.166  19.940  0.00  0.00    +0.000 C 
ATOM      8  O   UNL     1       1.919   6.191  20.685  0.00  0.00    +0.000 OA
ATOM      9  N   UNL     1       2.549   7.223  18.694  0.00  0.00    +0.000 N 
ATOM     10  H   UNL     1       2.644   8.133  18.263  0.00  0.00    +0.000 HD
BRANCH   7  16
ATOM     11  C   UNL     1       0.253  11.726  18.890  0.00  0.00    +0.000 C 
ATOM     12  C   UNL     1       0.521  10.666  19.917  0.00  0.00    +0.000 A 
ATOM     13  C   UNL     1       0.277  10.885  21.275  0.00  0.00    +0.000 A 
ATOM     14  C   UNL     1       0.552   9.885  22.214  0.00  0.00    +0.000 A 
ATOM     15  C   UNL     1       1.073   8.651  21.808  0.00  0.00    +0.000 A 
ATOM     16  C   UNL     1       1.319   8.419  20.451  0.00  0.00    +0.000 A 
ATOM     17  C   UNL     1       1.043   9.431  19.516  0.00  0.00    +0.000 A 
ENDBRANCH   7  16
ENDBRANCH   1   9
BRANCH   5  18
ATOM     18  S   UNL     1       6.904   5.543  16.452  0.00  0.00    +0.000 S 
ATOM     19  O   UNL     1       7.794   4.674  17.191  0.00  0.00    +0.000 OA
ATOM     20  O   UNL     1       6.834   5.509  15.008  0.00  0.00    +0.000 OA
BRANCH  18  21
ATOM     21  N   UNL     1       7.212   7.143  16.893  0.00  0.00    +0.000 NA
ATOM     22  H   UNL     1       6.372   7.720  16.855  0.00  0.00    +0.000 HD
BRANCH  21  23
ATOM     23  C   UNL     1       7.941   7.319  18.159  0.00  0.00    +0.000 C 
BRANCH  23  24
ATOM     24  C   UNL     1       8.343   8.745  18.279  0.00  0.00    +0.000 A 
ATOM     25  C   UNL     1       8.106   9.867  17.509  0.00  0.00    +0.000 A 
ATOM     26  C   UNL     1       8.815  10.928  18.120  0.00  0.00    +0.000 A 
ATOM     27  C   UNL     1       9.425  10.392  19.231  0.00  0.00    +0.000 A 
ATOM     28  O   UNL     1       9.137   9.069  19.340  0.00  0.00    +0.000 OA
ENDBRANCH  23  24
ENDBRANCH  21  23
ENDBRANCH  18  21
ENDBRANCH   5  18
TORSDOF 6
ENDMDL
MODEL 7
REMARK VINA RESULT:      -7.8      2.688      4.292
REMARK  Name = 
REMARK  7 active torsions:
REMARK  status: ('A' for Active; 'I' for Inactive)
REMARK    1  A    between atoms: C_1  and  C_2
REMARK    2  A    between atoms: C_6  and  C_7
REMARK    3  A    between atoms: N_9  and  C_10
REMARK    4  A    between atoms: C_14  and  S_15
REMARK    5  A    between atoms: S_15  and  N_18
REMARK    6  A    between atoms: N_18  and  C_19
REMARK    7  A    between atoms: C_19  and  C_20
REMARK                            x       y       z     vdW  Elec       q    Type
REMARK                         _______ _______ _______ _____ _____    ______ ____
ROOT
ATOM      1  C   UNL     1       3.272   5.928  18.232  0.00  0.00    +0.000 A 
ATOM      2  C   UNL     1       2.754   4.744  17.694  0.00  0.00    +0.000 A 
ATOM      3  C   UNL     1       3.587   3.788  17.106  0.00  0.00    +0.000 A 
ATOM      4  C   UNL     1       4.959   4.002  17.037  0.00  0.00    +0.000 A 
ATOM      5  C   UNL     1       5.487   5.183  17.560  0.00  0.00    +0.000 A 
ATOM      6  C   UNL     1       4.651   6.155  18.139  0.00  0.00    +0.000 A 
ENDROOT
BRANCH   1   9
ATOM      7  C   UNL     1       2.168   8.159  18.339  0.00  0.00    +0.000 C 
ATOM      8  O   UNL     1       2.530   8.583  17.245  0.00  0.00    +0.000 OA
ATOM      9  N   UNL     1       2.466   6.910  18.864  0.00  0.00    +0.000 N 
ATOM     10  H   UNL     1       1.964   6.622  19.694  0.00  0.00    +0.000 HD
BRANCH   7  16
ATOM     11  C   UNL     1      -1.016  11.980  18.355  0.00  0.00    +0.000 C 
ATOM     12  C   UNL     1      -0.266  10.937  19.129  0.00  0.00    +0.000 A 
ATOM     13  C   UNL     1      -0.343  10.861  20.522  0.00  0.00    +0.000 A 
ATOM     14  C   UNL     1       0.380   9.888  21.220  0.00  0.00    +0.000 A 
ATOM     15  C   UNL     1       1.190   8.976  20.535  0.00  0.00    +0.000 A 
ATOM     16  C   UNL     1       1.274   9.039  19.141  0.00  0.00    +0.000 A 
ATOM     17  C   UNL     1       0.547  10.022  18.449  0.00  0.00    +0.000 A 
ENDBRANCH   7  16
ENDBRANCH   1   9
BRANCH   5  18
ATOM     18  S   UNL     1       7.226   5.515  17.378  0.00  0.00    +0.000 S 
ATOM     19  O   UNL     1       7.953   4.502  18.110  0.00  0.00    +0.000 OA
ATOM     20  O   UNL     1       7.459   5.750  15.970  0.00  0.00    +0.000 OA
BRANCH  18  21
ATOM     21  N   UNL     1       7.418   6.999  18.162  0.00  0.00    +0.000 NA
ATOM     22  H   UNL     1       8.135   6.959  18.886  0.00  0.00    +0.000 HD
BRANCH  21  23
ATOM     23  C   UNL     1       7.597   8.161  17.277  0.00  0.00    +0.000 C 
BRANCH  23  24
ATOM     24  C   UNL     1       8.312   9.222  18.031  0.00  0.00    +0.000 A 
ATOM     25  C   UNL     1       9.047   9.227  19.201  0.00  0.00    +0.000 A 
ATOM     26  C   UNL     1       9.424  10.572  19.431  0.00  0.00    +0.000 A 
ATOM     27  C   UNL     1       8.911  11.298  18.382  0.00  0.00    +0.000 A 
ATOM     28  O   UNL     1       8.242  10.487  17.522  0.00  0.00    +0.000 OA
ENDBRANCH  23  24
ENDBRANCH  21  23
ENDBRANCH  18  21
ENDBRANCH   5  18
TORSDOF 6
ENDMDL
MODEL 8
REMARK VINA RESULT:      -7.8      2.817      4.186
REMARK  Name = 
REMARK  7 active torsions:
REMARK  status: ('A' for Active; 'I' for Inactive)
REMARK    1  A    between atoms: C_1  and  C_2
REMARK    2  A    between atoms: C_6  and  C_7
REMARK    3  A    between atoms: N_9  and  C_10
REMARK    4  A    between atoms: C_14  and  S_15
REMARK    5  A    between atoms: S_15  and  N_18
REMARK    6  A    between atoms: N_18  and  C_19
REMARK    7  A    between atoms: C_19  and  C_20
REMARK                            x       y       z     vdW  Elec       q    Type
REMARK                         _______ _______ _______ _____ _____    ______ ____
ROOT
ATOM      1  C   UNL     1       3.258   6.178  18.091  0.00  0.00    +0.000 A 
ATOM      2  C   UNL     1       2.704   4.943  17.733  0.00  0.00    +0.000 A 
ATOM      3  C   UNL     1       3.510   3.879  17.315  0.00  0.00    +0.000 A 
ATOM      4  C   UNL     1       4.889   4.034  17.239  0.00  0.00    +0.000 A 
ATOM      5  C   UNL     1       5.453   5.263  17.582  0.00  0.00    +0.000 A 
ATOM      6  C   UNL     1       4.645   6.341  17.989  0.00  0.00    +0.000 A 
ENDROOT
BRANCH   1   9
ATOM      7  C   UNL     1       1.980   7.415  19.835  0.00  0.00    +0.000 C 
ATOM      8  O   UNL     1       2.160   6.637  20.767  0.00  0.00    +0.000 OA
ATOM      9  N   UNL     1       2.480   7.273  18.549  0.00  0.00    +0.000 N 
ATOM     10  H   UNL     1       2.404   8.068  17.928  0.00  0.00    +0.000 HD
BRANCH   7  16
ATOM     11  C   UNL     1      -0.675   9.992  23.159  0.00  0.00    +0.000 C 
ATOM     12  C   UNL     1      -0.113   9.892  21.773  0.00  0.00    +0.000 A 
ATOM     13  C   UNL     1      -0.372  10.866  20.805  0.00  0.00    +0.000 A 
ATOM     14  C   UNL     1       0.152  10.740  19.514  0.00  0.00    +0.000 A 
ATOM     15  C   UNL     1       0.943   9.637  19.173  0.00  0.00    +0.000 A 
ATOM     16  C   UNL     1       1.212   8.657  20.132  0.00  0.00    +0.000 A 
ATOM     17  C   UNL     1       0.679   8.791  21.425  0.00  0.00    +0.000 A 
ENDBRANCH   7  16
ENDBRANCH   1   9
BRANCH   5  18
ATOM     18  S   UNL     1       7.205   5.505  17.382  0.00  0.00    +0.000 S 
ATOM     19  O   UNL     1       7.885   4.446  18.096  0.00  0.00    +0.000 OA
ATOM     20  O   UNL     1       7.434   5.742  15.974  0.00  0.00    +0.000 OA
BRANCH  18  21
ATOM     21  N   UNL     1       7.485   6.967  18.179  0.00  0.00    +0.000 NA
ATOM     22  H   UNL     1       8.243   6.895  18.858  0.00  0.00    +0.000 HD
BRANCH  21  23
ATOM     23  C   UNL     1       7.642   8.141  17.306  0.00  0.00    +0.000 C 
BRANCH  23  24
ATOM     24  C   UNL     1       8.335   9.209  18.071  0.00  0.00    +0.000 A 
ATOM     25  C   UNL     1       9.041   9.223  19.258  0.00  0.00    +0.000 A 
ATOM     26  C   UNL     1       9.408  10.571  19.490  0.00  0.00    +0.000 A 
ATOM     27  C   UNL     1       8.919  11.289  18.424  0.00  0.00    +0.000 A 
ATOM     28  O   UNL     1       8.274  10.471  17.553  0.00  0.00    +0.000 OA
ENDBRANCH  23  24
ENDBRANCH  21  23
ENDBRANCH  18  21
ENDBRANCH   5  18
TORSDOF 6
ENDMDL
MODEL 9
REMARK VINA RESULT:      -7.7      2.826      3.989
REMARK  Name = 
REMARK  7 active torsions:
REMARK  status: ('A' for Active; 'I' for Inactive)
REMARK    1  A    between atoms: C_1  and  C_2
REMARK    2  A    between atoms: C_6  and  C_7
REMARK    3  A    between atoms: N_9  and  C_10
REMARK    4  A    between atoms: C_14  and  S_15
REMARK    5  A    between atoms: S_15  and  N_18
REMARK    6  A    between atoms: N_18  and  C_19
REMARK    7  A    between atoms: C_19  and  C_20
REMARK                            x       y       z     vdW  Elec       q    Type
REMARK                         _______ _______ _______ _____ _____    ______ ____
ROOT
ATOM      1  C   UNL     1       2.028   4.905  20.680  0.00  0.00    +0.000 A 
ATOM      2  C   UNL     1       2.111   4.019  21.760  0.00  0.00    +0.000 A 
ATOM      3  C   UNL     1       2.641   2.734  21.607  0.00  0.00    +0.000 A 
ATOM      4  C   UNL     1       3.092   2.307  20.362  0.00  0.00    +0.000 A 
ATOM      5  C   UNL     1       3.004   3.178  19.275  0.00  0.00    +0.000 A 
ATOM      6  C   UNL     1       2.458   4.466  19.422  0.00  0.00    +0.000 A 
ENDROOT
BRANCH   1   9
ATOM      7  C   UNL     1       1.943   7.312  20.044  0.00  0.00    +0.000 C 
ATOM      8  O   UNL     1       2.781   7.284  19.147  0.00  0.00    +0.000 OA
ATOM      9  N   UNL     1       1.524   6.227  20.799  0.00  0.00    +0.000 N 
ATOM     10  H   UNL     1       0.708   6.352  21.382  0.00  0.00    +0.000 HD
BRANCH   7  16
ATOM     11  C   UNL     1      -0.702  10.115  23.189  0.00  0.00    +0.000 C 
ATOM     12  C   UNL     1      -0.055   9.965  21.844  0.00  0.00    +0.000 A 
ATOM     13  C   UNL     1      -0.160  10.957  20.865  0.00  0.00    +0.000 A 
ATOM     14  C   UNL     1       0.439  10.783  19.614  0.00  0.00    +0.000 A 
ATOM     15  C   UNL     1       1.153   9.615  19.322  0.00  0.00    +0.000 A 
ATOM     16  C   UNL     1       1.268   8.616  20.293  0.00  0.00    +0.000 A 
ATOM     17  C   UNL     1       0.660   8.798  21.547  0.00  0.00    +0.000 A 
ENDBRANCH   7  16
ENDBRANCH   1   9
BRANCH   5  18
ATOM     18  S   UNL     1       3.477   2.602  17.658  0.00  0.00    +0.000 S 
ATOM     19  O   UNL     1       3.689   1.173  17.738  0.00  0.00    +0.000 OA
ATOM     20  O   UNL     1       2.539   3.180  16.721  0.00  0.00    +0.000 OA
BRANCH  18  21
ATOM     21  N   UNL     1       4.963   3.361  17.399  0.00  0.00    +0.000 NA
ATOM     22  H   UNL     1       5.518   2.884  16.690  0.00  0.00    +0.000 HD
BRANCH  21  23
ATOM     23  C   UNL     1       4.896   4.812  17.159  0.00  0.00    +0.000 C 
BRANCH  23  24
ATOM     24  C   UNL     1       6.054   5.455  17.832  0.00  0.00    +0.000 A 
ATOM     25  C   UNL     1       6.936   6.451  17.461  0.00  0.00    +0.000 A 
ATOM     26  C   UNL     1       7.866   6.578  18.521  0.00  0.00    +0.000 A 
ATOM     27  C   UNL     1       7.483   5.665  19.477  0.00  0.00    +0.000 A 
ATOM     28  O   UNL     1       6.380   4.985  19.072  0.00  0.00    +0.000 OA
ENDBRANCH  23  24
ENDBRANCH  21  23
ENDBRANCH  18  21
ENDBRANCH   5  18
TORSDOF 6
ENDMDL
