MODEL 1
REMARK VINA RESULT:      -9.0      0.000      0.000
REMARK  Name = 
REMARK  8 active torsions:
REMARK  status: ('A' for Active; 'I' for Inactive)
REMARK    1  A    between atoms: C_2  and  C_3
REMARK    2  A    between atoms: C_3  and  C_4
REMARK    3  A    between atoms: C_4  and  C_5
REMARK    4  A    between atoms: C_4  and  C_15
REMARK    5  A    between atoms: N_7  and  C_8
REMARK    6  A    between atoms: C_8  and  C_9
REMARK    7  A    between atoms: N_26  and  C_27
REMARK    8  A    between atoms: C_27  and  C_28
REMARK                            x       y       z     vdW  Elec       q    Type
REMARK                         _______ _______ _______ _____ _____    ______ ____
ROOT
ATOM      1  C   UNL     1       5.403   5.121  16.336  0.00  0.00    +0.000 C 
ENDROOT
BRANCH   1   2
ATOM      2  C   UNL     1       5.829   4.900  14.883  0.00  0.00    +0.000 A 
ATOM      3  N   UNL     1       5.127   4.143  14.091  0.00  0.00    +0.000 NA
ATOM      4  C   UNL     1       5.739   3.706  12.896  0.00  0.00    +0.000 A 
ATOM      5  C   UNL     1       5.117   2.702  12.150  0.00  0.00    +0.000 A 
ATOM      6  C   UNL     1       5.864   1.919  11.263  0.00  0.00    +0.000 A 
ATOM      7  C   UNL     1       7.226   2.167  11.084  0.00  0.00    +0.000 A 
ATOM      8  C   UNL     1       7.819   3.267  11.699  0.00  0.00    +0.000 A 
ATOM      9  C   UNL     1       7.062   4.038  12.579  0.00  0.00    +0.000 A 
ATOM     10  C   UNL     1       7.669   5.135  13.338  0.00  0.00    +0.000 A 
ATOM     11  O   UNL     1       8.712   5.678  12.987  0.00  0.00    +0.000 OA
ATOM     12  N   UNL     1       7.039   5.427  14.509  0.00  0.00    +0.000 N 
ATOM     13  H   UNL     1       7.526   6.075  15.124  0.00  0.00    +0.000 HD
ENDBRANCH   1   2
BRANCH   1  14
ATOM     14  C   UNL     1       4.947   6.559  16.595  0.00  0.00    +0.000 C 
ATOM     15  O   UNL     1       5.641   7.527  16.310  0.00  0.00    +0.000 OA
ATOM     16  N   UNL     1       3.734   6.680  17.229  0.00  0.00    +0.000 N 
ATOM     17  H   UNL     1       3.167   5.848  17.345  0.00  0.00    +0.000 HD
BRANCH  16  18
ATOM     18  C   UNL     1       3.151   7.968  17.559  0.00  0.00    +0.000 C 
BRANCH  18  19
ATOM     19  C   UNL     1       2.316   7.964  18.825  0.00  0.00    +0.000 A 
ATOM     20  C   UNL     1       2.305   6.836  19.659  0.00  0.00    +0.000 A 
ATOM     21  C   UNL     1       1.573   6.828  20.853  0.00  0.00    +0.000 A 
ATOM     22  C   UNL     1       0.846   7.953  21.241  0.00  0.00    +0.000 A 
ATOM     23  C   UNL     1       0.833   9.073  20.420  0.00  0.00    +0.000 A 
ATOM     24  C   UNL     1       1.550   9.073  19.215  0.00  0.00    +0.000 A 
ENDBRANCH  18  19
ENDBRANCH  16  18
ENDBRANCH   1  14
BRANCH   1  25
ATOM     25  C   UNL     1       6.583   4.775  17.283  0.00  0.00    +0.000 C 
BRANCH  25  27
ATOM     26  O   UNL     1       6.451   4.933  19.666  0.00  0.00    +0.000 OA
ATOM     27  C   UNL     1       6.113   4.345  18.663  0.00  0.00    +0.000 C 
ATOM     28  N   UNL     1       5.295   3.235  18.693  0.00  0.00    +0.000 N 
ATOM     29  H   UNL     1       5.267   2.660  17.866  0.00  0.00    +0.000 HD
BRANCH  28  30
ATOM     30  C   UNL     1       4.768   2.675  19.922  0.00  0.00    +0.000 C 
BRANCH  30  31
ATOM     31  C   UNL     1       3.277   2.876  20.043  0.00  0.00    +0.000 A 
ATOM     32  C   UNL     1       2.472   2.977  18.896  0.00  0.00    +0.000 A 
ATOM     33  C   UNL     1       1.092   3.161  19.007  0.00  0.00    +0.000 A 
ATOM     34  C   UNL     1       0.499   3.240  20.264  0.00  0.00    +0.000 A 
ATOM     35  C   UNL     1       1.284   3.139  21.411  0.00  0.00    +0.000 A 
ATOM     36  C   UNL     1       2.666   2.966  21.302  0.00  0.00    +0.000 A 
ENDBRANCH  30  31
ENDBRANCH  28  30
ENDBRANCH  25  27
ENDBRANCH   1  25
TORSDOF 8
ENDMDL
MODEL 2
REMARK VINA RESULT:      -8.8      3.716      5.965
REMARK  Name = 
REMARK  8 active torsions:
REMARK  status: ('A' for Active; 'I' for Inactive)
REMARK    1  A    between atoms: C_2  and  C_3
REMARK    2  A    between atoms: C_3  and  C_4
REMARK    3  A    between atoms: C_4  and  C_5
REMARK    4  A    between atoms: C_4  and  C_15
REMARK    5  A    between atoms: N_7  and  C_8
REMARK    6  A    between atoms: C_8  and  C_9
REMARK    7  A    between atoms: N_26  and  C_27
REMARK    8  A    between atoms: C_27  and  C_28
REMARK                            x       y       z     vdW  Elec       q    Type
REMARK                         _______ _______ _______ _____ _____    ______ ____
ROOT
ATOM      1  C   UNL     1       6.641   5.021  17.542  0.00  0.00    +0.000 C 
ENDROOT
BRANCH   1   2
ATOM      2  C   UNL     1       6.549   5.054  16.014  0.00  0.00    +0.000 A 
ATOM      3  N   UNL     1       5.547   4.502  15.396  0.00  0.00    +0.000 NA
ATOM      4  C   UNL     1       5.687   4.265  14.011  0.00  0.00    +0.000 A 
ATOM      5  C   UNL     1       4.745   3.458  13.368  0.00  0.00    +0.000 A 
ATOM      6  C   UNL     1       5.072   2.814  12.169  0.00  0.00    +0.000 A 
ATOM      7  C   UNL     1       6.323   3.013  11.583  0.00  0.00    +0.000 A 
ATOM      8  C   UNL     1       7.206   3.941  12.130  0.00  0.00    +0.000 A 
ATOM      9  C   UNL     1       6.868   4.575  13.324  0.00  0.00    +0.000 A 
ATOM     10  C   UNL     1       7.809   5.471  13.998  0.00  0.00    +0.000 A 
ATOM     11  O   UNL     1       8.741   6.010  13.407  0.00  0.00    +0.000 OA
ATOM     12  N   UNL     1       7.628   5.573  15.344  0.00  0.00    +0.000 N 
ATOM     13  H   UNL     1       8.359   6.064  15.854  0.00  0.00    +0.000 HD
ENDBRANCH   1   2
BRANCH   1  14
ATOM     14  C   UNL     1       5.322   5.414  18.212  0.00  0.00    +0.000 C 
ATOM     15  O   UNL     1       5.176   5.402  19.428  0.00  0.00    +0.000 OA
ATOM     16  N   UNL     1       4.299   5.718  17.347  0.00  0.00    +0.000 N 
ATOM     17  H   UNL     1       4.513   5.807  16.360  0.00  0.00    +0.000 HD
BRANCH  16  18
ATOM     18  C   UNL     1       2.977   6.105  17.806  0.00  0.00    +0.000 C 
BRANCH  18  19
ATOM     19  C   UNL     1       2.215   4.997  18.506  0.00  0.00    +0.000 A 
ATOM     20  C   UNL     1       1.902   3.815  17.820  0.00  0.00    +0.000 A 
ATOM     21  C   UNL     1       1.234   2.763  18.461  0.00  0.00    +0.000 A 
ATOM     22  C   UNL     1       0.876   2.870  19.804  0.00  0.00    +0.000 A 
ATOM     23  C   UNL     1       1.165   4.040  20.495  0.00  0.00    +0.000 A 
ATOM     24  C   UNL     1       1.815   5.100  19.848  0.00  0.00    +0.000 A 
ENDBRANCH  18  19
ENDBRANCH  16  18
ENDBRANCH   1  14
BRANCH   1  25
ATOM     25  C   UNL     1       7.766   5.979  18.016  0.00  0.00    +0.000 C 
BRANCH  25  27
ATOM     26  O   UNL     1       6.598   7.735  16.887  0.00  0.00    +0.000 OA
ATOM     27  C   UNL     1       7.487   7.427  17.649  0.00  0.00    +0.000 C 
ATOM     28  N   UNL     1       8.324   8.360  18.228  0.00  0.00    +0.000 N 
ATOM     29  H   UNL     1       9.180   8.020  18.636  0.00  0.00    +0.000 HD
BRANCH  28  30
ATOM     30  C   UNL     1       8.214   9.783  17.977  0.00  0.00    +0.000 C 
BRANCH  30  31
ATOM     31  C   UNL     1       9.334  10.561  18.626  0.00  0.00    +0.000 A 
ATOM     32  C   UNL     1       9.368  10.740  20.018  0.00  0.00    +0.000 A 
ATOM     33  C   UNL     1      10.405  11.457  20.620  0.00  0.00    +0.000 A 
ATOM     34  C   UNL     1      11.420  12.001  19.838  0.00  0.00    +0.000 A 
ATOM     35  C   UNL     1      11.401  11.831  18.455  0.00  0.00    +0.000 A 
ATOM     36  C   UNL     1      10.359  11.122  17.850  0.00  0.00    +0.000 A 
ENDBRANCH  30  31
ENDBRANCH  28  30
ENDBRANCH  25  27
ENDBRANCH   1  25
TORSDOF 8
ENDMDL
MODEL 3
REMARK VINA RESULT:      -8.6      3.399      5.873
REMARK  Name = 
REMARK  8 active torsions:
REMARK  status: ('A' for Active; 'I' for Inactive)
REMARK    1  A    between atoms: C_2  and  C_3
REMARK    2  A    between atoms: C_3  and  C_4
REMARK    3  A    between atoms: C_4  and  C_5
REMARK    4  A    between atoms: C_4  and  C_15
REMARK    5  A    between atoms: N_7  and  C_8
REMARK    6  A    between atoms: C_8  and  C_9
REMARK    7  A    between atoms: N_26  and  C_27
REMARK    8  A    between atoms: C_27  and  C_28
REMARK                            x       y       z     vdW  Elec       q    Type
REMARK                         _______ _______ _______ _____ _____    ______ ____
ROOT
ATOM      1  C   UNL     1       5.759   5.365  16.649  0.00  0.00    +0.000 C 
ENDROOT
BRANCH   1   2
ATOM      2  C   UNL     1       6.031   5.129  15.161  0.00  0.00    +0.000 A 
ATOM      3  N   UNL     1       5.192   4.455  14.430  0.00  0.00    +0.000 NA
ATOM      4  C   UNL     1       5.650   3.983  13.181  0.00  0.00    +0.000 A 
ATOM      5  C   UNL     1       4.872   3.055  12.486  0.00  0.00    +0.000 A 
ATOM      6  C   UNL     1       5.459   2.220  11.529  0.00  0.00    +0.000 A 
ATOM      7  C   UNL     1       6.817   2.342  11.228  0.00  0.00    +0.000 A 
ATOM      8  C   UNL     1       7.564   3.371  11.797  0.00  0.00    +0.000 A 
ATOM      9  C   UNL     1       6.966   4.195  12.748  0.00  0.00    +0.000 A 
ATOM     10  C   UNL     1       7.739   5.217  13.458  0.00  0.00    +0.000 A 
ATOM     11  O   UNL     1       8.793   5.665  13.018  0.00  0.00    +0.000 OA
ATOM     12  N   UNL     1       7.247   5.547  14.684  0.00  0.00    +0.000 N 
ATOM     13  H   UNL     1       7.847   6.136  15.257  0.00  0.00    +0.000 HD
ENDBRANCH   1   2
BRANCH   1  14
ATOM     14  C   UNL     1       4.336   4.968  17.050  0.00  0.00    +0.000 C 
ATOM     15  O   UNL     1       3.512   5.788  17.436  0.00  0.00    +0.000 OA
ATOM     16  N   UNL     1       4.074   3.620  17.005  0.00  0.00    +0.000 N 
ATOM     17  H   UNL     1       4.763   3.009  16.582  0.00  0.00    +0.000 HD
BRANCH  16  18
ATOM     18  C   UNL     1       2.780   3.065  17.357  0.00  0.00    +0.000 C 
BRANCH  18  19
ATOM     19  C   UNL     1       2.466   3.116  18.839  0.00  0.00    +0.000 A 
ATOM     20  C   UNL     1       1.300   3.749  19.293  0.00  0.00    +0.000 A 
ATOM     21  C   UNL     1       0.971   3.771  20.654  0.00  0.00    +0.000 A 
ATOM     22  C   UNL     1       1.799   3.150  21.588  0.00  0.00    +0.000 A 
ATOM     23  C   UNL     1       2.966   2.531  21.160  0.00  0.00    +0.000 A 
ATOM     24  C   UNL     1       3.305   2.527  19.799  0.00  0.00    +0.000 A 
ENDBRANCH  18  19
ENDBRANCH  16  18
ENDBRANCH   1  14
BRANCH   1  25
ATOM     25  C   UNL     1       5.993   6.861  16.990  0.00  0.00    +0.000 C 
BRANCH  25  27
ATOM     26  O   UNL     1       7.839   6.159  18.338  0.00  0.00    +0.000 OA
ATOM     27  C   UNL     1       7.249   7.078  17.817  0.00  0.00    +0.000 C 
ATOM     28  N   UNL     1       7.657   8.390  17.946  0.00  0.00    +0.000 N 
ATOM     29  H   UNL     1       6.990   9.106  17.707  0.00  0.00    +0.000 HD
BRANCH  28  30
ATOM     30  C   UNL     1       8.823   8.783  18.713  0.00  0.00    +0.000 C 
BRANCH  30  31
ATOM     31  C   UNL     1       9.061  10.273  18.659  0.00  0.00    +0.000 A 
ATOM     32  C   UNL     1       9.953  10.889  19.552  0.00  0.00    +0.000 A 
ATOM     33  C   UNL     1      10.176  12.267  19.501  0.00  0.00    +0.000 A 
ATOM     34  C   UNL     1       9.514  13.045  18.555  0.00  0.00    +0.000 A 
ATOM     35  C   UNL     1       8.628  12.448  17.660  0.00  0.00    +0.000 A 
ATOM     36  C   UNL     1       8.396  11.071  17.716  0.00  0.00    +0.000 A 
ENDBRANCH  30  31
ENDBRANCH  28  30
ENDBRANCH  25  27
ENDBRANCH   1  25
TORSDOF 8
ENDMDL
MODEL 4
REMARK VINA RESULT:      -8.4      4.745     10.072
REMARK  Name = 
REMARK  8 active torsions:
REMARK  status: ('A' for Active; 'I' for Inactive)
REMARK    1  A    between atoms: C_2  and  C_3
REMARK    2  A    between atoms: C_3  and  C_4
REMARK    3  A    between atoms: C_4  and  C_5
REMARK    4  A    between atoms: C_4  and  C_15
REMARK    5  A    between atoms: N_7  and  C_8
REMARK    6  A    between atoms: C_8  and  C_9
REMARK    7  A    between atoms: N_26  and  C_27
REMARK    8  A    between atoms: C_27  and  C_28
REMARK                            x       y       z     vdW  Elec       q    Type
REMARK                         _______ _______ _______ _____ _____    ______ ____
ROOT
ATOM      1  C   UNL     1       1.053   9.950  19.353  0.00  0.00    +0.000 C 
ENDROOT
BRANCH   1   2
ATOM      2  C   UNL     1      -0.232  10.507  18.735  0.00  0.00    +0.000 A 
ATOM      3  N   UNL     1      -0.913  11.436  19.339  0.00  0.00    +0.000 NA
ATOM      4  C   UNL     1      -2.238  11.659  18.906  0.00  0.00    +0.000 A 
ATOM      5  C   UNL     1      -3.073  12.464  19.684  0.00  0.00    +0.000 A 
ATOM      6  C   UNL     1      -4.463  12.341  19.582  0.00  0.00    +0.000 A 
ATOM      7  C   UNL     1      -5.024  11.447  18.669  0.00  0.00    +0.000 A 
ATOM      8  C   UNL     1      -4.204  10.759  17.777  0.00  0.00    +0.000 A 
ATOM      9  C   UNL     1      -2.822  10.892  17.890  0.00  0.00    +0.000 A 
ATOM     10  C   UNL     1      -1.915  10.104  17.052  0.00  0.00    +0.000 A 
ATOM     11  O   UNL     1      -2.271   9.602  15.990  0.00  0.00    +0.000 OA
ATOM     12  N   UNL     1      -0.685   9.890  17.597  0.00  0.00    +0.000 N 
ATOM     13  H   UNL     1      -0.095   9.220  17.108  0.00  0.00    +0.000 HD
ENDBRANCH   1   2
BRANCH   1  14
ATOM     14  C   UNL     1       1.974   9.316  18.306  0.00  0.00    +0.000 C 
ATOM     15  O   UNL     1       2.205   9.851  17.229  0.00  0.00    +0.000 OA
ATOM     16  N   UNL     1       2.467   8.078  18.639  0.00  0.00    +0.000 N 
ATOM     17  H   UNL     1       2.320   7.739  19.583  0.00  0.00    +0.000 HD
BRANCH  16  18
ATOM     18  C   UNL     1       3.349   7.328  17.764  0.00  0.00    +0.000 C 
BRANCH  18  19
ATOM     19  C   UNL     1       3.053   5.843  17.709  0.00  0.00    +0.000 A 
ATOM     20  C   UNL     1       4.047   4.940  17.304  0.00  0.00    +0.000 A 
ATOM     21  C   UNL     1       3.806   3.560  17.287  0.00  0.00    +0.000 A 
ATOM     22  C   UNL     1       2.568   3.057  17.684  0.00  0.00    +0.000 A 
ATOM     23  C   UNL     1       1.567   3.937  18.074  0.00  0.00    +0.000 A 
ATOM     24  C   UNL     1       1.803   5.319  18.072  0.00  0.00    +0.000 A 
ENDBRANCH  18  19
ENDBRANCH  16  18
ENDBRANCH   1  14
BRANCH   1  25
ATOM     25  C   UNL     1       0.695   8.893  20.432  0.00  0.00    +0.000 C 
BRANCH  25  27
ATOM     26  O   UNL     1       1.375   9.550  22.629  0.00  0.00    +0.000 OA
ATOM     27  C   UNL     1       0.490   9.512  21.805  0.00  0.00    +0.000 C 
ATOM     28  N   UNL     1      -0.774  10.010  22.049  0.00  0.00    +0.000 N 
ATOM     29  H   UNL     1      -1.512   9.720  21.429  0.00  0.00    +0.000 HD
BRANCH  28  30
ATOM     30  C   UNL     1      -1.153  10.619  23.309  0.00  0.00    +0.000 C 
BRANCH  30  31
ATOM     31  C   UNL     1      -1.708  12.011  23.122  0.00  0.00    +0.000 A 
ATOM     32  C   UNL     1      -0.888  13.053  22.658  0.00  0.00    +0.000 A 
ATOM     33  C   UNL     1      -1.402  14.340  22.482  0.00  0.00    +0.000 A 
ATOM     34  C   UNL     1      -2.741  14.600  22.763  0.00  0.00    +0.000 A 
ATOM     35  C   UNL     1      -3.567  13.575  23.222  0.00  0.00    +0.000 A 
ATOM     36  C   UNL     1      -3.053  12.289  23.408  0.00  0.00    +0.000 A 
ENDBRANCH  30  31
ENDBRANCH  28  30
ENDBRANCH  25  27
ENDBRANCH   1  25
TORSDOF 8
ENDMDL
MODEL 5
REMARK VINA RESULT:      -8.3      1.321      6.686
REMARK  Name = 
REMARK  8 active torsions:
REMARK  status: ('A' for Active; 'I' for Inactive)
REMARK    1  A    between atoms: C_2  and  C_3
REMARK    2  A    between atoms: C_3  and  C_4
REMARK    3  A    between atoms: C_4  and  C_5
REMARK    4  A    between atoms: C_4  and  C_15
REMARK    5  A    between atoms: N_7  and  C_8
REMARK    6  A    between atoms: C_8  and  C_9
REMARK    7  A    between atoms: N_26  and  C_27
REMARK    8  A    between atoms: C_27  and  C_28
REMARK                            x       y       z     vdW  Elec       q    Type
REMARK                         _______ _______ _______ _____ _____    ______ ____
ROOT
ATOM      1  C   UNL     1       6.189   5.086  17.866  0.00  0.00    +0.000 C 
ENDROOT
BRANCH   1   2
ATOM      2  C   UNL     1       5.128   4.152  18.454  0.00  0.00    +0.000 A 
ATOM      3  N   UNL     1       3.863   4.358  18.229  0.00  0.00    +0.000 NA
ATOM      4  C   UNL     1       2.936   3.690  19.059  0.00  0.00    +0.000 A 
ATOM      5  C   UNL     1       1.594   4.072  19.012  0.00  0.00    +0.000 A 
ATOM      6  C   UNL     1       0.749   3.808  20.096  0.00  0.00    +0.000 A 
ATOM      7  C   UNL     1       1.231   3.117  21.210  0.00  0.00    +0.000 A 
ATOM      8  C   UNL     1       2.520   2.591  21.197  0.00  0.00    +0.000 A 
ATOM      9  C   UNL     1       3.350   2.862  20.110  0.00  0.00    +0.000 A 
ATOM     10  C   UNL     1       4.749   2.428  20.100  0.00  0.00    +0.000 A 
ATOM     11  O   UNL     1       5.158   1.515  20.811  0.00  0.00    +0.000 OA
ATOM     12  N   UNL     1       5.569   3.185  19.321  0.00  0.00    +0.000 N 
ATOM     13  H   UNL     1       6.566   3.001  19.417  0.00  0.00    +0.000 HD
ENDBRANCH   1   2
BRANCH   1  14
ATOM     14  C   UNL     1       5.580   6.361  17.279  0.00  0.00    +0.000 C 
ATOM     15  O   UNL     1       6.234   7.149  16.608  0.00  0.00    +0.000 OA
ATOM     16  N   UNL     1       4.267   6.587  17.615  0.00  0.00    +0.000 N 
ATOM     17  H   UNL     1       3.757   5.849  18.087  0.00  0.00    +0.000 HD
BRANCH  16  18
ATOM     18  C   UNL     1       3.532   7.750  17.153  0.00  0.00    +0.000 C 
BRANCH  18  19
ATOM     19  C   UNL     1       2.539   8.296  18.160  0.00  0.00    +0.000 A 
ATOM     20  C   UNL     1       2.324   7.627  19.373  0.00  0.00    +0.000 A 
ATOM     21  C   UNL     1       1.442   8.137  20.334  0.00  0.00    +0.000 A 
ATOM     22  C   UNL     1       0.765   9.333  20.103  0.00  0.00    +0.000 A 
ATOM     23  C   UNL     1       0.953  10.002  18.901  0.00  0.00    +0.000 A 
ATOM     24  C   UNL     1       1.821   9.481  17.931  0.00  0.00    +0.000 A 
ENDBRANCH  18  19
ENDBRANCH  16  18
ENDBRANCH   1  14
BRANCH   1  25
ATOM     25  C   UNL     1       6.985   4.338  16.763  0.00  0.00    +0.000 C 
BRANCH  25  27
ATOM     26  O   UNL     1       5.207   4.397  15.165  0.00  0.00    +0.000 OA
ATOM     27  C   UNL     1       6.389   4.542  15.380  0.00  0.00    +0.000 C 
ATOM     28  N   UNL     1       7.287   4.884  14.389  0.00  0.00    +0.000 N 
ATOM     29  H   UNL     1       8.264   4.737  14.583  0.00  0.00    +0.000 HD
BRANCH  28  30
ATOM     30  C   UNL     1       6.897   5.099  13.010  0.00  0.00    +0.000 C 
BRANCH  30  31
ATOM     31  C   UNL     1       6.617   3.801  12.291  0.00  0.00    +0.000 A 
ATOM     32  C   UNL     1       7.670   3.006  11.812  0.00  0.00    +0.000 A 
ATOM     33  C   UNL     1       7.412   1.803  11.149  0.00  0.00    +0.000 A 
ATOM     34  C   UNL     1       6.099   1.381  10.961  0.00  0.00    +0.000 A 
ATOM     35  C   UNL     1       5.043   2.159  11.432  0.00  0.00    +0.000 A 
ATOM     36  C   UNL     1       5.299   3.367  12.086  0.00  0.00    +0.000 A 
ENDBRANCH  30  31
ENDBRANCH  28  30
ENDBRANCH  25  27
ENDBRANCH   1  25
TORSDOF 8
ENDMDL
MODEL 6
REMARK VINA RESULT:      -8.2      5.197      9.494
REMARK  Name = 
REMARK  8 active torsions:
REMARK  status: ('A' for Active; 'I' for Inactive)
REMARK    1  A    between atoms: C_2  and  C_3
REMARK    2  A    between atoms: C_3  and  C_4
REMARK    3  A    between atoms: C_4  and  C_5
REMARK    4  A    between atoms: C_4  and  C_15
REMARK    5  A    between atoms: N_7  and  C_8
REMARK    6  A    between atoms: C_8  and  C_9
REMARK    7  A    between atoms: N_26  and  C_27
REMARK    8  A    between atoms: C_27  and  C_28
REMARK                            x       y       z     vdW  Elec       q    Type
REMARK                         _______ _______ _______ _____ _____    ______ ____
ROOT
ATOM      1  C   UNL     1      -0.243   9.629  19.297  0.00  0.00    +0.000 C 
ENDROOT
BRANCH   1   2
ATOM      2  C   UNL     1      -1.302  10.475  18.586  0.00  0.00    +0.000 A 
ATOM      3  N   UNL     1      -2.104  11.244  19.263  0.00  0.00    +0.000 NA
ATOM      4  C   UNL     1      -3.258  11.723  18.605  0.00  0.00    +0.000 A 
ATOM      5  C   UNL     1      -4.258  12.337  19.363  0.00  0.00    +0.000 A 
ATOM      6  C   UNL     1      -5.571  12.394  18.881  0.00  0.00    +0.000 A 
ATOM      7  C   UNL     1      -5.880  11.880  17.621  0.00  0.00    +0.000 A 
ATOM      8  C   UNL     1      -4.861  11.412  16.793  0.00  0.00    +0.000 A 
ATOM      9  C   UNL     1      -3.559  11.362  17.286  0.00  0.00    +0.000 A 
ATOM     10  C   UNL     1      -2.474  10.774  16.497  0.00  0.00    +0.000 A 
ATOM     11  O   UNL     1      -2.539  10.655  15.277  0.00  0.00    +0.000 OA
ATOM     12  N   UNL     1      -1.442  10.280  17.235  0.00  0.00    +0.000 N 
ATOM     13  H   UNL     1      -0.754   9.732  16.724  0.00  0.00    +0.000 HD
ENDBRANCH   1   2
BRANCH   1  14
ATOM     14  C   UNL     1      -0.352   9.722  20.821  0.00  0.00    +0.000 C 
ATOM     15  O   UNL     1      -0.397   8.729  21.535  0.00  0.00    +0.000 OA
ATOM     16  N   UNL     1      -0.460  10.998  21.319  0.00  0.00    +0.000 N 
ATOM     17  H   UNL     1      -0.316  11.776  20.686  0.00  0.00    +0.000 HD
BRANCH  16  18
ATOM     18  C   UNL     1      -0.580  11.273  22.739  0.00  0.00    +0.000 C 
BRANCH  18  19
ATOM     19  C   UNL     1      -1.589  12.352  23.079  0.00  0.00    +0.000 A 
ATOM     20  C   UNL     1      -1.164  13.668  23.312  0.00  0.00    +0.000 A 
ATOM     21  C   UNL     1      -2.085  14.687  23.587  0.00  0.00    +0.000 A 
ATOM     22  C   UNL     1      -3.451  14.410  23.623  0.00  0.00    +0.000 A 
ATOM     23  C   UNL     1      -3.889  13.109  23.410  0.00  0.00    +0.000 A 
ATOM     24  C   UNL     1      -2.966  12.086  23.155  0.00  0.00    +0.000 A 
ENDBRANCH  18  19
ENDBRANCH  16  18
ENDBRANCH   1  14
BRANCH   1  25
ATOM     25  C   UNL     1       1.172  10.086  18.852  0.00  0.00    +0.000 C 
BRANCH  25  27
ATOM     26  O   UNL     1       2.379   9.013  17.087  0.00  0.00    +0.000 OA
ATOM     27  C   UNL     1       1.976   8.957  18.227  0.00  0.00    +0.000 C 
ATOM     28  N   UNL     1       2.197   7.864  19.040  0.00  0.00    +0.000 N 
ATOM     29  H   UNL     1       1.627   7.781  19.866  0.00  0.00    +0.000 HD
BRANCH  28  30
ATOM     30  C   UNL     1       2.929   6.691  18.604  0.00  0.00    +0.000 C 
BRANCH  30  31
ATOM     31  C   UNL     1       2.225   5.411  18.985  0.00  0.00    +0.000 A 
ATOM     32  C   UNL     1       1.848   5.169  20.316  0.00  0.00    +0.000 A 
ATOM     33  C   UNL     1       1.195   3.986  20.670  0.00  0.00    +0.000 A 
ATOM     34  C   UNL     1       0.908   3.032  19.697  0.00  0.00    +0.000 A 
ATOM     35  C   UNL     1       1.275   3.258  18.371  0.00  0.00    +0.000 A 
ATOM     36  C   UNL     1       1.937   4.437  18.017  0.00  0.00    +0.000 A 
ENDBRANCH  30  31
ENDBRANCH  28  30
ENDBRANCH  25  27
ENDBRANCH   1  25
TORSDOF 8
ENDMDL
MODEL 7
REMARK VINA RESULT:      -8.1      5.181      9.376
REMARK  Name = 
REMARK  8 active torsions:
REMARK  status: ('A' for Active; 'I' for Inactive)
REMARK    1  A    between atoms: C_2  and  C_3
REMARK    2  A    between atoms: C_3  and  C_4
REMARK    3  A    between atoms: C_4  and  C_5
REMARK    4  A    between atoms: C_4  and  C_15
REMARK    5  A    between atoms: N_7  and  C_8
REMARK    6  A    between atoms: C_8  and  C_9
REMARK    7  A    between atoms: N_26  and  C_27
REMARK    8  A    between atoms: C_27  and  C_28
REMARK                            x       y       z     vdW  Elec       q    Type
REMARK                         _______ _______ _______ _____ _____    ______ ____
ROOT
ATOM      1  C   UNL     1       0.186  10.015  18.951  0.00  0.00    +0.000 C 
ENDROOT
BRANCH   1   2
ATOM      2  C   UNL     1      -1.049  10.700  18.361  0.00  0.00    +0.000 A 
ATOM      3  N   UNL     1      -1.839  11.411  19.111  0.00  0.00    +0.000 NA
ATOM      4  C   UNL     1      -3.118  11.722  18.600  0.00  0.00    +0.000 A 
ATOM      5  C   UNL     1      -4.074  12.262  19.463  0.00  0.00    +0.000 A 
ATOM      6  C   UNL     1      -5.436  12.147  19.165  0.00  0.00    +0.000 A 
ATOM      7  C   UNL     1      -5.847  11.534  17.980  0.00  0.00    +0.000 A 
ATOM      8  C   UNL     1      -4.899  11.138  17.039  0.00  0.00    +0.000 A 
ATOM      9  C   UNL     1      -3.546  11.259  17.349  0.00  0.00    +0.000 A 
ATOM     10  C   UNL     1      -2.514  10.753  16.442  0.00  0.00    +0.000 A 
ATOM     11  O   UNL     1      -2.725  10.562  15.248  0.00  0.00    +0.000 OA
ATOM     12  N   UNL     1      -1.342  10.417  17.050  0.00  0.00    +0.000 N 
ATOM     13  H   UNL     1      -0.668   9.922  16.471  0.00  0.00    +0.000 HD
ENDBRANCH   1   2
BRANCH   1  14
ATOM     14  C   UNL     1       0.986  10.948  19.865  0.00  0.00    +0.000 C 
ATOM     15  O   UNL     1       1.236  10.666  21.029  0.00  0.00    +0.000 OA
ATOM     16  N   UNL     1       1.342  12.149  19.300  0.00  0.00    +0.000 N 
ATOM     17  H   UNL     1       1.193  12.277  18.306  0.00  0.00    +0.000 HD
BRANCH  16  18
ATOM     18  C   UNL     1       2.097  13.157  20.023  0.00  0.00    +0.000 C 
BRANCH  18  19
ATOM     19  C   UNL     1       2.433  14.386  19.202  0.00  0.00    +0.000 A 
ATOM     20  C   UNL     1       3.513  14.363  18.307  0.00  0.00    +0.000 A 
ATOM     21  C   UNL     1       3.815  15.474  17.510  0.00  0.00    +0.000 A 
ATOM     22  C   UNL     1       3.036  16.627  17.585  0.00  0.00    +0.000 A 
ATOM     23  C   UNL     1       1.972  16.674  18.477  0.00  0.00    +0.000 A 
ATOM     24  C   UNL     1       1.682  15.569  19.289  0.00  0.00    +0.000 A 
ENDBRANCH  18  19
ENDBRANCH  16  18
ENDBRANCH   1  14
BRANCH   1  25
ATOM     25  C   UNL     1       1.100   9.511  17.802  0.00  0.00    +0.000 C 
BRANCH  25  27
ATOM     26  O   UNL     1       3.095   8.200  17.656  0.00  0.00    +0.000 OA
ATOM     27  C   UNL     1       2.078   8.444  18.266  0.00  0.00    +0.000 C 
ATOM     28  N   UNL     1       1.720   7.767  19.414  0.00  0.00    +0.000 N 
ATOM     29  H   UNL     1       0.762   7.844  19.714  0.00  0.00    +0.000 HD
BRANCH  28  30
ATOM     30  C   UNL     1       2.524   6.707  19.989  0.00  0.00    +0.000 C 
BRANCH  30  31
ATOM     31  C   UNL     1       1.999   5.338  19.629  0.00  0.00    +0.000 A 
ATOM     32  C   UNL     1       1.398   4.523  20.602  0.00  0.00    +0.000 A 
ATOM     33  C   UNL     1       0.909   3.257  20.270  0.00  0.00    +0.000 A 
ATOM     34  C   UNL     1       1.012   2.793  18.962  0.00  0.00    +0.000 A 
ATOM     35  C   UNL     1       1.605   3.591  17.985  0.00  0.00    +0.000 A 
ATOM     36  C   UNL     1       2.103   4.853  18.317  0.00  0.00    +0.000 A 
ENDBRANCH  30  31
ENDBRANCH  28  30
ENDBRANCH  25  27
ENDBRANCH   1  25
TORSDOF 8
ENDMDL
MODEL 8
REMARK VINA RESULT:      -8.1      3.544      7.416
REMARK  Name = 
REMARK  8 active torsions:
REMARK  status: ('A' for Active; 'I' for Inactive)
REMARK    1  A    between atoms: C_2  and  C_3
REMARK    2  A    between atoms: C_3  and  C_4
REMARK    3  A    between atoms: C_4  and  C_5
REMARK    4  A    between atoms: C_4  and  C_15
REMARK    5  A    between atoms: N_7  and  C_8
REMARK    6  A    between atoms: C_8  and  C_9
REMARK    7  A    between atoms: N_26  and  C_27
REMARK    8  A    between atoms: C_27  and  C_28
REMARK                            x       y       z     vdW  Elec       q    Type
REMARK                         _______ _______ _______ _____ _____    ______ ____
ROOT
ATOM      1  C   UNL     1       7.010   5.686  18.086  0.00  0.00    +0.000 C 
ENDROOT
BRANCH   1   2
ATOM      2  C   UNL     1       5.612   5.372  18.623  0.00  0.00    +0.000 A 
ATOM      3  N   UNL     1       5.386   4.281  19.295  0.00  0.00    +0.000 NA
ATOM      4  C   UNL     1       4.042   3.884  19.461  0.00  0.00    +0.000 A 
ATOM      5  C   UNL     1       3.774   2.605  19.955  0.00  0.00    +0.000 A 
ATOM      6  C   UNL     1       2.540   1.996  19.699  0.00  0.00    +0.000 A 
ATOM      7  C   UNL     1       1.552   2.682  18.991  0.00  0.00    +0.000 A 
ATOM      8  C   UNL     1       1.749   4.015  18.636  0.00  0.00    +0.000 A 
ATOM      9  C   UNL     1       2.983   4.608  18.897  0.00  0.00    +0.000 A 
ATOM     10  C   UNL     1       3.280   5.968  18.442  0.00  0.00    +0.000 A 
ATOM     11  O   UNL     1       2.397   6.777  18.171  0.00  0.00    +0.000 OA
ATOM     12  N   UNL     1       4.603   6.223  18.248  0.00  0.00    +0.000 N 
ATOM     13  H   UNL     1       4.821   7.104  17.787  0.00  0.00    +0.000 HD
ENDBRANCH   1   2
BRANCH   1  14
ATOM     14  C   UNL     1       7.087   7.072  17.441  0.00  0.00    +0.000 C 
ATOM     15  O   UNL     1       6.440   7.367  16.444  0.00  0.00    +0.000 OA
ATOM     16  N   UNL     1       7.982   7.936  18.025  0.00  0.00    +0.000 N 
ATOM     17  H   UNL     1       8.409   7.666  18.903  0.00  0.00    +0.000 HD
BRANCH  16  18
ATOM     18  C   UNL     1       8.190   9.289  17.540  0.00  0.00    +0.000 C 
BRANCH  18  19
ATOM     19  C   UNL     1       9.069  10.140  18.435  0.00  0.00    +0.000 A 
ATOM     20  C   UNL     1       9.993  11.033  17.874  0.00  0.00    +0.000 A 
ATOM     21  C   UNL     1      10.784  11.858  18.684  0.00  0.00    +0.000 A 
ATOM     22  C   UNL     1      10.659  11.811  20.071  0.00  0.00    +0.000 A 
ATOM     23  C   UNL     1       9.760  10.922  20.646  0.00  0.00    +0.000 A 
ATOM     24  C   UNL     1       8.983  10.083  19.836  0.00  0.00    +0.000 A 
ENDBRANCH  18  19
ENDBRANCH  16  18
ENDBRANCH   1  14
BRANCH   1  25
ATOM     25  C   UNL     1       7.422   4.610  17.046  0.00  0.00    +0.000 C 
BRANCH  25  27
ATOM     26  O   UNL     1       5.393   3.647  16.225  0.00  0.00    +0.000 OA
ATOM     27  C   UNL     1       6.342   4.366  16.006  0.00  0.00    +0.000 C 
ATOM     28  N   UNL     1       6.527   5.003  14.796  0.00  0.00    +0.000 N 
ATOM     29  H   UNL     1       7.445   5.367  14.602  0.00  0.00    +0.000 HD
BRANCH  28  30
ATOM     30  C   UNL     1       5.605   4.869  13.684  0.00  0.00    +0.000 C 
BRANCH  30  31
ATOM     31  C   UNL     1       6.025   3.779  12.728  0.00  0.00    +0.000 A 
ATOM     32  C   UNL     1       5.090   2.845  12.251  0.00  0.00    +0.000 A 
ATOM     33  C   UNL     1       5.477   1.837  11.365  0.00  0.00    +0.000 A 
ATOM     34  C   UNL     1       6.800   1.752  10.942  0.00  0.00    +0.000 A 
ATOM     35  C   UNL     1       7.739   2.672  11.405  0.00  0.00    +0.000 A 
ATOM     36  C   UNL     1       7.357   3.675  12.300  0.00  0.00    +0.000 A 
ENDBRANCH  30  31
ENDBRANCH  28  30
ENDBRANCH  25  27
ENDBRANCH   1  25
TORSDOF 8
ENDMDL
MODEL 9
REMARK VINA RESULT:      -8.1      5.244     10.385
REMARK  Name = 
REMARK  8 active torsions:
REMARK  status: ('A' for Active; 'I' for Inactive)
REMARK    1  A    between atoms: C_2  and  C_3
REMARK    2  A    between atoms: C_3  and  C_4
REMARK    3  A    between atoms: C_4  and  C_5
REMARK    4  A    between atoms: C_4  and  C_15
REMARK    5  A    between atoms: N_7  and  C_8
REMARK    6  A    between atoms: C_8  and  C_9
REMARK    7  A    between atoms: N_26  and  C_27
REMARK    8  A    between atoms: C_27  and  C_28
REMARK                            x       y       z     vdW  Elec       q    Type
REMARK                         _______ _______ _______ _____ _____    ______ ____
ROOT
ATOM      1  C   UNL     1       0.487  10.227  19.527  0.00  0.00    +0.000 C 
ENDROOT
BRANCH   1   2
ATOM      2  C   UNL     1      -0.747  10.661  18.732  0.00  0.00    +0.000 A 
ATOM      3  N   UNL     1      -1.591  11.517  19.228  0.00  0.00    +0.000 NA
ATOM      4  C   UNL     1      -2.859  11.613  18.615  0.00  0.00    +0.000 A 
ATOM      5  C   UNL     1      -3.867  12.331  19.262  0.00  0.00    +0.000 A 
ATOM      6  C   UNL     1      -5.212  12.074  18.971  0.00  0.00    +0.000 A 
ATOM      7  C   UNL     1      -5.552  11.134  17.996  0.00  0.00    +0.000 A 
ATOM      8  C   UNL     1      -4.555  10.533  17.232  0.00  0.00    +0.000 A 
ATOM      9  C   UNL     1      -3.220  10.799  17.534  0.00  0.00    +0.000 A 
ATOM     10  C   UNL     1      -2.135  10.105  16.837  0.00  0.00    +0.000 A 
ATOM     11  O   UNL     1      -2.291   9.576  15.740  0.00  0.00    +0.000 OA
ATOM     12  N   UNL     1      -0.978  10.008  17.548  0.00  0.00    +0.000 N 
ATOM     13  H   UNL     1      -0.264   9.401  17.151  0.00  0.00    +0.000 HD
ENDBRANCH   1   2
BRANCH   1  14
ATOM     14  C   UNL     1       1.411   9.317  18.713  0.00  0.00    +0.000 C 
ATOM     15  O   UNL     1       1.794   9.611  17.587  0.00  0.00    +0.000 OA
ATOM     16  N   UNL     1       1.726   8.122  19.313  0.00  0.00    +0.000 N 
ATOM     17  H   UNL     1       1.461   7.985  20.281  0.00  0.00    +0.000 HD
BRANCH  16  18
ATOM     18  C   UNL     1       2.584   7.135  18.683  0.00  0.00    +0.000 C 
BRANCH  18  19
ATOM     19  C   UNL     1       2.185   5.699  18.961  0.00  0.00    +0.000 A 
ATOM     20  C   UNL     1       1.860   5.297  20.264  0.00  0.00    +0.000 A 
ATOM     21  C   UNL     1       1.449   3.986  20.535  0.00  0.00    +0.000 A 
ATOM     22  C   UNL     1       1.346   3.053  19.504  0.00  0.00    +0.000 A 
ATOM     23  C   UNL     1       1.678   3.429  18.209  0.00  0.00    +0.000 A 
ATOM     24  C   UNL     1       2.108   4.736  17.942  0.00  0.00    +0.000 A 
ENDBRANCH  18  19
ENDBRANCH  16  18
ENDBRANCH   1  14
BRANCH   1  25
ATOM     25  C   UNL     1       0.042   9.489  20.817  0.00  0.00    +0.000 C 
BRANCH  25  27
ATOM     26  O   UNL     1       0.274  10.085  23.122  0.00  0.00    +0.000 OA
ATOM     27  C   UNL     1      -0.068  10.423  22.011  0.00  0.00    +0.000 C 
ATOM     28  N   UNL     1      -0.599  11.668  21.744  0.00  0.00    +0.000 N 
ATOM     29  H   UNL     1      -1.088  11.784  20.871  0.00  0.00    +0.000 HD
BRANCH  28  30
ATOM     30  C   UNL     1      -0.793  12.679  22.765  0.00  0.00    +0.000 C 
BRANCH  30  31
ATOM     31  C   UNL     1      -2.252  13.021  22.954  0.00  0.00    +0.000 A 
ATOM     32  C   UNL     1      -2.824  14.112  22.280  0.00  0.00    +0.000 A 
ATOM     33  C   UNL     1      -4.174  14.428  22.453  0.00  0.00    +0.000 A 
ATOM     34  C   UNL     1      -4.968  13.655  23.296  0.00  0.00    +0.000 A 
ATOM     35  C   UNL     1      -4.414  12.568  23.969  0.00  0.00    +0.000 A 
ATOM     36  C   UNL     1      -3.062  12.257  23.807  0.00  0.00    +0.000 A 
ENDBRANCH  30  31
ENDBRANCH  28  30
ENDBRANCH  25  27
ENDBRANCH   1  25
TORSDOF 8
ENDMDL
