MODEL 1
REMARK VINA RESULT:      -8.5      0.000      0.000
REMARK  Name = 
REMARK  6 active torsions:
REMARK  status: ('A' for Active; 'I' for Inactive)
REMARK    1  A    between atoms: C_1  and  C_2
REMARK    2  A    between atoms: C_2  and  C_3
REMARK    3  A    between atoms: C_5  and  C_6
REMARK    4  A    between atoms: C_6  and  C_7
REMARK    5  A    between atoms: N_11  and  C_12
REMARK    6  A    between atoms: C_14  and  N_15
REMARK                            x       y       z     vdW  Elec       q    Type
REMARK                         _______ _______ _______ _____ _____    ______ ____
ROOT
ATOM      1  C   UNL     1       4.964   6.388  17.327  0.00  0.00    +0.000 A 
ATOM      2  C   UNL     1       4.802   5.023  17.510  0.00  0.00    +0.000 A 
ATOM      3  C   UNL     1       3.717   4.568  18.262  0.00  0.00    +0.000 A 
ATOM      4  C   UNL     1       2.809   5.512  18.765  0.00  0.00    +0.000 A 
ATOM      5  C   UNL     1       3.019   6.869  18.534  0.00  0.00    +0.000 A 
ATOM      6  N   UNL     1       4.084   7.290  17.818  0.00  0.00    +0.000 NA
ENDROOT
BRANCH   5   7
ATOM      7  N   UNL     1       2.150   7.837  19.080  0.00  0.00    +0.000 N 
ATOM      8  C   UNL     1       1.658   7.792  20.450  0.00  0.00    +0.000 C 
ATOM      9  C   UNL     1       0.916   9.073  20.581  0.00  0.00    +0.000 A 
ATOM     10  C   UNL     1       0.267   9.617  21.664  0.00  0.00    +0.000 A 
ATOM     11  F   UNL     1       0.241   8.970  22.835  0.00  0.00    +0.000 F 
ATOM     12  C   UNL     1      -0.358  10.860  21.540  0.00  0.00    +0.000 A 
ATOM     13  C   UNL     1      -0.329  11.548  20.315  0.00  0.00    +0.000 A 
ATOM     14  C   UNL     1       0.332  10.999  19.213  0.00  0.00    +0.000 A 
ATOM     15  C   UNL     1       0.944   9.768  19.380  0.00  0.00    +0.000 A 
ATOM     16  C   UNL     1       1.729   8.990  18.413  0.00  0.00    +0.000 C 
ATOM     17  O   UNL     1       1.909   9.390  17.279  0.00  0.00    +0.000 OA
ENDBRANCH   5   7
BRANCH   1  19
ATOM     18  C   UNL     1       7.425   6.945  17.501  0.00  0.00    +0.000 C 
ATOM     19  C   UNL     1       6.183   6.930  16.627  0.00  0.00    +0.000 C 
ENDBRANCH   1  19
BRANCH   3  20
ATOM     20  C   UNL     1       3.540   3.094  18.533  0.00  0.00    +0.000 C 
BRANCH  20  21
ATOM     21  C   UNL     1       2.908   2.782  19.849  0.00  0.00    +0.000 A 
ATOM     22  N   UNL     1       3.542   2.666  20.999  0.00  0.00    +0.000 NA
ATOM     23  N   UNL     1       2.608   2.467  21.988  0.00  0.00    +0.000 NA
ATOM     24  C   UNL     1       1.426   2.455  21.422  0.00  0.00    +0.000 A 
ATOM     25  N   UNL     1       1.564   2.616  20.078  0.00  0.00    +0.000 N 
ATOM     26  C   UNL     1       0.494   2.602  19.117  0.00  0.00    +0.000 C 
ENDBRANCH  20  21
ENDBRANCH   3  20
TORSDOF 4
ENDMDL
MODEL 2
REMARK VINA RESULT:      -8.2      1.593      4.499
REMARK  Name = 
REMARK  6 active torsions:
REMARK  status: ('A' for Active; 'I' for Inactive)
REMARK    1  A    between atoms: C_1  and  C_2
REMARK    2  A    between atoms: C_2  and  C_3
REMARK    3  A    between atoms: C_5  and  C_6
REMARK    4  A    between atoms: C_6  and  C_7
REMARK    5  A    between atoms: N_11  and  C_12
REMARK    6  A    between atoms: C_14  and  N_15
REMARK                            x       y       z     vdW  Elec       q    Type
REMARK                         _______ _______ _______ _____ _____    ______ ____
ROOT
ATOM      1  C   UNL     1       2.978   3.987  19.460  0.00  0.00    +0.000 A 
ATOM      2  C   UNL     1       4.141   3.937  18.708  0.00  0.00    +0.000 A 
ATOM      3  C   UNL     1       4.646   5.121  18.168  0.00  0.00    +0.000 A 
ATOM      4  C   UNL     1       3.978   6.322  18.447  0.00  0.00    +0.000 A 
ATOM      5  C   UNL     1       2.821   6.309  19.224  0.00  0.00    +0.000 A 
ATOM      6  N   UNL     1       2.340   5.150  19.722  0.00  0.00    +0.000 NA
ENDROOT
BRANCH   5   7
ATOM      7  N   UNL     1       2.102   7.497  19.467  0.00  0.00    +0.000 N 
ATOM      8  C   UNL     1       1.523   7.835  20.760  0.00  0.00    +0.000 C 
ATOM      9  C   UNL     1       1.009   9.213  20.546  0.00  0.00    +0.000 A 
ATOM     10  C   UNL     1       0.396  10.079  21.421  0.00  0.00    +0.000 A 
ATOM     11  F   UNL     1       0.184   9.720  22.693  0.00  0.00    +0.000 F 
ATOM     12  C   UNL     1       0.007  11.345  20.978  0.00  0.00    +0.000 A 
ATOM     13  C   UNL     1       0.233  11.730  19.646  0.00  0.00    +0.000 A 
ATOM     14  C   UNL     1       0.857  10.854  18.754  0.00  0.00    +0.000 A 
ATOM     15  C   UNL     1       1.234   9.611  19.235  0.00  0.00    +0.000 A 
ATOM     16  C   UNL     1       1.931   8.524  18.535  0.00  0.00    +0.000 C 
ATOM     17  O   UNL     1       2.250   8.629  17.366  0.00  0.00    +0.000 OA
ENDBRANCH   5   7
BRANCH   1  19
ATOM     18  C   UNL     1       0.824   2.829  20.106  0.00  0.00    +0.000 C 
ATOM     19  C   UNL     1       2.332   2.721  19.961  0.00  0.00    +0.000 C 
ENDBRANCH   1  19
BRANCH   3  20
ATOM     20  C   UNL     1       5.877   5.099  17.294  0.00  0.00    +0.000 C 
BRANCH  20  21
ATOM     21  C   UNL     1       6.788   6.266  17.484  0.00  0.00    +0.000 A 
ATOM     22  N   UNL     1       6.860   7.322  16.697  0.00  0.00    +0.000 NA
ATOM     23  N   UNL     1       7.745   8.214  17.253  0.00  0.00    +0.000 NA
ATOM     24  C   UNL     1       8.202   7.683  18.361  0.00  0.00    +0.000 A 
ATOM     25  N   UNL     1       7.656   6.448  18.532  0.00  0.00    +0.000 N 
ATOM     26  C   UNL     1       7.957   5.538  19.604  0.00  0.00    +0.000 C 
ENDBRANCH  20  21
ENDBRANCH   3  20
TORSDOF 4
ENDMDL
MODEL 3
REMARK VINA RESULT:      -8.2      1.822      4.262
REMARK  Name = 
REMARK  6 active torsions:
REMARK  status: ('A' for Active; 'I' for Inactive)
REMARK    1  A    between atoms: C_1  and  C_2
REMARK    2  A    between atoms: C_2  and  C_3
REMARK    3  A    between atoms: C_5  and  C_6
REMARK    4  A    between atoms: C_6  and  C_7
REMARK    5  A    between atoms: N_11  and  C_12
REMARK    6  A    between atoms: C_14  and  N_15
REMARK                            x       y       z     vdW  Elec       q    Type
REMARK                         _______ _______ _______ _____ _____    ______ ____
ROOT
ATOM      1  C   UNL     1       2.845   4.988  19.380  0.00  0.00    +0.000 A 
ATOM      2  C   UNL     1       3.667   5.215  18.287  0.00  0.00    +0.000 A 
ATOM      3  C   UNL     1       3.729   6.501  17.745  0.00  0.00    +0.000 A 
ATOM      4  C   UNL     1       2.989   7.522  18.360  0.00  0.00    +0.000 A 
ATOM      5  C   UNL     1       2.193   7.233  19.467  0.00  0.00    +0.000 A 
ATOM      6  N   UNL     1       2.134   5.979  19.964  0.00  0.00    +0.000 NA
ENDROOT
BRANCH   5   7
ATOM      7  N   UNL     1       1.396   8.232  20.063  0.00  0.00    +0.000 N 
ATOM      8  C   UNL     1       1.039   8.239  21.474  0.00  0.00    +0.000 C 
ATOM      9  C   UNL     1       0.332   9.536  21.634  0.00  0.00    +0.000 A 
ATOM     10  C   UNL     1      -0.202  10.125  22.757  0.00  0.00    +0.000 A 
ATOM     11  F   UNL     1      -0.122   9.515  23.945  0.00  0.00    +0.000 F 
ATOM     12  C   UNL     1      -0.817  11.374  22.652  0.00  0.00    +0.000 A 
ATOM     13  C   UNL     1      -0.898  12.023  21.408  0.00  0.00    +0.000 A 
ATOM     14  C   UNL     1      -0.356  11.428  20.266  0.00  0.00    +0.000 A 
ATOM     15  C   UNL     1       0.252  10.193  20.414  0.00  0.00    +0.000 A 
ATOM     16  C   UNL     1       0.929   9.370  19.402  0.00  0.00    +0.000 C 
ATOM     17  O   UNL     1       1.003   9.732  18.243  0.00  0.00    +0.000 OA
ENDBRANCH   5   7
BRANCH   1  19
ATOM     18  C   UNL     1       1.525   3.488  20.930  0.00  0.00    +0.000 C 
ATOM     19  C   UNL     1       2.655   3.595  19.921  0.00  0.00    +0.000 C 
ENDBRANCH   1  19
BRANCH   3  20
ATOM     20  C   UNL     1       4.565   6.775  16.519  0.00  0.00    +0.000 C 
BRANCH  20  21
ATOM     21  C   UNL     1       5.489   5.664  16.143  0.00  0.00    +0.000 A 
ATOM     22  N   UNL     1       5.266   4.760  15.210  0.00  0.00    +0.000 NA
ATOM     23  N   UNL     1       6.385   3.968  15.101  0.00  0.00    +0.000 NA
ATOM     24  C   UNL     1       7.263   4.398  15.974  0.00  0.00    +0.000 A 
ATOM     25  N   UNL     1       6.736   5.439  16.674  0.00  0.00    +0.000 N 
ATOM     26  C   UNL     1       7.381   6.137  17.753  0.00  0.00    +0.000 C 
ENDBRANCH  20  21
ENDBRANCH   3  20
TORSDOF 4
ENDMDL
MODEL 4
REMARK VINA RESULT:      -8.2      1.837      4.133
REMARK  Name = 
REMARK  6 active torsions:
REMARK  status: ('A' for Active; 'I' for Inactive)
REMARK    1  A    between atoms: C_1  and  C_2
REMARK    2  A    between atoms: C_2  and  C_3
REMARK    3  A    between atoms: C_5  and  C_6
REMARK    4  A    between atoms: C_6  and  C_7
REMARK    5  A    between atoms: N_11  and  C_12
REMARK    6  A    between atoms: C_14  and  N_15
REMARK                            x       y       z     vdW  Elec       q    Type
REMARK                         _______ _______ _______ _____ _____    ______ ____
ROOT
ATOM      1  C   UNL     1       2.793   5.026  19.489  0.00  0.00    +0.000 A 
ATOM      2  C   UNL     1       3.658   5.210  18.421  0.00  0.00    +0.000 A 
ATOM      3  C   UNL     1       3.768   6.481  17.854  0.00  0.00    +0.000 A 
ATOM      4  C   UNL     1       3.029   7.531  18.419  0.00  0.00    +0.000 A 
ATOM      5  C   UNL     1       2.188   7.285  19.502  0.00  0.00    +0.000 A 
ATOM      6  N   UNL     1       2.083   6.044  20.024  0.00  0.00    +0.000 NA
ENDROOT
BRANCH   5   7
ATOM      7  N   UNL     1       1.392   8.314  20.046  0.00  0.00    +0.000 N 
ATOM      8  C   UNL     1       0.980   8.358  21.442  0.00  0.00    +0.000 C 
ATOM      9  C   UNL     1       0.298   9.674  21.548  0.00  0.00    +0.000 A 
ATOM     10  C   UNL     1      -0.265  10.298  22.638  0.00  0.00    +0.000 A 
ATOM     11  F   UNL     1      -0.246   9.711  23.840  0.00  0.00    +0.000 F 
ATOM     12  C   UNL     1      -0.846  11.559  22.484  0.00  0.00    +0.000 A 
ATOM     13  C   UNL     1      -0.863  12.183  21.225  0.00  0.00    +0.000 A 
ATOM     14  C   UNL     1      -0.290  11.553  20.118  0.00  0.00    +0.000 A 
ATOM     15  C   UNL     1       0.282  10.307  20.313  0.00  0.00    +0.000 A 
ATOM     16  C   UNL     1       0.978   9.449  19.345  0.00  0.00    +0.000 C 
ATOM     17  O   UNL     1       1.106   9.785  18.183  0.00  0.00    +0.000 OA
ENDBRANCH   5   7
BRANCH   1  19
ATOM     18  C   UNL     1       1.168   3.476  20.653  0.00  0.00    +0.000 C 
ATOM     19  C   UNL     1       2.553   3.650  20.053  0.00  0.00    +0.000 C 
ENDBRANCH   1  19
BRANCH   3  20
ATOM     20  C   UNL     1       4.654   6.709  16.654  0.00  0.00    +0.000 C 
BRANCH  20  21
ATOM     21  C   UNL     1       5.877   5.853  16.620  0.00  0.00    +0.000 A 
ATOM     22  N   UNL     1       6.864   5.887  17.492  0.00  0.00    +0.000 NA
ATOM     23  N   UNL     1       7.756   4.891  17.174  0.00  0.00    +0.000 NA
ATOM     24  C   UNL     1       7.301   4.276  16.109  0.00  0.00    +0.000 A 
ATOM     25  N   UNL     1       6.142   4.864  15.705  0.00  0.00    +0.000 N 
ATOM     26  C   UNL     1       5.377   4.500  14.543  0.00  0.00    +0.000 C 
ENDBRANCH  20  21
ENDBRANCH   3  20
TORSDOF 4
ENDMDL
MODEL 5
REMARK VINA RESULT:      -8.1      1.818      4.207
REMARK  Name = 
REMARK  6 active torsions:
REMARK  status: ('A' for Active; 'I' for Inactive)
REMARK    1  A    between atoms: C_1  and  C_2
REMARK    2  A    between atoms: C_2  and  C_3
REMARK    3  A    between atoms: C_5  and  C_6
REMARK    4  A    between atoms: C_6  and  C_7
REMARK    5  A    between atoms: N_11  and  C_12
REMARK    6  A    between atoms: C_14  and  N_15
REMARK                            x       y       z     vdW  Elec       q    Type
REMARK                         _______ _______ _______ _____ _____    ______ ____
ROOT
ATOM      1  C   UNL     1       1.845   4.644  20.303  0.00  0.00    +0.000 A 
ATOM      2  C   UNL     1       2.967   4.516  19.498  0.00  0.00    +0.000 A 
ATOM      3  C   UNL     1       3.527   5.664  18.935  0.00  0.00    +0.000 A 
ATOM      4  C   UNL     1       2.957   6.908  19.245  0.00  0.00    +0.000 A 
ATOM      5  C   UNL     1       1.839   6.972  20.075  0.00  0.00    +0.000 A 
ATOM      6  N   UNL     1       1.302   5.848  20.594  0.00  0.00    +0.000 NA
ENDROOT
BRANCH   5   7
ATOM      7  N   UNL     1       1.216   8.206  20.351  0.00  0.00    +0.000 N 
ATOM      8  C   UNL     1       0.579   8.518  21.623  0.00  0.00    +0.000 C 
ATOM      9  C   UNL     1       0.210   9.949  21.471  0.00  0.00    +0.000 A 
ATOM     10  C   UNL     1      -0.382  10.814  22.362  0.00  0.00    +0.000 A 
ATOM     11  F   UNL     1      -0.717  10.398  23.589  0.00  0.00    +0.000 F 
ATOM     12  C   UNL     1      -0.621  12.136  21.983  0.00  0.00    +0.000 A 
ATOM     13  C   UNL     1      -0.265  12.580  20.698  0.00  0.00    +0.000 A 
ATOM     14  C   UNL     1       0.338  11.705  19.791  0.00  0.00    +0.000 A 
ATOM     15  C   UNL     1       0.564  10.404  20.209  0.00  0.00    +0.000 A 
ATOM     16  C   UNL     1       1.208   9.301  19.483  0.00  0.00    +0.000 C 
ATOM     17  O   UNL     1       1.618   9.448  18.348  0.00  0.00    +0.000 OA
ENDBRANCH   5   7
BRANCH   1  19
ATOM     18  C   UNL     1       2.035   2.510  21.646  0.00  0.00    +0.000 C 
ATOM     19  C   UNL     1       1.137   3.424  20.832  0.00  0.00    +0.000 C 
ENDBRANCH   1  19
BRANCH   3  20
ATOM     20  C   UNL     1       4.712   5.560  18.005  0.00  0.00    +0.000 C 
BRANCH  20  21
ATOM     21  C   UNL     1       6.038   5.653  18.685  0.00  0.00    +0.000 A 
ATOM     22  N   UNL     1       6.409   4.964  19.745  0.00  0.00    +0.000 NA
ATOM     23  N   UNL     1       7.724   5.260  20.014  0.00  0.00    +0.000 NA
ATOM     24  C   UNL     1       8.126   6.130  19.119  0.00  0.00    +0.000 A 
ATOM     25  N   UNL     1       7.095   6.432  18.284  0.00  0.00    +0.000 N 
ATOM     26  C   UNL     1       7.139   7.388  17.210  0.00  0.00    +0.000 C 
ENDBRANCH  20  21
ENDBRANCH   3  20
TORSDOF 4
ENDMDL
MODEL 6
REMARK VINA RESULT:      -8.0      2.195      4.833
REMARK  Name = 
REMARK  6 active torsions:
REMARK  status: ('A' for Active; 'I' for Inactive)
REMARK    1  A    between atoms: C_1  and  C_2
REMARK    2  A    between atoms: C_2  and  C_3
REMARK    3  A    between atoms: C_5  and  C_6
REMARK    4  A    between atoms: C_6  and  C_7
REMARK    5  A    between atoms: N_11  and  C_12
REMARK    6  A    between atoms: C_14  and  N_15
REMARK                            x       y       z     vdW  Elec       q    Type
REMARK                         _______ _______ _______ _____ _____    ______ ____
ROOT
ATOM      1  C   UNL     1       2.972   4.001  17.725  0.00  0.00    +0.000 A 
ATOM      2  C   UNL     1       4.244   4.115  17.184  0.00  0.00    +0.000 A 
ATOM      3  C   UNL     1       4.906   5.341  17.272  0.00  0.00    +0.000 A 
ATOM      4  C   UNL     1       4.273   6.397  17.944  0.00  0.00    +0.000 A 
ATOM      5  C   UNL     1       3.000   6.215  18.480  0.00  0.00    +0.000 A 
ATOM      6  N   UNL     1       2.370   5.026  18.369  0.00  0.00    +0.000 NA
ENDROOT
BRANCH   5   7
ATOM      7  N   UNL     1       2.322   7.280  19.107  0.00  0.00    +0.000 N 
ATOM      8  C   UNL     1       2.098   8.573  18.476  0.00  0.00    +0.000 C 
ATOM      9  C   UNL     1       1.239   9.282  19.460  0.00  0.00    +0.000 A 
ATOM     10  C   UNL     1       0.664  10.530  19.402  0.00  0.00    +0.000 A 
ATOM     11  F   UNL     1       0.845  11.310  18.330  0.00  0.00    +0.000 F 
ATOM     12  C   UNL     1      -0.123  10.976  20.465  0.00  0.00    +0.000 A 
ATOM     13  C   UNL     1      -0.322  10.159  21.591  0.00  0.00    +0.000 A 
ATOM     14  C   UNL     1       0.259   8.889  21.653  0.00  0.00    +0.000 A 
ATOM     15  C   UNL     1       1.026   8.482  20.575  0.00  0.00    +0.000 A 
ATOM     16  C   UNL     1       1.712   7.201  20.362  0.00  0.00    +0.000 C 
ATOM     17  O   UNL     1       1.672   6.318  21.198  0.00  0.00    +0.000 OA
ENDBRANCH   5   7
BRANCH   1  19
ATOM     18  C   UNL     1       1.381   2.345  18.784  0.00  0.00    +0.000 C 
ATOM     19  C   UNL     1       2.173   2.736  17.549  0.00  0.00    +0.000 C 
ENDBRANCH   1  19
BRANCH   3  20
ATOM     20  C   UNL     1       6.266   5.522  16.643  0.00  0.00    +0.000 C 
BRANCH  20  21
ATOM     21  C   UNL     1       7.102   6.583  17.278  0.00  0.00    +0.000 A 
ATOM     22  N   UNL     1       7.285   7.802  16.809  0.00  0.00    +0.000 NA
ATOM     23  N   UNL     1       8.038   8.506  17.719  0.00  0.00    +0.000 NA
ATOM     24  C   UNL     1       8.307   7.702  18.719  0.00  0.00    +0.000 A 
ATOM     25  N   UNL     1       7.769   6.476  18.474  0.00  0.00    +0.000 N 
ATOM     26  C   UNL     1       7.900   5.318  19.317  0.00  0.00    +0.000 C 
ENDBRANCH  20  21
ENDBRANCH   3  20
TORSDOF 4
ENDMDL
MODEL 7
REMARK VINA RESULT:      -8.0      2.601      4.666
REMARK  Name = 
REMARK  6 active torsions:
REMARK  status: ('A' for Active; 'I' for Inactive)
REMARK    1  A    between atoms: C_1  and  C_2
REMARK    2  A    between atoms: C_2  and  C_3
REMARK    3  A    between atoms: C_5  and  C_6
REMARK    4  A    between atoms: C_6  and  C_7
REMARK    5  A    between atoms: N_11  and  C_12
REMARK    6  A    between atoms: C_14  and  N_15
REMARK                            x       y       z     vdW  Elec       q    Type
REMARK                         _______ _______ _______ _____ _____    ______ ____
ROOT
ATOM      1  C   UNL     1       2.816   5.894  19.575  0.00  0.00    +0.000 A 
ATOM      2  C   UNL     1       3.700   5.893  18.507  0.00  0.00    +0.000 A 
ATOM      3  C   UNL     1       3.746   7.009  17.669  0.00  0.00    +0.000 A 
ATOM      4  C   UNL     1       2.925   8.105  17.969  0.00  0.00    +0.000 A 
ATOM      5  C   UNL     1       2.069   8.052  19.067  0.00  0.00    +0.000 A 
ATOM      6  N   UNL     1       2.027   6.956  19.855  0.00  0.00    +0.000 NA
ENDROOT
BRANCH   5   7
ATOM      7  N   UNL     1       1.193   9.120  19.352  0.00  0.00    +0.000 N 
ATOM      8  C   UNL     1       0.434   9.830  18.333  0.00  0.00    +0.000 C 
ATOM      9  C   UNL     1      -0.424  10.745  19.131  0.00  0.00    +0.000 A 
ATOM     10  C   UNL     1      -1.389  11.637  18.726  0.00  0.00    +0.000 A 
ATOM     11  F   UNL     1      -1.679  11.779  17.427  0.00  0.00    +0.000 F 
ATOM     12  C   UNL     1      -2.078  12.386  19.682  0.00  0.00    +0.000 A 
ATOM     13  C   UNL     1      -1.783  12.237  21.047  0.00  0.00    +0.000 A 
ATOM     14  C   UNL     1      -0.804  11.330  21.462  0.00  0.00    +0.000 A 
ATOM     15  C   UNL     1      -0.149  10.601  20.484  0.00  0.00    +0.000 A 
ATOM     16  C   UNL     1       0.881   9.566  20.639  0.00  0.00    +0.000 C 
ATOM     17  O   UNL     1       1.294   9.247  21.738  0.00  0.00    +0.000 OA
ENDBRANCH   5   7
BRANCH   1  19
ATOM     18  C   UNL     1       1.194   4.275  20.644  0.00  0.00    +0.000 C 
ATOM     19  C   UNL     1       2.646   4.667  20.432  0.00  0.00    +0.000 C 
ENDBRANCH   1  19
BRANCH   3  20
ATOM     20  C   UNL     1       4.652   7.021  16.462  0.00  0.00    +0.000 C 
BRANCH  20  21
ATOM     21  C   UNL     1       5.512   5.808  16.324  0.00  0.00    +0.000 A 
ATOM     22  N   UNL     1       5.201   4.717  15.653  0.00  0.00    +0.000 NA
ATOM     23  N   UNL     1       6.281   3.868  15.685  0.00  0.00    +0.000 NA
ATOM     24  C   UNL     1       7.225   4.452  16.382  0.00  0.00    +0.000 A 
ATOM     25  N   UNL     1       6.779   5.657  16.832  0.00  0.00    +0.000 N 
ATOM     26  C   UNL     1       7.512   6.562  17.674  0.00  0.00    +0.000 C 
ENDBRANCH  20  21
ENDBRANCH   3  20
TORSDOF 4
ENDMDL
MODEL 8
REMARK VINA RESULT:      -8.0      0.872      1.443
REMARK  Name = 
REMARK  6 active torsions:
REMARK  status: ('A' for Active; 'I' for Inactive)
REMARK    1  A    between atoms: C_1  and  C_2
REMARK    2  A    between atoms: C_2  and  C_3
REMARK    3  A    between atoms: C_5  and  C_6
REMARK    4  A    between atoms: C_6  and  C_7
REMARK    5  A    between atoms: N_11  and  C_12
REMARK    6  A    between atoms: C_14  and  N_15
REMARK                            x       y       z     vdW  Elec       q    Type
REMARK                         _______ _______ _______ _____ _____    ______ ____
ROOT
ATOM      1  C   UNL     1       5.278   6.713  17.309  0.00  0.00    +0.000 A 
ATOM      2  C   UNL     1       5.034   5.360  17.129  0.00  0.00    +0.000 A 
ATOM      3  C   UNL     1       3.815   4.832  17.559  0.00  0.00    +0.000 A 
ATOM      4  C   UNL     1       2.868   5.703  18.117  0.00  0.00    +0.000 A 
ATOM      5  C   UNL     1       3.167   7.057  18.257  0.00  0.00    +0.000 A 
ATOM      6  N   UNL     1       4.359   7.544  17.850  0.00  0.00    +0.000 NA
ENDROOT
BRANCH   5   7
ATOM      7  N   UNL     1       2.252   7.938  18.869  0.00  0.00    +0.000 N 
ATOM      8  C   UNL     1       1.733   7.750  20.216  0.00  0.00    +0.000 C 
ATOM      9  C   UNL     1       0.942   8.987  20.446  0.00  0.00    +0.000 A 
ATOM     10  C   UNL     1       0.250   9.405  21.558  0.00  0.00    +0.000 A 
ATOM     11  F   UNL     1       0.223   8.651  22.663  0.00  0.00    +0.000 F 
ATOM     12  C   UNL     1      -0.417  10.632  21.533  0.00  0.00    +0.000 A 
ATOM     13  C   UNL     1      -0.388  11.431  20.377  0.00  0.00    +0.000 A 
ATOM     14  C   UNL     1       0.316  11.010  19.246  0.00  0.00    +0.000 A 
ATOM     15  C   UNL     1       0.969   9.791  19.315  0.00  0.00    +0.000 A 
ATOM     16  C   UNL     1       1.803   9.133  18.300  0.00  0.00    +0.000 C 
ATOM     17  O   UNL     1       1.992   9.643  17.212  0.00  0.00    +0.000 OA
ENDBRANCH   5   7
BRANCH   1  19
ATOM     18  C   UNL     1       7.677   7.049  18.035  0.00  0.00    +0.000 C 
ATOM     19  C   UNL     1       6.623   7.302  16.971  0.00  0.00    +0.000 C 
ENDBRANCH   1  19
BRANCH   3  20
ATOM     20  C   UNL     1       3.536   3.354  17.434  0.00  0.00    +0.000 C 
BRANCH  20  21
ATOM     21  C   UNL     1       2.347   2.885  18.206  0.00  0.00    +0.000 A 
ATOM     22  N   UNL     1       1.138   2.692  17.715  0.00  0.00    +0.000 NA
ATOM     23  N   UNL     1       0.346   2.173  18.711  0.00  0.00    +0.000 NA
ATOM     24  C   UNL     1       1.082   2.069  19.791  0.00  0.00    +0.000 A 
ATOM     25  N   UNL     1       2.335   2.533  19.533  0.00  0.00    +0.000 N 
ATOM     26  C   UNL     1       3.408   2.629  20.487  0.00  0.00    +0.000 C 
ENDBRANCH  20  21
ENDBRANCH   3  20
TORSDOF 4
ENDMDL
MODEL 9
REMARK VINA RESULT:      -7.9      1.752      4.300
REMARK  Name = 
REMARK  6 active torsions:
REMARK  status: ('A' for Active; 'I' for Inactive)
REMARK    1  A    between atoms: C_1  and  C_2
REMARK    2  A    between atoms: C_2  and  C_3
REMARK    3  A    between atoms: C_5  and  C_6
REMARK    4  A    between atoms: C_6  and  C_7
REMARK    5  A    between atoms: N_11  and  C_12
REMARK    6  A    between atoms: C_14  and  N_15
REMARK                            x       y       z     vdW  Elec       q    Type
REMARK                         _______ _______ _______ _____ _____    ______ ____
ROOT
ATOM      1  C   UNL     1       2.293   3.857  19.900  0.00  0.00    +0.000 A 
ATOM      2  C   UNL     1       3.617   3.658  19.542  0.00  0.00    +0.000 A 
ATOM      3  C   UNL     1       4.412   4.769  19.253  0.00  0.00    +0.000 A 
ATOM      4  C   UNL     1       3.847   6.046  19.380  0.00  0.00    +0.000 A 
ATOM      5  C   UNL     1       2.513   6.182  19.761  0.00  0.00    +0.000 A 
ATOM      6  N   UNL     1       1.757   5.093  20.019  0.00  0.00    +0.000 NA
ENDROOT
BRANCH   5   7
ATOM      7  N   UNL     1       1.911   7.454  19.838  0.00  0.00    +0.000 N 
ATOM      8  C   UNL     1       1.334   7.997  21.060  0.00  0.00    +0.000 C 
ATOM      9  C   UNL     1       0.967   9.383  20.670  0.00  0.00    +0.000 A 
ATOM     10  C   UNL     1       0.421  10.401  21.416  0.00  0.00    +0.000 A 
ATOM     11  F   UNL     1       0.139  10.217  22.711  0.00  0.00    +0.000 F 
ATOM     12  C   UNL     1       0.173  11.638  20.816  0.00  0.00    +0.000 A 
ATOM     13  C   UNL     1       0.472  11.839  19.458  0.00  0.00    +0.000 A 
ATOM     14  C   UNL     1       1.029  10.808  18.698  0.00  0.00    +0.000 A 
ATOM     15  C   UNL     1       1.266   9.600  19.332  0.00  0.00    +0.000 A 
ATOM     16  C   UNL     1       1.869   8.375  18.789  0.00  0.00    +0.000 C 
ATOM     17  O   UNL     1       2.228   8.311  17.629  0.00  0.00    +0.000 OA
ENDBRANCH   5   7
BRANCH   1  19
ATOM     18  C   UNL     1       0.640   2.264  18.839  0.00  0.00    +0.000 C 
ATOM     19  C   UNL     1       1.368   2.685  20.104  0.00  0.00    +0.000 C 
ENDBRANCH   1  19
BRANCH   3  20
ATOM     20  C   UNL     1       5.841   4.590  18.801  0.00  0.00    +0.000 C 
BRANCH  20  21
ATOM     21  C   UNL     1       6.029   4.642  17.320  0.00  0.00    +0.000 A 
ATOM     22  N   UNL     1       5.578   3.755  16.456  0.00  0.00    +0.000 NA
ATOM     23  N   UNL     1       5.874   4.198  15.189  0.00  0.00    +0.000 NA
ATOM     24  C   UNL     1       6.507   5.340  15.305  0.00  0.00    +0.000 A 
ATOM     25  N   UNL     1       6.657   5.644  16.623  0.00  0.00    +0.000 N 
ATOM     26  C   UNL     1       7.348   6.792  17.146  0.00  0.00    +0.000 C 
ENDBRANCH  20  21
ENDBRANCH   3  20
TORSDOF 4
ENDMDL
