MODEL 1
REMARK VINA RESULT:      -8.3      0.000      0.000
REMARK  Name = 
REMARK  7 active torsions:
REMARK  status: ('A' for Active; 'I' for Inactive)
REMARK    1  A    between atoms: C_1  and  C_2
REMARK    2  A    between atoms: N_4  and  C_5
REMARK    3  A    between atoms: C_6  and  C_7
REMARK    4  A    between atoms: C_8  and  S_9
REMARK    5  A    between atoms: S_9  and  N_12
REMARK    6  A    between atoms: N_12  and  C_13
REMARK    7  A    between atoms: C_17  and  C_18
REMARK                            x       y       z     vdW  Elec       q    Type
REMARK                         _______ _______ _______ _____ _____    ______ ____
ROOT
ATOM      1  C   UNL     1       1.921   6.865  20.109  0.00  0.00    +0.000 A 
ATOM      2  C   UNL     1       1.260   5.820  20.753  0.00  0.00    +0.000 A 
ATOM      3  C   UNL     1       1.875   4.568  20.842  0.00  0.00    +0.000 A 
ATOM      4  C   UNL     1       3.150   4.371  20.301  0.00  0.00    +0.000 A 
ATOM      5  C   UNL     1       3.828   5.424  19.672  0.00  0.00    +0.000 A 
ATOM      6  C   UNL     1       3.187   6.665  19.568  0.00  0.00    +0.000 A 
ENDROOT
BRANCH   5   7
ATOM      7  C   UNL     1       5.148   5.208  19.081  0.00  0.00    +0.000 A 
ATOM      8  N   UNL     1       6.268   5.062  19.762  0.00  0.00    +0.000 NA
ATOM      9  N   UNL     1       7.281   4.776  18.883  0.00  0.00    +0.000 NA
ATOM     10  C   UNL     1       6.781   4.776  17.663  0.00  0.00    +0.000 A 
ATOM     11  N   UNL     1       5.450   5.111  17.736  0.00  0.00    +0.000 N 
ATOM     12  C   UNL     1       4.543   5.347  16.629  0.00  0.00    +0.000 C 
ATOM     13  C   UNL     1       5.178   6.028  15.427  0.00  0.00    +0.000 C 
ATOM     14  C   UNL     1       5.965   5.076  14.528  0.00  0.00    +0.000 C 
ATOM     15  C   UNL     1       6.745   3.979  15.252  0.00  0.00    +0.000 C 
ATOM     16  C   UNL     1       7.566   4.491  16.428  0.00  0.00    +0.000 C 
ENDBRANCH   5   7
BRANCH   1  17
ATOM     17  N   UNL     1       1.332   8.150  19.937  0.00  0.00    +0.000 N 
ATOM     18  H   UNL     1       0.616   8.170  19.212  0.00  0.00    +0.000 HD
BRANCH  17  19
ATOM     19  S   UNL     1       0.708   8.920  21.311  0.00  0.00    +0.000 S 
ATOM     20  O   UNL     1       1.742   8.988  22.317  0.00  0.00    +0.000 OA
ATOM     21  O   UNL     1      -0.555   8.271  21.590  0.00  0.00    +0.000 OA
BRANCH  19  29
ATOM     22  C   UNL     1      -1.168  11.176  23.035  0.00  0.00    +0.000 C 
ATOM     23  C   UNL     1      -0.513  11.417  21.724  0.00  0.00    +0.000 A 
ATOM     24  N   UNL     1      -0.638  12.618  21.144  0.00  0.00    +0.000 NA
ATOM     25  N   UNL     1      -0.002  12.495  19.968  0.00  0.00    +0.000 N 
ATOM     26  C   UNL     1      -0.033  13.607  19.042  0.00  0.00    +0.000 C 
ATOM     27  C   UNL     1       0.639  11.292  19.816  0.00  0.00    +0.000 A 
ATOM     28  C   UNL     1       1.477  10.943  18.640  0.00  0.00    +0.000 C 
ATOM     29  C   UNL     1       0.285  10.553  20.938  0.00  0.00    +0.000 A 
ENDBRANCH  19  29
ENDBRANCH  17  19
ENDBRANCH   1  17
TORSDOF 4
ENDMDL
MODEL 2
REMARK VINA RESULT:      -8.3      3.837      5.731
REMARK  Name = 
REMARK  7 active torsions:
REMARK  status: ('A' for Active; 'I' for Inactive)
REMARK    1  A    between atoms: C_1  and  C_2
REMARK    2  A    between atoms: N_4  and  C_5
REMARK    3  A    between atoms: C_6  and  C_7
REMARK    4  A    between atoms: C_8  and  S_9
REMARK    5  A    between atoms: S_9  and  N_12
REMARK    6  A    between atoms: N_12  and  C_13
REMARK    7  A    between atoms: C_17  and  C_18
REMARK                            x       y       z     vdW  Elec       q    Type
REMARK                         _______ _______ _______ _____ _____    ______ ____
ROOT
ATOM      1  C   UNL     1       5.479   3.981  18.160  0.00  0.00    +0.000 A 
ATOM      2  C   UNL     1       5.959   4.904  19.087  0.00  0.00    +0.000 A 
ATOM      3  C   UNL     1       6.845   5.902  18.669  0.00  0.00    +0.000 A 
ATOM      4  C   UNL     1       7.233   5.979  17.327  0.00  0.00    +0.000 A 
ATOM      5  C   UNL     1       6.736   5.067  16.387  0.00  0.00    +0.000 A 
ATOM      6  C   UNL     1       5.870   4.057  16.828  0.00  0.00    +0.000 A 
ENDROOT
BRANCH   5   7
ATOM      7  C   UNL     1       7.165   5.132  14.991  0.00  0.00    +0.000 A 
ATOM      8  N   UNL     1       8.122   5.913  14.528  0.00  0.00    +0.000 NA
ATOM      9  N   UNL     1       8.316   5.629  13.201  0.00  0.00    +0.000 NA
ATOM     10  C   UNL     1       7.459   4.692  12.850  0.00  0.00    +0.000 A 
ATOM     11  N   UNL     1       6.665   4.396  13.933  0.00  0.00    +0.000 N 
ATOM     12  C   UNL     1       5.515   3.513  13.964  0.00  0.00    +0.000 C 
ATOM     13  C   UNL     1       4.669   3.536  12.701  0.00  0.00    +0.000 C 
ATOM     14  C   UNL     1       5.240   2.688  11.566  0.00  0.00    +0.000 C 
ATOM     15  C   UNL     1       6.763   2.701  11.433  0.00  0.00    +0.000 C 
ATOM     16  C   UNL     1       7.366   4.099  11.485  0.00  0.00    +0.000 C 
ENDBRANCH   5   7
BRANCH   1  17
ATOM     17  N   UNL     1       4.616   2.909  18.528  0.00  0.00    +0.000 N 
ATOM     18  H   UNL     1       4.809   2.539  19.457  0.00  0.00    +0.000 HD
BRANCH  17  19
ATOM     19  S   UNL     1       2.946   3.163  18.402  0.00  0.00    +0.000 S 
ATOM     20  O   UNL     1       2.258   2.002  18.916  0.00  0.00    +0.000 OA
ATOM     21  O   UNL     1       2.716   3.620  17.048  0.00  0.00    +0.000 OA
BRANCH  19  29
ATOM     22  C   UNL     1       1.711   3.228  21.572  0.00  0.00    +0.000 C 
ATOM     23  C   UNL     1       1.956   4.415  20.714  0.00  0.00    +0.000 A 
ATOM     24  N   UNL     1       1.691   5.636  21.199  0.00  0.00    +0.000 NA
ATOM     25  N   UNL     1       1.949   6.471  20.179  0.00  0.00    +0.000 N 
ATOM     26  C   UNL     1       1.671   7.880  20.347  0.00  0.00    +0.000 C 
ATOM     27  C   UNL     1       2.491   5.844  19.084  0.00  0.00    +0.000 A 
ATOM     28  C   UNL     1       2.936   6.558  17.860  0.00  0.00    +0.000 C 
ATOM     29  C   UNL     1       2.468   4.491  19.397  0.00  0.00    +0.000 A 
ENDBRANCH  19  29
ENDBRANCH  17  19
ENDBRANCH   1  17
TORSDOF 4
ENDMDL
MODEL 3
REMARK VINA RESULT:      -8.2      0.519      1.629
REMARK  Name = 
REMARK  7 active torsions:
REMARK  status: ('A' for Active; 'I' for Inactive)
REMARK    1  A    between atoms: C_1  and  C_2
REMARK    2  A    between atoms: N_4  and  C_5
REMARK    3  A    between atoms: C_6  and  C_7
REMARK    4  A    between atoms: C_8  and  S_9
REMARK    5  A    between atoms: S_9  and  N_12
REMARK    6  A    between atoms: N_12  and  C_13
REMARK    7  A    between atoms: C_17  and  C_18
REMARK                            x       y       z     vdW  Elec       q    Type
REMARK                         _______ _______ _______ _____ _____    ______ ____
ROOT
ATOM      1  C   UNL     1       1.952   7.041  20.132  0.00  0.00    +0.000 A 
ATOM      2  C   UNL     1       1.232   6.013  20.739  0.00  0.00    +0.000 A 
ATOM      3  C   UNL     1       1.780   4.728  20.795  0.00  0.00    +0.000 A 
ATOM      4  C   UNL     1       3.048   4.482  20.257  0.00  0.00    +0.000 A 
ATOM      5  C   UNL     1       3.785   5.517  19.666  0.00  0.00    +0.000 A 
ATOM      6  C   UNL     1       3.209   6.792  19.594  0.00  0.00    +0.000 A 
ENDROOT
BRANCH   5   7
ATOM      7  C   UNL     1       5.097   5.250  19.078  0.00  0.00    +0.000 A 
ATOM      8  N   UNL     1       6.209   5.059  19.761  0.00  0.00    +0.000 NA
ATOM      9  N   UNL     1       7.212   4.736  18.885  0.00  0.00    +0.000 NA
ATOM     10  C   UNL     1       6.717   4.757  17.664  0.00  0.00    +0.000 A 
ATOM     11  N   UNL     1       5.399   5.145  17.734  0.00  0.00    +0.000 N 
ATOM     12  C   UNL     1       4.505   5.417  16.624  0.00  0.00    +0.000 C 
ATOM     13  C   UNL     1       5.170   6.076  15.426  0.00  0.00    +0.000 C 
ATOM     14  C   UNL     1       5.921   5.095  14.527  0.00  0.00    +0.000 C 
ATOM     15  C   UNL     1       6.657   3.967  15.251  0.00  0.00    +0.000 C 
ATOM     16  C   UNL     1       7.493   4.444  16.431  0.00  0.00    +0.000 C 
ENDBRANCH   5   7
BRANCH   1  17
ATOM     17  N   UNL     1       1.430   8.359  19.995  0.00  0.00    +0.000 N 
ATOM     18  H   UNL     1       0.773   8.453  19.223  0.00  0.00    +0.000 HD
BRANCH  17  19
ATOM     19  S   UNL     1       0.737   9.078  21.364  0.00  0.00    +0.000 S 
ATOM     20  O   UNL     1       1.744   9.187  22.393  0.00  0.00    +0.000 OA
ATOM     21  O   UNL     1      -0.496   8.361  21.606  0.00  0.00    +0.000 OA
BRANCH  19  29
ATOM     22  C   UNL     1       1.450  11.076  18.703  0.00  0.00    +0.000 C 
ATOM     23  C   UNL     1       0.596  11.447  19.860  0.00  0.00    +0.000 A 
ATOM     24  N   UNL     1       0.030  12.661  19.889  0.00  0.00    +0.000 NA
ATOM     25  N   UNL     1      -0.610  12.710  21.069  0.00  0.00    +0.000 N 
ATOM     26  C   UNL     1      -1.257  13.944  21.458  0.00  0.00    +0.000 C 
ATOM     27  C   UNL     1      -0.580  11.522  21.756  0.00  0.00    +0.000 A 
ATOM     28  C   UNL     1      -1.280  11.296  23.046  0.00  0.00    +0.000 C 
ATOM     29  C   UNL     1       0.238  10.691  21.001  0.00  0.00    +0.000 A 
ENDBRANCH  19  29
ENDBRANCH  17  19
ENDBRANCH   1  17
TORSDOF 4
ENDMDL
MODEL 4
REMARK VINA RESULT:      -8.1      2.696      3.626
REMARK  Name = 
REMARK  7 active torsions:
REMARK  status: ('A' for Active; 'I' for Inactive)
REMARK    1  A    between atoms: C_1  and  C_2
REMARK    2  A    between atoms: N_4  and  C_5
REMARK    3  A    between atoms: C_6  and  C_7
REMARK    4  A    between atoms: C_8  and  S_9
REMARK    5  A    between atoms: S_9  and  N_12
REMARK    6  A    between atoms: N_12  and  C_13
REMARK    7  A    between atoms: C_17  and  C_18
REMARK                            x       y       z     vdW  Elec       q    Type
REMARK                         _______ _______ _______ _____ _____    ______ ____
ROOT
ATOM      1  C   UNL     1       0.744   9.770  18.787  0.00  0.00    +0.000 A 
ATOM      2  C   UNL     1       0.516   9.589  20.150  0.00  0.00    +0.000 A 
ATOM      3  C   UNL     1       1.144   8.534  20.819  0.00  0.00    +0.000 A 
ATOM      4  C   UNL     1       2.005   7.677  20.126  0.00  0.00    +0.000 A 
ATOM      5  C   UNL     1       2.254   7.867  18.761  0.00  0.00    +0.000 A 
ATOM      6  C   UNL     1       1.596   8.913  18.100  0.00  0.00    +0.000 A 
ENDROOT
BRANCH   5   7
ATOM      7  C   UNL     1       3.131   6.952  18.032  0.00  0.00    +0.000 A 
ATOM      8  N   UNL     1       4.195   7.311  17.340  0.00  0.00    +0.000 NA
ATOM      9  N   UNL     1       4.824   6.182  16.884  0.00  0.00    +0.000 NA
ATOM     10  C   UNL     1       4.127   5.134  17.277  0.00  0.00    +0.000 A 
ATOM     11  N   UNL     1       3.012   5.577  17.947  0.00  0.00    +0.000 N 
ATOM     12  C   UNL     1       1.911   4.775  18.445  0.00  0.00    +0.000 C 
ATOM     13  C   UNL     1       1.541   3.594  17.562  0.00  0.00    +0.000 C 
ATOM     14  C   UNL     1       2.455   2.383  17.746  0.00  0.00    +0.000 C 
ATOM     15  C   UNL     1       3.933   2.700  17.975  0.00  0.00    +0.000 C 
ATOM     16  C   UNL     1       4.496   3.718  16.992  0.00  0.00    +0.000 C 
ENDBRANCH   5   7
BRANCH   1  17
ATOM     17  N   UNL     1       0.097  10.791  18.035  0.00  0.00    +0.000 N 
ATOM     18  H   UNL     1      -0.636  10.437  17.422  0.00  0.00    +0.000 HD
BRANCH  17  19
ATOM     19  S   UNL     1      -0.527  12.119  18.883  0.00  0.00    +0.000 S 
ATOM     20  O   UNL     1      -1.536  11.651  19.804  0.00  0.00    +0.000 OA
ATOM     21  O   UNL     1      -0.844  13.115  17.882  0.00  0.00    +0.000 OA
BRANCH  19  29
ATOM     22  C   UNL     1      -0.545  13.113  22.137  0.00  0.00    +0.000 C 
ATOM     23  C   UNL     1       0.603  13.233  21.202  0.00  0.00    +0.000 A 
ATOM     24  N   UNL     1       1.751  13.762  21.644  0.00  0.00    +0.000 NA
ATOM     25  N   UNL     1       2.550  13.790  20.564  0.00  0.00    +0.000 N 
ATOM     26  C   UNL     1       3.856  14.401  20.682  0.00  0.00    +0.000 C 
ATOM     27  C   UNL     1       2.001  13.184  19.462  0.00  0.00    +0.000 A 
ATOM     28  C   UNL     1       2.714  13.015  18.170  0.00  0.00    +0.000 C 
ATOM     29  C   UNL     1       0.709  12.846  19.845  0.00  0.00    +0.000 A 
ENDBRANCH  19  29
ENDBRANCH  17  19
ENDBRANCH   1  17
TORSDOF 4
ENDMDL
MODEL 5
REMARK VINA RESULT:      -8.0      3.138      4.243
REMARK  Name = 
REMARK  7 active torsions:
REMARK  status: ('A' for Active; 'I' for Inactive)
REMARK    1  A    between atoms: C_1  and  C_2
REMARK    2  A    between atoms: N_4  and  C_5
REMARK    3  A    between atoms: C_6  and  C_7
REMARK    4  A    between atoms: C_8  and  S_9
REMARK    5  A    between atoms: S_9  and  N_12
REMARK    6  A    between atoms: N_12  and  C_13
REMARK    7  A    between atoms: C_17  and  C_18
REMARK                            x       y       z     vdW  Elec       q    Type
REMARK                         _______ _______ _______ _____ _____    ______ ____
ROOT
ATOM      1  C   UNL     1       0.511   9.982  18.903  0.00  0.00    +0.000 A 
ATOM      2  C   UNL     1       0.288   9.768  20.262  0.00  0.00    +0.000 A 
ATOM      3  C   UNL     1       0.932   8.707  20.906  0.00  0.00    +0.000 A 
ATOM      4  C   UNL     1       1.804   7.877  20.193  0.00  0.00    +0.000 A 
ATOM      5  C   UNL     1       2.048   8.102  18.832  0.00  0.00    +0.000 A 
ATOM      6  C   UNL     1       1.375   9.153  18.195  0.00  0.00    +0.000 A 
ENDROOT
BRANCH   5   7
ATOM      7  C   UNL     1       2.937   7.216  18.082  0.00  0.00    +0.000 A 
ATOM      8  N   UNL     1       3.956   7.611  17.343  0.00  0.00    +0.000 NA
ATOM      9  N   UNL     1       4.617   6.505  16.879  0.00  0.00    +0.000 NA
ATOM     10  C   UNL     1       3.985   5.433  17.313  0.00  0.00    +0.000 A 
ATOM     11  N   UNL     1       2.877   5.836  18.021  0.00  0.00    +0.000 N 
ATOM     12  C   UNL     1       1.834   4.993  18.574  0.00  0.00    +0.000 C 
ATOM     13  C   UNL     1       1.485   3.782  17.723  0.00  0.00    +0.000 C 
ATOM     14  C   UNL     1       2.459   2.617  17.887  0.00  0.00    +0.000 C 
ATOM     15  C   UNL     1       3.929   3.003  18.053  0.00  0.00    +0.000 C 
ATOM     16  C   UNL     1       4.406   4.030  17.034  0.00  0.00    +0.000 C 
ENDBRANCH   5   7
BRANCH   1  17
ATOM     17  N   UNL     1      -0.151  11.011  18.175  0.00  0.00    +0.000 N 
ATOM     18  H   UNL     1       0.315  11.249  17.300  0.00  0.00    +0.000 HD
BRANCH  17  19
ATOM     19  S   UNL     1      -1.802  10.810  17.851  0.00  0.00    +0.000 S 
ATOM     20  O   UNL     1      -2.172   9.446  18.148  0.00  0.00    +0.000 OA
ATOM     21  O   UNL     1      -2.017  11.365  16.532  0.00  0.00    +0.000 OA
BRANCH  19  29
ATOM     22  C   UNL     1      -0.845  13.112  20.167  0.00  0.00    +0.000 C 
ATOM     23  C   UNL     1      -2.246  12.740  19.844  0.00  0.00    +0.000 A 
ATOM     24  N   UNL     1      -3.248  13.350  20.491  0.00  0.00    +0.000 NA
ATOM     25  N   UNL     1      -4.362  12.756  20.030  0.00  0.00    +0.000 N 
ATOM     26  C   UNL     1      -5.636  13.126  20.607  0.00  0.00    +0.000 C 
ATOM     27  C   UNL     1      -4.125  11.865  19.014  0.00  0.00    +0.000 A 
ATOM     28  C   UNL     1      -5.196  11.139  18.284  0.00  0.00    +0.000 C 
ATOM     29  C   UNL     1      -2.741  11.808  18.902  0.00  0.00    +0.000 A 
ENDBRANCH  19  29
ENDBRANCH  17  19
ENDBRANCH   1  17
TORSDOF 4
ENDMDL
MODEL 6
REMARK VINA RESULT:      -7.9      2.985      4.053
REMARK  Name = 
REMARK  7 active torsions:
REMARK  status: ('A' for Active; 'I' for Inactive)
REMARK    1  A    between atoms: C_1  and  C_2
REMARK    2  A    between atoms: N_4  and  C_5
REMARK    3  A    between atoms: C_6  and  C_7
REMARK    4  A    between atoms: C_8  and  S_9
REMARK    5  A    between atoms: S_9  and  N_12
REMARK    6  A    between atoms: N_12  and  C_13
REMARK    7  A    between atoms: C_17  and  C_18
REMARK                            x       y       z     vdW  Elec       q    Type
REMARK                         _______ _______ _______ _____ _____    ______ ____
ROOT
ATOM      1  C   UNL     1       0.633   9.940  18.875  0.00  0.00    +0.000 A 
ATOM      2  C   UNL     1       0.412   9.741  20.237  0.00  0.00    +0.000 A 
ATOM      3  C   UNL     1       1.037   8.672  20.887  0.00  0.00    +0.000 A 
ATOM      4  C   UNL     1       1.889   7.819  20.176  0.00  0.00    +0.000 A 
ATOM      5  C   UNL     1       2.131   8.029  18.812  0.00  0.00    +0.000 A 
ATOM      6  C   UNL     1       1.476   9.088  18.170  0.00  0.00    +0.000 A 
ENDROOT
BRANCH   5   7
ATOM      7  C   UNL     1       2.998   7.119  18.065  0.00  0.00    +0.000 A 
ATOM      8  N   UNL     1       4.020   7.487  17.317  0.00  0.00    +0.000 NA
ATOM      9  N   UNL     1       4.657   6.364  16.859  0.00  0.00    +0.000 NA
ATOM     10  C   UNL     1       4.005   5.309  17.306  0.00  0.00    +0.000 A 
ATOM     11  N   UNL     1       2.910   5.740  18.016  0.00  0.00    +0.000 N 
ATOM     12  C   UNL     1       1.853   4.922  18.580  0.00  0.00    +0.000 C 
ATOM     13  C   UNL     1       1.475   3.712  17.741  0.00  0.00    +0.000 C 
ATOM     14  C   UNL     1       2.426   2.529  17.910  0.00  0.00    +0.000 C 
ATOM     15  C   UNL     1       3.904   2.887  18.065  0.00  0.00    +0.000 C 
ATOM     16  C   UNL     1       4.397   3.896  17.036  0.00  0.00    +0.000 C 
ENDBRANCH   5   7
BRANCH   1  17
ATOM     17  N   UNL     1      -0.012  10.976  18.142  0.00  0.00    +0.000 N 
ATOM     18  H   UNL     1       0.417  11.155  17.236  0.00  0.00    +0.000 HD
BRANCH  17  19
ATOM     19  S   UNL     1      -1.687  10.857  17.914  0.00  0.00    +0.000 S 
ATOM     20  O   UNL     1      -2.104   9.511  18.229  0.00  0.00    +0.000 OA
ATOM     21  O   UNL     1      -1.951  11.429  16.611  0.00  0.00    +0.000 OA
BRANCH  19  29
ATOM     22  C   UNL     1      -5.013  11.283  18.490  0.00  0.00    +0.000 C 
ATOM     23  C   UNL     1      -3.915  12.004  19.184  0.00  0.00    +0.000 A 
ATOM     24  N   UNL     1      -4.221  12.898  20.133  0.00  0.00    +0.000 NA
ATOM     25  N   UNL     1      -3.038  13.411  20.511  0.00  0.00    +0.000 N 
ATOM     26  C   UNL     1      -3.024  14.490  21.473  0.00  0.00    +0.000 C 
ATOM     27  C   UNL     1      -1.962  12.792  19.925  0.00  0.00    +0.000 A 
ATOM     28  C   UNL     1      -0.548  13.122  20.236  0.00  0.00    +0.000 C 
ATOM     29  C   UNL     1      -2.514  11.893  19.021  0.00  0.00    +0.000 A 
ENDBRANCH  19  29
ENDBRANCH  17  19
ENDBRANCH   1  17
TORSDOF 4
ENDMDL
MODEL 7
REMARK VINA RESULT:      -7.9      2.776      8.561
REMARK  Name = 
REMARK  7 active torsions:
REMARK  status: ('A' for Active; 'I' for Inactive)
REMARK    1  A    between atoms: C_1  and  C_2
REMARK    2  A    between atoms: N_4  and  C_5
REMARK    3  A    between atoms: C_6  and  C_7
REMARK    4  A    between atoms: C_8  and  S_9
REMARK    5  A    between atoms: S_9  and  N_12
REMARK    6  A    between atoms: N_12  and  C_13
REMARK    7  A    between atoms: C_17  and  C_18
REMARK                            x       y       z     vdW  Elec       q    Type
REMARK                         _______ _______ _______ _____ _____    ______ ____
ROOT
ATOM      1  C   UNL     1       2.760   6.302  19.263  0.00  0.00    +0.000 A 
ATOM      2  C   UNL     1       2.961   6.846  17.996  0.00  0.00    +0.000 A 
ATOM      3  C   UNL     1       2.517   8.144  17.726  0.00  0.00    +0.000 A 
ATOM      4  C   UNL     1       1.889   8.894  18.726  0.00  0.00    +0.000 A 
ATOM      5  C   UNL     1       1.706   8.359  20.008  0.00  0.00    +0.000 A 
ATOM      6  C   UNL     1       2.132   7.048  20.254  0.00  0.00    +0.000 A 
ENDROOT
BRANCH   5   7
ATOM      7  C   UNL     1       1.023   9.134  21.044  0.00  0.00    +0.000 A 
ATOM      8  N   UNL     1       1.093   8.896  22.339  0.00  0.00    +0.000 NA
ATOM      9  N   UNL     1       0.414   9.883  23.004  0.00  0.00    +0.000 NA
ATOM     10  C   UNL     1      -0.094  10.708  22.112  0.00  0.00    +0.000 A 
ATOM     11  N   UNL     1       0.209  10.235  20.857  0.00  0.00    +0.000 N 
ATOM     12  C   UNL     1      -0.251  10.762  19.586  0.00  0.00    +0.000 C 
ATOM     13  C   UNL     1      -1.675  11.294  19.602  0.00  0.00    +0.000 C 
ATOM     14  C   UNL     1      -1.796  12.702  20.184  0.00  0.00    +0.000 C 
ATOM     15  C   UNL     1      -0.881  13.007  21.370  0.00  0.00    +0.000 C 
ATOM     16  C   UNL     1      -0.892  11.924  22.441  0.00  0.00    +0.000 C 
ENDBRANCH   5   7
BRANCH   1  17
ATOM     17  N   UNL     1       3.141   4.969  19.589  0.00  0.00    +0.000 N 
ATOM     18  H   UNL     1       2.554   4.264  19.147  0.00  0.00    +0.000 HD
BRANCH  17  19
ATOM     19  S   UNL     1       4.759   4.530  19.346  0.00  0.00    +0.000 S 
ATOM     20  O   UNL     1       4.961   3.194  19.857  0.00  0.00    +0.000 OA
ATOM     21  O   UNL     1       5.549   5.638  19.840  0.00  0.00    +0.000 OA
BRANCH  19  29
ATOM     22  C   UNL     1       3.026   3.133  16.772  0.00  0.00    +0.000 C 
ATOM     23  C   UNL     1       4.323   3.847  16.656  0.00  0.00    +0.000 A 
ATOM     24  N   UNL     1       4.886   3.983  15.448  0.00  0.00    +0.000 NA
ATOM     25  N   UNL     1       6.055   4.601  15.685  0.00  0.00    +0.000 N 
ATOM     26  C   UNL     1       6.963   4.817  14.580  0.00  0.00    +0.000 C 
ATOM     27  C   UNL     1       6.217   4.981  16.994  0.00  0.00    +0.000 A 
ATOM     28  C   UNL     1       7.386   5.747  17.494  0.00  0.00    +0.000 C 
ATOM     29  C   UNL     1       5.112   4.462  17.657  0.00  0.00    +0.000 A 
ENDBRANCH  19  29
ENDBRANCH  17  19
ENDBRANCH   1  17
TORSDOF 4
ENDMDL
MODEL 8
REMARK VINA RESULT:      -7.9      2.766      3.956
REMARK  Name = 
REMARK  7 active torsions:
REMARK  status: ('A' for Active; 'I' for Inactive)
REMARK    1  A    between atoms: C_1  and  C_2
REMARK    2  A    between atoms: N_4  and  C_5
REMARK    3  A    between atoms: C_6  and  C_7
REMARK    4  A    between atoms: C_8  and  S_9
REMARK    5  A    between atoms: S_9  and  N_12
REMARK    6  A    between atoms: N_12  and  C_13
REMARK    7  A    between atoms: C_17  and  C_18
REMARK                            x       y       z     vdW  Elec       q    Type
REMARK                         _______ _______ _______ _____ _____    ______ ____
ROOT
ATOM      1  C   UNL     1       0.528   9.875  19.166  0.00  0.00    +0.000 A 
ATOM      2  C   UNL     1       0.371   9.626  20.529  0.00  0.00    +0.000 A 
ATOM      3  C   UNL     1       1.054   8.557  21.116  0.00  0.00    +0.000 A 
ATOM      4  C   UNL     1       1.898   7.753  20.342  0.00  0.00    +0.000 A 
ATOM      5  C   UNL     1       2.076   8.013  18.977  0.00  0.00    +0.000 A 
ATOM      6  C   UNL     1       1.364   9.072  18.399  0.00  0.00    +0.000 A 
ENDROOT
BRANCH   5   7
ATOM      7  C   UNL     1       2.937   7.155  18.165  0.00  0.00    +0.000 A 
ATOM      8  N   UNL     1       3.924   7.577  17.398  0.00  0.00    +0.000 NA
ATOM      9  N   UNL     1       4.569   6.488  16.874  0.00  0.00    +0.000 NA
ATOM     10  C   UNL     1       3.957   5.401  17.300  0.00  0.00    +0.000 A 
ATOM     11  N   UNL     1       2.878   5.777  18.064  0.00  0.00    +0.000 N 
ATOM     12  C   UNL     1       1.860   4.913  18.631  0.00  0.00    +0.000 C 
ATOM     13  C   UNL     1       1.481   3.728  17.758  0.00  0.00    +0.000 C 
ATOM     14  C   UNL     1       2.464   2.562  17.846  0.00  0.00    +0.000 C 
ATOM     15  C   UNL     1       3.938   2.949  17.965  0.00  0.00    +0.000 C 
ATOM     16  C   UNL     1       4.371   4.009  16.960  0.00  0.00    +0.000 C 
ENDBRANCH   5   7
BRANCH   1  17
ATOM     17  N   UNL     1      -0.177  10.915  18.495  0.00  0.00    +0.000 N 
ATOM     18  H   UNL     1      -1.174  10.928  18.709  0.00  0.00    +0.000 HD
BRANCH  17  19
ATOM     19  S   UNL     1       0.412  12.496  18.652  0.00  0.00    +0.000 S 
ATOM     20  O   UNL     1      -0.370  13.370  17.809  0.00  0.00    +0.000 OA
ATOM     21  O   UNL     1       1.847  12.401  18.490  0.00  0.00    +0.000 OA
BRANCH  19  29
ATOM     22  C   UNL     1       2.610  13.916  20.827  0.00  0.00    +0.000 C 
ATOM     23  C   UNL     1       1.179  13.633  21.103  0.00  0.00    +0.000 A 
ATOM     24  N   UNL     1       0.669  13.963  22.298  0.00  0.00    +0.000 NA
ATOM     25  N   UNL     1      -0.601  13.527  22.257  0.00  0.00    +0.000 N 
ATOM     26  C   UNL     1      -1.415  13.646  23.447  0.00  0.00    +0.000 C 
ATOM     27  C   UNL     1      -0.971  13.034  21.031  0.00  0.00    +0.000 A 
ATOM     28  C   UNL     1      -2.342  12.564  20.707  0.00  0.00    +0.000 C 
ATOM     29  C   UNL     1       0.192  13.057  20.270  0.00  0.00    +0.000 A 
ENDBRANCH  19  29
ENDBRANCH  17  19
ENDBRANCH   1  17
TORSDOF 4
ENDMDL
MODEL 9
REMARK VINA RESULT:      -7.8      3.107      3.950
REMARK  Name = 
REMARK  7 active torsions:
REMARK  status: ('A' for Active; 'I' for Inactive)
REMARK    1  A    between atoms: C_1  and  C_2
REMARK    2  A    between atoms: N_4  and  C_5
REMARK    3  A    between atoms: C_6  and  C_7
REMARK    4  A    between atoms: C_8  and  S_9
REMARK    5  A    between atoms: S_9  and  N_12
REMARK    6  A    between atoms: N_12  and  C_13
REMARK    7  A    between atoms: C_17  and  C_18
REMARK                            x       y       z     vdW  Elec       q    Type
REMARK                         _______ _______ _______ _____ _____    ______ ____
ROOT
ATOM      1  C   UNL     1       0.965   9.844  18.817  0.00  0.00    +0.000 A 
ATOM      2  C   UNL     1       0.643   9.626  20.155  0.00  0.00    +0.000 A 
ATOM      3  C   UNL     1       1.139   8.492  20.806  0.00  0.00    +0.000 A 
ATOM      4  C   UNL     1       1.962   7.592  20.120  0.00  0.00    +0.000 A 
ATOM      5  C   UNL     1       2.305   7.819  18.781  0.00  0.00    +0.000 A 
ATOM      6  C   UNL     1       1.779   8.946  18.136  0.00  0.00    +0.000 A 
ENDROOT
BRANCH   5   7
ATOM      7  C   UNL     1       3.142   6.862  18.058  0.00  0.00    +0.000 A 
ATOM      8  N   UNL     1       4.197   7.175  17.330  0.00  0.00    +0.000 NA
ATOM      9  N   UNL     1       4.786   6.018  16.893  0.00  0.00    +0.000 NA
ATOM     10  C   UNL     1       4.074   4.999  17.332  0.00  0.00    +0.000 A 
ATOM     11  N   UNL     1       2.987   5.489  18.016  0.00  0.00    +0.000 N 
ATOM     12  C   UNL     1       1.879   4.729  18.563  0.00  0.00    +0.000 C 
ATOM     13  C   UNL     1       1.459   3.532  17.723  0.00  0.00    +0.000 C 
ATOM     14  C   UNL     1       2.347   2.305  17.920  0.00  0.00    +0.000 C 
ATOM     15  C   UNL     1       3.838   2.591  18.104  0.00  0.00    +0.000 C 
ATOM     16  C   UNL     1       4.401   3.567  17.079  0.00  0.00    +0.000 C 
ENDBRANCH   5   7
BRANCH   1  17
ATOM     17  N   UNL     1       0.453  10.951  18.080  0.00  0.00    +0.000 N 
ATOM     18  H   UNL     1      -0.214  10.680  17.359  0.00  0.00    +0.000 HD
BRANCH  17  19
ATOM     19  S   UNL     1      -0.218  12.238  18.955  0.00  0.00    +0.000 S 
ATOM     20  O   UNL     1       0.083  13.473  18.270  0.00  0.00    +0.000 OA
ATOM     21  O   UNL     1       0.188  12.036  20.329  0.00  0.00    +0.000 OA
BRANCH  19  29
ATOM     22  C   UNL     1      -2.496  13.429  21.184  0.00  0.00    +0.000 C 
ATOM     23  C   UNL     1      -2.808  12.636  19.968  0.00  0.00    +0.000 A 
ATOM     24  N   UNL     1      -4.086  12.355  19.683  0.00  0.00    +0.000 NA
ATOM     25  N   UNL     1      -4.029  11.586  18.583  0.00  0.00    +0.000 N 
ATOM     26  C   UNL     1      -5.256  11.026  18.062  0.00  0.00    +0.000 C 
ATOM     27  C   UNL     1      -2.762  11.458  18.071  0.00  0.00    +0.000 A 
ATOM     28  C   UNL     1      -2.446  10.726  16.818  0.00  0.00    +0.000 C 
ATOM     29  C   UNL     1      -1.939  12.106  18.985  0.00  0.00    +0.000 A 
ENDBRANCH  19  29
ENDBRANCH  17  19
ENDBRANCH   1  17
TORSDOF 4
ENDMDL
