MODEL 1
REMARK VINA RESULT:      -8.5      0.000      0.000
REMARK  Name = 
REMARK  2 active torsions:
REMARK  status: ('A' for Active; 'I' for Inactive)
REMARK    1  A    between atoms: C_2  and  C_14
REMARK    2  A    between atoms: N_3  and  C_4
REMARK                            x       y       z     vdW  Elec       q    Type
REMARK                         _______ _______ _______ _____ _____    ______ ____
ROOT
ATOM      1  O   UNL     1       2.294   6.285  19.792  0.00  0.00    +0.000 OA
ATOM      2  C   UNL     1       2.679   6.810  18.751  0.00  0.00    +0.000 C 
ATOM      3  N   UNL     1       2.346   8.086  18.319  0.00  0.00    +0.000 N 
ATOM      4  H   UNL     1       2.554   8.334  17.361  0.00  0.00    +0.000 HD
ENDROOT
BRANCH   3   5
ATOM      5  C   UNL     1       1.540   8.982  19.071  0.00  0.00    +0.000 A 
ATOM      6  C   UNL     1       1.131  10.230  18.607  0.00  0.00    +0.000 A 
ATOM      7  N   UNL     1       0.405  11.123  19.322  0.00  0.00    +0.000 NA
ATOM      8  C   UNL     1       0.062  10.792  20.570  0.00  0.00    +0.000 A 
ATOM      9  C   UNL     1      -0.637  11.718  21.329  0.00  0.00    +0.000 A 
ATOM     10  C   UNL     1      -1.016  11.449  22.644  0.00  0.00    +0.000 A 
ATOM     11  C   UNL     1      -0.695  10.222  23.215  0.00  0.00    +0.000 A 
ATOM     12  C   UNL     1       0.004   9.271  22.467  0.00  0.00    +0.000 A 
ATOM     13  C   UNL     1       0.394   9.545  21.142  0.00  0.00    +0.000 A 
ATOM     14  C   UNL     1       1.128   8.628  20.356  0.00  0.00    +0.000 A 
ENDBRANCH   3   5
BRANCH   2  15
ATOM     15  C   UNL     1       3.515   5.977  17.854  0.00  0.00    +0.000 A 
ATOM     16  C   UNL     1       3.211   4.604  17.795  0.00  0.00    +0.000 A 
ATOM     17  C   UNL     1       4.003   3.704  17.078  0.00  0.00    +0.000 A 
ATOM     18  C   UNL     1       5.120   4.243  16.444  0.00  0.00    +0.000 A 
ATOM     19  N   UNL     1       6.124   3.667  15.709  0.00  0.00    +0.000 N 
ATOM     20  C   UNL     1       6.993   4.655  15.341  0.00  0.00    +0.000 A 
ATOM     21  N   UNL     1       6.607   5.831  15.780  0.00  0.00    +0.000 NA
ATOM     22  C   UNL     1       5.447   5.596  16.479  0.00  0.00    +0.000 A 
ATOM     23  C   UNL     1       4.633   6.496  17.188  0.00  0.00    +0.000 A 
ATOM     24  H   UNL     1       6.217   2.684  15.498  0.00  0.00    +0.000 HD
ENDBRANCH   2  15
TORSDOF 2
ENDMDL
MODEL 2
REMARK VINA RESULT:      -8.4      1.768      2.182
REMARK  Name = 
REMARK  2 active torsions:
REMARK  status: ('A' for Active; 'I' for Inactive)
REMARK    1  A    between atoms: C_2  and  C_14
REMARK    2  A    between atoms: N_3  and  C_4
REMARK                            x       y       z     vdW  Elec       q    Type
REMARK                         _______ _______ _______ _____ _____    ______ ____
ROOT
ATOM      1  O   UNL     1       2.173   7.320  19.632  0.00  0.00    +0.000 OA
ATOM      2  C   UNL     1       2.486   7.537  18.465  0.00  0.00    +0.000 C 
ATOM      3  N   UNL     1       2.025   8.590  17.687  0.00  0.00    +0.000 N 
ATOM      4  H   UNL     1       2.190   8.554  16.690  0.00  0.00    +0.000 HD
ENDROOT
BRANCH   3   5
ATOM      5  C   UNL     1       1.151   9.599  18.173  0.00  0.00    +0.000 A 
ATOM      6  C   UNL     1       1.549  10.618  19.035  0.00  0.00    +0.000 A 
ATOM      7  N   UNL     1       0.726  11.561  19.552  0.00  0.00    +0.000 NA
ATOM      8  C   UNL     1      -0.568  11.508  19.225  0.00  0.00    +0.000 A 
ATOM      9  C   UNL     1      -1.429  12.438  19.788  0.00  0.00    +0.000 A 
ATOM     10  C   UNL     1      -2.795  12.434  19.504  0.00  0.00    +0.000 A 
ATOM     11  C   UNL     1      -3.314  11.485  18.632  0.00  0.00    +0.000 A 
ATOM     12  C   UNL     1      -2.464  10.542  18.047  0.00  0.00    +0.000 A 
ATOM     13  C   UNL     1      -1.087  10.539  18.339  0.00  0.00    +0.000 A 
ATOM     14  C   UNL     1      -0.192   9.588  17.797  0.00  0.00    +0.000 A 
ENDBRANCH   3   5
BRANCH   2  15
ATOM     15  C   UNL     1       3.381   6.546  17.820  0.00  0.00    +0.000 A 
ATOM     16  C   UNL     1       3.044   5.189  17.977  0.00  0.00    +0.000 A 
ATOM     17  C   UNL     1       3.876   4.166  17.517  0.00  0.00    +0.000 A 
ATOM     18  C   UNL     1       5.064   4.569  16.912  0.00  0.00    +0.000 A 
ATOM     19  N   UNL     1       6.118   3.859  16.397  0.00  0.00    +0.000 N 
ATOM     20  C   UNL     1       7.047   4.754  15.947  0.00  0.00    +0.000 A 
ATOM     21  N   UNL     1       6.654   5.995  16.128  0.00  0.00    +0.000 NA
ATOM     22  C   UNL     1       5.425   5.902  16.737  0.00  0.00    +0.000 A 
ATOM     23  C   UNL     1       4.573   6.925  17.188  0.00  0.00    +0.000 A 
ATOM     24  H   UNL     1       6.202   2.852  16.375  0.00  0.00    +0.000 HD
ENDBRANCH   2  15
TORSDOF 2
ENDMDL
MODEL 3
REMARK VINA RESULT:      -8.3      2.112      3.123
REMARK  Name = 
REMARK  2 active torsions:
REMARK  status: ('A' for Active; 'I' for Inactive)
REMARK    1  A    between atoms: C_2  and  C_14
REMARK    2  A    between atoms: N_3  and  C_4
REMARK                            x       y       z     vdW  Elec       q    Type
REMARK                         _______ _______ _______ _____ _____    ______ ____
ROOT
ATOM      1  O   UNL     1       2.200   8.453  18.745  0.00  0.00    +0.000 OA
ATOM      2  C   UNL     1       2.149   7.541  19.564  0.00  0.00    +0.000 C 
ATOM      3  N   UNL     1       1.567   7.616  20.821  0.00  0.00    +0.000 N 
ATOM      4  H   UNL     1       1.761   6.874  21.482  0.00  0.00    +0.000 HD
ENDROOT
BRANCH   3   5
ATOM      5  C   UNL     1       0.900   8.772  21.308  0.00  0.00    +0.000 A 
ATOM      6  C   UNL     1       0.891   9.154  22.646  0.00  0.00    +0.000 A 
ATOM      7  N   UNL     1       0.221  10.221  23.144  0.00  0.00    +0.000 NA
ATOM      8  C   UNL     1      -0.496  10.961  22.292  0.00  0.00    +0.000 A 
ATOM      9  C   UNL     1      -1.226  12.026  22.797  0.00  0.00    +0.000 A 
ATOM     10  C   UNL     1      -2.009  12.832  21.971  0.00  0.00    +0.000 A 
ATOM     11  C   UNL     1      -2.060  12.573  20.606  0.00  0.00    +0.000 A 
ATOM     12  C   UNL     1      -1.327  11.509  20.073  0.00  0.00    +0.000 A 
ATOM     13  C   UNL     1      -0.543  10.689  20.908  0.00  0.00    +0.000 A 
ATOM     14  C   UNL     1       0.191   9.584  20.422  0.00  0.00    +0.000 A 
ENDBRANCH   3   5
BRANCH   2  15
ATOM     15  C   UNL     1       2.828   6.275  19.195  0.00  0.00    +0.000 A 
ATOM     16  C   UNL     1       3.421   6.221  17.920  0.00  0.00    +0.000 A 
ATOM     17  C   UNL     1       3.984   5.044  17.419  0.00  0.00    +0.000 A 
ATOM     18  C   UNL     1       3.905   3.927  18.248  0.00  0.00    +0.000 A 
ATOM     19  N   UNL     1       4.297   2.626  18.072  0.00  0.00    +0.000 N 
ATOM     20  C   UNL     1       3.956   1.930  19.197  0.00  0.00    +0.000 A 
ATOM     21  N   UNL     1       3.381   2.701  20.091  0.00  0.00    +0.000 NA
ATOM     22  C   UNL     1       3.330   3.949  19.516  0.00  0.00    +0.000 A 
ATOM     23  C   UNL     1       2.782   5.142  20.018  0.00  0.00    +0.000 A 
ATOM     24  H   UNL     1       4.740   2.244  17.247  0.00  0.00    +0.000 HD
ENDBRANCH   2  15
TORSDOF 2
ENDMDL
MODEL 4
REMARK VINA RESULT:      -8.3      6.866      8.289
REMARK  Name = 
REMARK  2 active torsions:
REMARK  status: ('A' for Active; 'I' for Inactive)
REMARK    1  A    between atoms: C_2  and  C_14
REMARK    2  A    between atoms: N_3  and  C_4
REMARK                            x       y       z     vdW  Elec       q    Type
REMARK                         _______ _______ _______ _____ _____    ______ ____
ROOT
ATOM      1  O   UNL     1       7.859   9.969  17.432  0.00  0.00    +0.000 OA
ATOM      2  C   UNL     1       8.228   9.093  18.208  0.00  0.00    +0.000 C 
ATOM      3  N   UNL     1       9.096   9.272  19.275  0.00  0.00    +0.000 N 
ATOM      4  H   UNL     1       9.485   8.450  19.717  0.00  0.00    +0.000 HD
ENDROOT
BRANCH   3   5
ATOM      5  C   UNL     1       9.640  10.534  19.639  0.00  0.00    +0.000 A 
ATOM      6  C   UNL     1       9.307  11.210  20.809  0.00  0.00    +0.000 A 
ATOM      7  N   UNL     1       9.772  12.435  21.156  0.00  0.00    +0.000 NA
ATOM      8  C   UNL     1      10.603  13.050  20.309  0.00  0.00    +0.000 A 
ATOM      9  C   UNL     1      11.044  14.325  20.628  0.00  0.00    +0.000 A 
ATOM     10  C   UNL     1      11.901  15.034  19.786  0.00  0.00    +0.000 A 
ATOM     11  C   UNL     1      12.332  14.454  18.598  0.00  0.00    +0.000 A 
ATOM     12  C   UNL     1      11.905  13.168  18.258  0.00  0.00    +0.000 A 
ATOM     13  C   UNL     1      11.034  12.455  19.104  0.00  0.00    +0.000 A 
ATOM     14  C   UNL     1      10.550  11.164  18.791  0.00  0.00    +0.000 A 
ENDBRANCH   3   5
BRANCH   2  15
ATOM     15  C   UNL     1       7.752   7.715  17.933  0.00  0.00    +0.000 A 
ATOM     16  C   UNL     1       8.110   6.722  18.863  0.00  0.00    +0.000 A 
ATOM     17  C   UNL     1       7.820   5.373  18.647  0.00  0.00    +0.000 A 
ATOM     18  C   UNL     1       7.176   5.070  17.450  0.00  0.00    +0.000 A 
ATOM     19  N   UNL     1       6.788   3.878  16.894  0.00  0.00    +0.000 N 
ATOM     20  C   UNL     1       6.218   4.147  15.682  0.00  0.00    +0.000 A 
ATOM     21  N   UNL     1       6.204   5.435  15.427  0.00  0.00    +0.000 NA
ATOM     22  C   UNL     1       6.804   6.028  16.512  0.00  0.00    +0.000 A 
ATOM     23  C   UNL     1       7.085   7.385  16.746  0.00  0.00    +0.000 A 
ATOM     24  H   UNL     1       6.920   2.962  17.300  0.00  0.00    +0.000 HD
ENDBRANCH   2  15
TORSDOF 2
ENDMDL
MODEL 5
REMARK VINA RESULT:      -8.3      1.801      8.496
REMARK  Name = 
REMARK  2 active torsions:
REMARK  status: ('A' for Active; 'I' for Inactive)
REMARK    1  A    between atoms: C_2  and  C_14
REMARK    2  A    between atoms: N_3  and  C_4
REMARK                            x       y       z     vdW  Elec       q    Type
REMARK                         _______ _______ _______ _____ _____    ______ ____
ROOT
ATOM      1  O   UNL     1       1.563   8.842  18.475  0.00  0.00    +0.000 OA
ATOM      2  C   UNL     1       1.582   8.427  19.630  0.00  0.00    +0.000 C 
ATOM      3  N   UNL     1       2.142   7.230  20.050  0.00  0.00    +0.000 N 
ATOM      4  H   UNL     1       1.922   6.900  20.981  0.00  0.00    +0.000 HD
ENDROOT
BRANCH   3   5
ATOM      5  C   UNL     1       2.823   6.337  19.180  0.00  0.00    +0.000 A 
ATOM      6  C   UNL     1       2.864   4.957  19.365  0.00  0.00    +0.000 A 
ATOM      7  N   UNL     1       3.547   4.089  18.580  0.00  0.00    +0.000 NA
ATOM      8  C   UNL     1       4.246   4.590  17.557  0.00  0.00    +0.000 A 
ATOM      9  C   UNL     1       4.990   3.718  16.777  0.00  0.00    +0.000 A 
ATOM     10  C   UNL     1       5.755   4.171  15.702  0.00  0.00    +0.000 A 
ATOM     11  C   UNL     1       5.775   5.526  15.393  0.00  0.00    +0.000 A 
ATOM     12  C   UNL     1       5.027   6.423  16.161  0.00  0.00    +0.000 A 
ATOM     13  C   UNL     1       4.261   5.969  17.252  0.00  0.00    +0.000 A 
ATOM     14  C   UNL     1       3.513   6.839  18.077  0.00  0.00    +0.000 A 
ENDBRANCH   3   5
BRANCH   2  15
ATOM     15  C   UNL     1       0.884   9.253  20.646  0.00  0.00    +0.000 A 
ATOM     16  C   UNL     1       0.931   8.797  21.977  0.00  0.00    +0.000 A 
ATOM     17  C   UNL     1       0.213   9.426  22.996  0.00  0.00    +0.000 A 
ATOM     18  C   UNL     1      -0.564  10.517  22.613  0.00  0.00    +0.000 A 
ATOM     19  N   UNL     1      -1.416  11.328  23.318  0.00  0.00    +0.000 N 
ATOM     20  C   UNL     1      -1.949  12.234  22.446  0.00  0.00    +0.000 A 
ATOM     21  N   UNL     1      -1.486  12.067  21.228  0.00  0.00    +0.000 NA
ATOM     22  C   UNL     1      -0.628  10.996  21.308  0.00  0.00    +0.000 A 
ATOM     23  C   UNL     1       0.111  10.366  20.293  0.00  0.00    +0.000 A 
ATOM     24  H   UNL     1      -1.629  11.253  24.303  0.00  0.00    +0.000 HD
ENDBRANCH   2  15
TORSDOF 2
ENDMDL
MODEL 6
REMARK VINA RESULT:      -8.2      1.419      1.927
REMARK  Name = 
REMARK  2 active torsions:
REMARK  status: ('A' for Active; 'I' for Inactive)
REMARK    1  A    between atoms: C_2  and  C_14
REMARK    2  A    between atoms: N_3  and  C_4
REMARK                            x       y       z     vdW  Elec       q    Type
REMARK                         _______ _______ _______ _____ _____    ______ ____
ROOT
ATOM      1  O   UNL     1       2.212   8.843  17.806  0.00  0.00    +0.000 OA
ATOM      2  C   UNL     1       2.415   7.849  18.496  0.00  0.00    +0.000 C 
ATOM      3  N   UNL     1       2.046   7.697  19.824  0.00  0.00    +0.000 N 
ATOM      4  H   UNL     1       2.441   6.925  20.345  0.00  0.00    +0.000 HD
ENDROOT
BRANCH   3   5
ATOM      5  C   UNL     1       1.324   8.680  20.553  0.00  0.00    +0.000 A 
ATOM      6  C   UNL     1       1.388   8.819  21.937  0.00  0.00    +0.000 A 
ATOM      7  N   UNL     1       0.673   9.714  22.661  0.00  0.00    +0.000 NA
ATOM      8  C   UNL     1      -0.168  10.518  22.004  0.00  0.00    +0.000 A 
ATOM      9  C   UNL     1      -0.942  11.403  22.739  0.00  0.00    +0.000 A 
ATOM     10  C   UNL     1      -1.852  12.263  22.123  0.00  0.00    +0.000 A 
ATOM     11  C   UNL     1      -1.988  12.244  20.739  0.00  0.00    +0.000 A 
ATOM     12  C   UNL     1      -1.213  11.366  19.978  0.00  0.00    +0.000 A 
ATOM     13  C   UNL     1      -0.300  10.491  20.599  0.00  0.00    +0.000 A 
ATOM     14  C   UNL     1       0.483   9.564  19.876  0.00  0.00    +0.000 A 
ENDBRANCH   3   5
BRANCH   2  15
ATOM     15  C   UNL     1       3.182   6.747  17.866  0.00  0.00    +0.000 A 
ATOM     16  C   UNL     1       2.702   5.439  18.072  0.00  0.00    +0.000 A 
ATOM     17  C   UNL     1       3.406   4.318  17.628  0.00  0.00    +0.000 A 
ATOM     18  C   UNL     1       4.618   4.571  16.989  0.00  0.00    +0.000 A 
ATOM     19  N   UNL     1       5.576   3.734  16.476  0.00  0.00    +0.000 N 
ATOM     20  C   UNL     1       6.586   4.508  15.981  0.00  0.00    +0.000 A 
ATOM     21  N   UNL     1       6.336   5.789  16.130  0.00  0.00    +0.000 NA
ATOM     22  C   UNL     1       5.118   5.850  16.764  0.00  0.00    +0.000 A 
ATOM     23  C   UNL     1       4.394   6.973  17.200  0.00  0.00    +0.000 A 
ATOM     24  H   UNL     1       5.549   2.724  16.485  0.00  0.00    +0.000 HD
ENDBRANCH   2  15
TORSDOF 2
ENDMDL
MODEL 7
REMARK VINA RESULT:      -8.2      1.366      1.482
REMARK  Name = 
REMARK  2 active torsions:
REMARK  status: ('A' for Active; 'I' for Inactive)
REMARK    1  A    between atoms: C_2  and  C_14
REMARK    2  A    between atoms: N_3  and  C_4
REMARK                            x       y       z     vdW  Elec       q    Type
REMARK                         _______ _______ _______ _____ _____    ______ ____
ROOT
ATOM      1  O   UNL     1       2.302   8.589  17.346  0.00  0.00    +0.000 OA
ATOM      2  C   UNL     1       2.550   7.889  18.324  0.00  0.00    +0.000 C 
ATOM      3  N   UNL     1       2.014   8.054  19.592  0.00  0.00    +0.000 N 
ATOM      4  H   UNL     1       2.441   7.551  20.360  0.00  0.00    +0.000 HD
ENDROOT
BRANCH   3   5
ATOM      5  C   UNL     1       1.050   9.047  19.912  0.00  0.00    +0.000 A 
ATOM      6  C   UNL     1       0.541   9.957  18.990  0.00  0.00    +0.000 A 
ATOM      7  N   UNL     1      -0.340  10.945  19.279  0.00  0.00    +0.000 NA
ATOM      8  C   UNL     1      -0.745  11.068  20.547  0.00  0.00    +0.000 A 
ATOM      9  C   UNL     1      -1.607  12.106  20.865  0.00  0.00    +0.000 A 
ATOM     10  C   UNL     1      -2.060  12.306  22.169  0.00  0.00    +0.000 A 
ATOM     11  C   UNL     1      -1.649  11.444  23.180  0.00  0.00    +0.000 A 
ATOM     12  C   UNL     1      -0.786  10.386  22.881  0.00  0.00    +0.000 A 
ATOM     13  C   UNL     1      -0.321  10.189  21.567  0.00  0.00    +0.000 A 
ATOM     14  C   UNL     1       0.577   9.153  21.220  0.00  0.00    +0.000 A 
ENDBRANCH   3   5
BRANCH   2  15
ATOM     15  C   UNL     1       3.562   6.820  18.138  0.00  0.00    +0.000 A 
ATOM     16  C   UNL     1       3.605   5.810  19.117  0.00  0.00    +0.000 A 
ATOM     17  C   UNL     1       4.591   4.821  19.110  0.00  0.00    +0.000 A 
ATOM     18  C   UNL     1       5.537   4.907  18.091  0.00  0.00    +0.000 A 
ATOM     19  N   UNL     1       6.648   4.156  17.806  0.00  0.00    +0.000 N 
ATOM     20  C   UNL     1       7.244   4.693  16.700  0.00  0.00    +0.000 A 
ATOM     21  N   UNL     1       6.582   5.733  16.247  0.00  0.00    +0.000 NA
ATOM     22  C   UNL     1       5.519   5.890  17.105  0.00  0.00    +0.000 A 
ATOM     23  C   UNL     1       4.513   6.870  17.111  0.00  0.00    +0.000 A 
ATOM     24  H   UNL     1       6.980   3.360  18.333  0.00  0.00    +0.000 HD
ENDBRANCH   2  15
TORSDOF 2
ENDMDL
MODEL 8
REMARK VINA RESULT:      -8.2      6.401      9.234
REMARK  Name = 
REMARK  2 active torsions:
REMARK  status: ('A' for Active; 'I' for Inactive)
REMARK    1  A    between atoms: C_2  and  C_14
REMARK    2  A    between atoms: N_3  and  C_4
REMARK                            x       y       z     vdW  Elec       q    Type
REMARK                         _______ _______ _______ _____ _____    ______ ____
ROOT
ATOM      1  O   UNL     1       7.672   9.900  17.689  0.00  0.00    +0.000 OA
ATOM      2  C   UNL     1       8.613   9.533  18.387  0.00  0.00    +0.000 C 
ATOM      3  N   UNL     1       8.819   8.242  18.851  0.00  0.00    +0.000 N 
ATOM      4  H   UNL     1       9.509   8.101  19.577  0.00  0.00    +0.000 HD
ENDROOT
BRANCH   3   5
ATOM      5  C   UNL     1       7.972   7.149  18.527  0.00  0.00    +0.000 A 
ATOM      6  C   UNL     1       7.800   6.035  19.345  0.00  0.00    +0.000 A 
ATOM      7  N   UNL     1       7.039   4.957  19.038  0.00  0.00    +0.000 NA
ATOM      8  C   UNL     1       6.412   4.952  17.858  0.00  0.00    +0.000 A 
ATOM      9  C   UNL     1       5.671   3.833  17.510  0.00  0.00    +0.000 A 
ATOM     10  C   UNL     1       5.001   3.750  16.289  0.00  0.00    +0.000 A 
ATOM     11  C   UNL     1       5.068   4.812  15.394  0.00  0.00    +0.000 A 
ATOM     12  C   UNL     1       5.804   5.953  15.726  0.00  0.00    +0.000 A 
ATOM     13  C   UNL     1       6.487   6.035  16.955  0.00  0.00    +0.000 A 
ATOM     14  C   UNL     1       7.268   7.153  17.323  0.00  0.00    +0.000 A 
ENDBRANCH   3   5
BRANCH   2  15
ATOM     15  C   UNL     1       9.570  10.581  18.820  0.00  0.00    +0.000 A 
ATOM     16  C   UNL     1       9.619  10.865  20.197  0.00  0.00    +0.000 A 
ATOM     17  C   UNL     1      10.393  11.911  20.705  0.00  0.00    +0.000 A 
ATOM     18  C   UNL     1      11.094  12.665  19.767  0.00  0.00    +0.000 A 
ATOM     19  N   UNL     1      11.898  13.769  19.893  0.00  0.00    +0.000 N 
ATOM     20  C   UNL     1      12.314  14.129  18.643  0.00  0.00    +0.000 A 
ATOM     21  N   UNL     1      11.841  13.321  17.721  0.00  0.00    +0.000 NA
ATOM     22  C   UNL     1      11.071  12.407  18.399  0.00  0.00    +0.000 A 
ATOM     23  C   UNL     1      10.302  11.341  17.899  0.00  0.00    +0.000 A 
ATOM     24  H   UNL     1      12.123  14.245  20.756  0.00  0.00    +0.000 HD
ENDBRANCH   2  15
TORSDOF 2
ENDMDL
MODEL 9
REMARK VINA RESULT:      -8.2      2.374      8.450
REMARK  Name = 
REMARK  2 active torsions:
REMARK  status: ('A' for Active; 'I' for Inactive)
REMARK    1  A    between atoms: C_2  and  C_14
REMARK    2  A    between atoms: N_3  and  C_4
REMARK                            x       y       z     vdW  Elec       q    Type
REMARK                         _______ _______ _______ _____ _____    ______ ____
ROOT
ATOM      1  O   UNL     1       1.243   8.912  19.151  0.00  0.00    +0.000 OA
ATOM      2  C   UNL     1       1.167   8.682  20.354  0.00  0.00    +0.000 C 
ATOM      3  N   UNL     1       1.516   7.490  20.973  0.00  0.00    +0.000 N 
ATOM      4  H   UNL     1       1.224   7.346  21.931  0.00  0.00    +0.000 HD
ENDROOT
BRANCH   3   5
ATOM      5  C   UNL     1       2.065   6.379  20.279  0.00  0.00    +0.000 A 
ATOM      6  C   UNL     1       3.190   6.456  19.462  0.00  0.00    +0.000 A 
ATOM      7  N   UNL     1       3.704   5.424  18.750  0.00  0.00    +0.000 NA
ATOM      8  C   UNL     1       3.081   4.244  18.823  0.00  0.00    +0.000 A 
ATOM      9  C   UNL     1       3.567   3.193  18.059  0.00  0.00    +0.000 A 
ATOM     10  C   UNL     1       2.959   1.938  18.074  0.00  0.00    +0.000 A 
ATOM     11  C   UNL     1       1.843   1.722  18.875  0.00  0.00    +0.000 A 
ATOM     12  C   UNL     1       1.340   2.764  19.658  0.00  0.00    +0.000 A 
ATOM     13  C   UNL     1       1.947   4.034  19.638  0.00  0.00    +0.000 A 
ATOM     14  C   UNL     1       1.457   5.128  20.388  0.00  0.00    +0.000 A 
ENDBRANCH   3   5
BRANCH   2  15
ATOM     15  C   UNL     1       0.588   9.753  21.202  0.00  0.00    +0.000 A 
ATOM     16  C   UNL     1      -0.182   9.342  22.307  0.00  0.00    +0.000 A 
ATOM     17  C   UNL     1      -0.872  10.258  23.104  0.00  0.00    +0.000 A 
ATOM     18  C   UNL     1      -0.769  11.595  22.728  0.00  0.00    +0.000 A 
ATOM     19  N   UNL     1      -1.335  12.736  23.235  0.00  0.00    +0.000 N 
ATOM     20  C   UNL     1      -0.920  13.787  22.468  0.00  0.00    +0.000 A 
ATOM     21  N   UNL     1      -0.113  13.398  21.507  0.00  0.00    +0.000 NA
ATOM     22  C   UNL     1      -0.013  12.035  21.645  0.00  0.00    +0.000 A 
ATOM     23  C   UNL     1       0.692  11.107  20.859  0.00  0.00    +0.000 A 
ATOM     24  H   UNL     1      -1.966  12.787  24.023  0.00  0.00    +0.000 HD
ENDBRANCH   2  15
TORSDOF 2
ENDMDL
