MODEL 1
REMARK VINA RESULT:      -8.5      0.000      0.000
REMARK  Name = 
REMARK  7 active torsions:
REMARK  status: ('A' for Active; 'I' for Inactive)
REMARK    1  A    between atoms: C_1  and  C_2
REMARK    2  A    between atoms: C_2  and  S_3
REMARK    3  A    between atoms: C_2  and  C_23
REMARK    4  A    between atoms: S_3  and  C_4
REMARK    5  A    between atoms: C_7  and  C_8
REMARK    6  A    between atoms: N_15  and  C_16
REMARK    7  A    between atoms: C_16  and  C_17
REMARK                            x       y       z     vdW  Elec       q    Type
REMARK                         _______ _______ _______ _____ _____    ______ ____
ROOT
ATOM      1  C   UNL     1       2.227   7.578  19.322  0.00  0.00    +0.000 A 
ATOM      2  N   UNL     1       2.315   8.434  18.336  0.00  0.00    +0.000 NA
ATOM      3  N   UNL     1       3.262   7.972  17.456  0.00  0.00    +0.000 NA
ATOM      4  C   UNL     1       3.764   6.826  17.894  0.00  0.00    +0.000 A 
ATOM      5  N   UNL     1       3.140   6.528  19.111  0.00  0.00    +0.000 N 
ENDROOT
BRANCH   4   6
ATOM      6  C   UNL     1       4.751   6.022  17.134  0.00  0.00    +0.000 A 
ATOM      7  C   UNL     1       4.426   4.829  16.465  0.00  0.00    +0.000 A 
ATOM      8  C   UNL     1       5.375   4.119  15.711  0.00  0.00    +0.000 A 
ATOM      9  C   UNL     1       6.680   4.583  15.621  0.00  0.00    +0.000 A 
ATOM     10  C   UNL     1       7.036   5.755  16.283  0.00  0.00    +0.000 A 
ATOM     11  C   UNL     1       6.083   6.465  17.023  0.00  0.00    +0.000 A 
ATOM     12  F   UNL     1       6.466   7.603  17.607  0.00  0.00    +0.000 F 
ENDBRANCH   4   6
BRANCH   1  13
ATOM     13  S   UNL     1       1.099   7.686  20.644  0.00  0.00    +0.000 S 
BRANCH  13  15
ATOM     14  C   UNL     1       0.616   9.570  22.642  0.00  0.00    +0.000 C 
ATOM     15  C   UNL     1       1.081   9.487  21.187  0.00  0.00    +0.000 C 
BRANCH  15  16
ATOM     16  C   UNL     1       0.041  10.268  20.317  0.00  0.00    +0.000 C 
ATOM     17  O   UNL     1      -0.809   9.684  19.632  0.00  0.00    +0.000 OA
ATOM     18  N   UNL     1      -0.079  11.655  20.512  0.00  0.00    +0.000 N 
ATOM     19  C   UNL     1      -1.445  12.230  20.310  0.00  0.00    +0.000 C 
ATOM     20  C   UNL     1      -1.580  13.410  21.264  0.00  0.00    +0.000 C 
ATOM     21  O   UNL     1      -2.588  13.670  21.911  0.00  0.00    +0.000 OA
ATOM     22  N   UNL     1      -0.502  14.265  21.211  0.00  0.00    +0.000 N 
ATOM     23  C   UNL     1       0.548  13.988  20.327  0.00  0.00    +0.000 A 
ATOM     24  C   UNL     1       1.050  15.004  19.519  0.00  0.00    +0.000 A 
ATOM     25  C   UNL     1       1.960  14.666  18.523  0.00  0.00    +0.000 A 
ATOM     26  C   UNL     1       2.475  13.364  18.457  0.00  0.00    +0.000 A 
ATOM     27  C   UNL     1       1.969  12.344  19.274  0.00  0.00    +0.000 A 
ATOM     28  C   UNL     1       0.897  12.632  20.106  0.00  0.00    +0.000 A 
ATOM     29  H   UNL     1      -0.416  14.973  21.930  0.00  0.00    +0.000 HD
ENDBRANCH  15  16
ENDBRANCH  13  15
ENDBRANCH   1  13
BRANCH   5  30
ATOM     30  C   UNL     1       3.409   5.422  20.011  0.00  0.00    +0.000 C 
BRANCH  30  31
ATOM     31  C   UNL     1       2.754   4.114  19.615  0.00  0.00    +0.000 A 
ATOM     32  C   UNL     1       3.549   3.009  19.254  0.00  0.00    +0.000 A 
ATOM     33  C   UNL     1       2.964   1.820  18.812  0.00  0.00    +0.000 A 
ATOM     34  C   UNL     1       1.577   1.708  18.747  0.00  0.00    +0.000 A 
ATOM     35  C   UNL     1       0.777   2.774  19.148  0.00  0.00    +0.000 A 
ATOM     36  C   UNL     1       1.360   3.963  19.594  0.00  0.00    +0.000 A 
ENDBRANCH  30  31
ENDBRANCH   5  30
TORSDOF 6
ENDMDL
MODEL 2
REMARK VINA RESULT:      -8.4      1.136      1.200
REMARK  Name = 
REMARK  7 active torsions:
REMARK  status: ('A' for Active; 'I' for Inactive)
REMARK    1  A    between atoms: C_1  and  C_2
REMARK    2  A    between atoms: C_2  and  S_3
REMARK    3  A    between atoms: C_2  and  C_23
REMARK    4  A    between atoms: S_3  and  C_4
REMARK    5  A    between atoms: C_7  and  C_8
REMARK    6  A    between atoms: N_15  and  C_16
REMARK    7  A    between atoms: C_16  and  C_17
REMARK                            x       y       z     vdW  Elec       q    Type
REMARK                         _______ _______ _______ _____ _____    ______ ____
ROOT
ATOM      1  C   UNL     1       2.458   7.744  18.826  0.00  0.00    +0.000 A 
ATOM      2  N   UNL     1       2.700   8.534  17.811  0.00  0.00    +0.000 NA
ATOM      3  N   UNL     1       3.703   7.969  17.064  0.00  0.00    +0.000 NA
ATOM      4  C   UNL     1       4.085   6.824  17.614  0.00  0.00    +0.000 A 
ATOM      5  N   UNL     1       3.321   6.635  18.771  0.00  0.00    +0.000 N 
ENDROOT
BRANCH   4   6
ATOM      6  C   UNL     1       5.095   5.923  17.009  0.00  0.00    +0.000 A 
ATOM      7  C   UNL     1       4.954   5.350  15.733  0.00  0.00    +0.000 A 
ATOM      8  C   UNL     1       5.954   4.541  15.169  0.00  0.00    +0.000 A 
ATOM      9  C   UNL     1       7.118   4.277  15.878  0.00  0.00    +0.000 A 
ATOM     10  C   UNL     1       7.281   4.821  17.149  0.00  0.00    +0.000 A 
ATOM     11  C   UNL     1       6.287   5.636  17.702  0.00  0.00    +0.000 A 
ATOM     12  F   UNL     1       6.509   6.163  18.908  0.00  0.00    +0.000 F 
ENDBRANCH   4   6
BRANCH   1  13
ATOM     13  S   UNL     1       1.207   7.995  20.012  0.00  0.00    +0.000 S 
BRANCH  13  15
ATOM     14  C   UNL     1       0.436  10.125  21.637  0.00  0.00    +0.000 C 
ATOM     15  C   UNL     1       1.083   9.852  20.277  0.00  0.00    +0.000 C 
BRANCH  15  16
ATOM     16  C   UNL     1       0.145  10.460  19.182  0.00  0.00    +0.000 C 
ATOM     17  O   UNL     1      -0.185   9.819  18.175  0.00  0.00    +0.000 OA
ATOM     18  N   UNL     1      -0.524  11.661  19.472  0.00  0.00    +0.000 N 
ATOM     19  C   UNL     1      -1.875  11.825  18.854  0.00  0.00    +0.000 C 
ATOM     20  C   UNL     1      -2.712  12.656  19.818  0.00  0.00    +0.000 C 
ATOM     21  O   UNL     1      -3.890  12.443  20.080  0.00  0.00    +0.000 OA
ATOM     22  N   UNL     1      -2.057  13.786  20.255  0.00  0.00    +0.000 N 
ATOM     23  C   UNL     1      -0.764  14.051  19.788  0.00  0.00    +0.000 A 
ATOM     24  C   UNL     1      -0.447  15.329  19.335  0.00  0.00    +0.000 A 
ATOM     25  C   UNL     1       0.778  15.521  18.706  0.00  0.00    +0.000 A 
ATOM     26  C   UNL     1       1.725  14.488  18.687  0.00  0.00    +0.000 A 
ATOM     27  C   UNL     1       1.404  13.203  19.146  0.00  0.00    +0.000 A 
ATOM     28  C   UNL     1       0.103  12.953  19.560  0.00  0.00    +0.000 A 
ATOM     29  H   UNL     1      -2.456  14.302  21.031  0.00  0.00    +0.000 HD
ENDBRANCH  15  16
ENDBRANCH  13  15
ENDBRANCH   1  13
BRANCH   5  30
ATOM     30  C   UNL     1       3.426   5.572  19.752  0.00  0.00    +0.000 C 
BRANCH  30  31
ATOM     31  C   UNL     1       2.553   4.365  19.470  0.00  0.00    +0.000 A 
ATOM     32  C   UNL     1       2.902   3.468  18.443  0.00  0.00    +0.000 A 
ATOM     33  C   UNL     1       2.070   2.395  18.116  0.00  0.00    +0.000 A 
ATOM     34  C   UNL     1       0.891   2.186  18.826  0.00  0.00    +0.000 A 
ATOM     35  C   UNL     1       0.556   3.035  19.878  0.00  0.00    +0.000 A 
ATOM     36  C   UNL     1       1.389   4.107  20.207  0.00  0.00    +0.000 A 
ENDBRANCH  30  31
ENDBRANCH   5  30
TORSDOF 6
ENDMDL
MODEL 3
REMARK VINA RESULT:      -8.4      0.813      1.148
REMARK  Name = 
REMARK  7 active torsions:
REMARK  status: ('A' for Active; 'I' for Inactive)
REMARK    1  A    between atoms: C_1  and  C_2
REMARK    2  A    between atoms: C_2  and  S_3
REMARK    3  A    between atoms: C_2  and  C_23
REMARK    4  A    between atoms: S_3  and  C_4
REMARK    5  A    between atoms: C_7  and  C_8
REMARK    6  A    between atoms: N_15  and  C_16
REMARK    7  A    between atoms: C_16  and  C_17
REMARK                            x       y       z     vdW  Elec       q    Type
REMARK                         _______ _______ _______ _____ _____    ______ ____
ROOT
ATOM      1  C   UNL     1       2.120   7.671  19.368  0.00  0.00    +0.000 A 
ATOM      2  N   UNL     1       2.201   8.498  18.357  0.00  0.00    +0.000 NA
ATOM      3  N   UNL     1       3.182   8.042  17.513  0.00  0.00    +0.000 NA
ATOM      4  C   UNL     1       3.713   6.928  17.999  0.00  0.00    +0.000 A 
ATOM      5  N   UNL     1       3.073   6.648  19.212  0.00  0.00    +0.000 N 
ENDROOT
BRANCH   4   6
ATOM      6  C   UNL     1       4.744   6.135  17.287  0.00  0.00    +0.000 A 
ATOM      7  C   UNL     1       6.096   6.514  17.214  0.00  0.00    +0.000 A 
ATOM      8  C   UNL     1       7.057   5.712  16.576  0.00  0.00    +0.000 A 
ATOM      9  C   UNL     1       6.682   4.515  15.983  0.00  0.00    +0.000 A 
ATOM     10  C   UNL     1       5.347   4.119  16.028  0.00  0.00    +0.000 A 
ATOM     11  C   UNL     1       4.396   4.915  16.676  0.00  0.00    +0.000 A 
ATOM     12  F   UNL     1       3.138   4.472  16.724  0.00  0.00    +0.000 F 
ENDBRANCH   4   6
BRANCH   1  13
ATOM     13  S   UNL     1       0.960   7.783  20.662  0.00  0.00    +0.000 S 
BRANCH  13  15
ATOM     14  C   UNL     1       0.424   9.665  22.648  0.00  0.00    +0.000 C 
ATOM     15  C   UNL     1       0.936   9.582  21.207  0.00  0.00    +0.000 C 
BRANCH  15  16
ATOM     16  C   UNL     1      -0.069  10.373  20.306  0.00  0.00    +0.000 C 
ATOM     17  O   UNL     1      -0.901   9.795  19.593  0.00  0.00    +0.000 OA
ATOM     18  N   UNL     1      -0.187  11.759  20.501  0.00  0.00    +0.000 N 
ATOM     19  C   UNL     1      -1.541  12.344  20.256  0.00  0.00    +0.000 C 
ATOM     20  C   UNL     1      -1.700  13.523  21.208  0.00  0.00    +0.000 C 
ATOM     21  O   UNL     1      -2.726  13.788  21.822  0.00  0.00    +0.000 OA
ATOM     22  N   UNL     1      -0.615  14.371  21.192  0.00  0.00    +0.000 N 
ATOM     23  C   UNL     1       0.462  14.089  20.342  0.00  0.00    +0.000 A 
ATOM     24  C   UNL     1       0.997  15.103  19.553  0.00  0.00    +0.000 A 
ATOM     25  C   UNL     1       1.937  14.761  18.587  0.00  0.00    +0.000 A 
ATOM     26  C   UNL     1       2.444  13.456  18.534  0.00  0.00    +0.000 A 
ATOM     27  C   UNL     1       1.905  12.437  19.332  0.00  0.00    +0.000 A 
ATOM     28  C   UNL     1       0.808  12.730  20.130  0.00  0.00    +0.000 A 
ATOM     29  H   UNL     1      -0.547  15.076  21.915  0.00  0.00    +0.000 HD
ENDBRANCH  15  16
ENDBRANCH  13  15
ENDBRANCH   1  13
BRANCH   5  30
ATOM     30  C   UNL     1       3.359   5.581  20.152  0.00  0.00    +0.000 C 
BRANCH  30  31
ATOM     31  C   UNL     1       2.727   4.248  19.805  0.00  0.00    +0.000 A 
ATOM     32  C   UNL     1       3.541   3.123  19.570  0.00  0.00    +0.000 A 
ATOM     33  C   UNL     1       2.983   1.906  19.173  0.00  0.00    +0.000 A 
ATOM     34  C   UNL     1       1.603   1.786  19.029  0.00  0.00    +0.000 A 
ATOM     35  C   UNL     1       0.781   2.875  19.306  0.00  0.00    +0.000 A 
ATOM     36  C   UNL     1       1.337   4.092  19.706  0.00  0.00    +0.000 A 
ENDBRANCH  30  31
ENDBRANCH   5  30
TORSDOF 6
ENDMDL
MODEL 4
REMARK VINA RESULT:      -8.3      0.684      1.059
REMARK  Name = 
REMARK  7 active torsions:
REMARK  status: ('A' for Active; 'I' for Inactive)
REMARK    1  A    between atoms: C_1  and  C_2
REMARK    2  A    between atoms: C_2  and  S_3
REMARK    3  A    between atoms: C_2  and  C_23
REMARK    4  A    between atoms: S_3  and  C_4
REMARK    5  A    between atoms: C_7  and  C_8
REMARK    6  A    between atoms: N_15  and  C_16
REMARK    7  A    between atoms: C_16  and  C_17
REMARK                            x       y       z     vdW  Elec       q    Type
REMARK                         _______ _______ _______ _____ _____    ______ ____
ROOT
ATOM      1  C   UNL     1       2.350   7.624  19.164  0.00  0.00    +0.000 A 
ATOM      2  N   UNL     1       2.592   8.463  18.190  0.00  0.00    +0.000 NA
ATOM      3  N   UNL     1       3.596   7.937  17.416  0.00  0.00    +0.000 NA
ATOM      4  C   UNL     1       3.979   6.767  17.908  0.00  0.00    +0.000 A 
ATOM      5  N   UNL     1       3.215   6.519  19.054  0.00  0.00    +0.000 N 
ENDROOT
BRANCH   4   6
ATOM      6  C   UNL     1       4.990   5.898  17.259  0.00  0.00    +0.000 A 
ATOM      7  C   UNL     1       4.856   5.400  15.952  0.00  0.00    +0.000 A 
ATOM      8  C   UNL     1       5.857   4.621  15.348  0.00  0.00    +0.000 A 
ATOM      9  C   UNL     1       7.015   4.312  16.048  0.00  0.00    +0.000 A 
ATOM     10  C   UNL     1       7.172   4.782  17.350  0.00  0.00    +0.000 A 
ATOM     11  C   UNL     1       6.176   5.567  17.942  0.00  0.00    +0.000 A 
ATOM     12  F   UNL     1       6.392   6.024  19.178  0.00  0.00    +0.000 F 
ENDBRANCH   4   6
BRANCH   1  13
ATOM     13  S   UNL     1       1.099   7.813  20.361  0.00  0.00    +0.000 S 
BRANCH  13  15
ATOM     14  C   UNL     1       0.425   9.806  22.190  0.00  0.00    +0.000 C 
ATOM     15  C   UNL     1       1.053   9.640  20.804  0.00  0.00    +0.000 C 
BRANCH  15  16
ATOM     16  C   UNL     1       0.135  10.387  19.781  0.00  0.00    +0.000 C 
ATOM     17  O   UNL     1      -0.531   9.777  18.933  0.00  0.00    +0.000 OA
ATOM     18  N   UNL     1      -0.121  11.753  19.992  0.00  0.00    +0.000 N 
ATOM     19  C   UNL     1      -1.465  12.243  19.557  0.00  0.00    +0.000 C 
ATOM     20  C   UNL     1      -1.859  13.370  20.505  0.00  0.00    +0.000 C 
ATOM     21  O   UNL     1      -2.984  13.534  20.962  0.00  0.00    +0.000 OA
ATOM     22  N   UNL     1      -0.855  14.297  20.678  0.00  0.00    +0.000 N 
ATOM     23  C   UNL     1       0.357  14.128  19.996  0.00  0.00    +0.000 A 
ATOM     24  C   UNL     1       0.922  15.209  19.326  0.00  0.00    +0.000 A 
ATOM     25  C   UNL     1       2.021  14.976  18.507  0.00  0.00    +0.000 A 
ATOM     26  C   UNL     1       2.633  13.715  18.497  0.00  0.00    +0.000 A 
ATOM     27  C   UNL     1       2.063  12.629  19.176  0.00  0.00    +0.000 A 
ATOM     28  C   UNL     1       0.839  12.809  19.803  0.00  0.00    +0.000 A 
ATOM     29  H   UNL     1      -0.953  14.977  21.422  0.00  0.00    +0.000 HD
ENDBRANCH  15  16
ENDBRANCH  13  15
ENDBRANCH   1  13
BRANCH   5  30
ATOM     30  C   UNL     1       3.321   5.408  19.981  0.00  0.00    +0.000 C 
BRANCH  30  31
ATOM     31  C   UNL     1       2.698   4.117  19.490  0.00  0.00    +0.000 A 
ATOM     32  C   UNL     1       1.314   3.903  19.638  0.00  0.00    +0.000 A 
ATOM     33  C   UNL     1       0.733   2.689  19.263  0.00  0.00    +0.000 A 
ATOM     34  C   UNL     1       1.519   1.681  18.712  0.00  0.00    +0.000 A 
ATOM     35  C   UNL     1       2.881   1.896  18.512  0.00  0.00    +0.000 A 
ATOM     36  C   UNL     1       3.462   3.111  18.884  0.00  0.00    +0.000 A 
ENDBRANCH  30  31
ENDBRANCH   5  30
TORSDOF 6
ENDMDL
MODEL 5
REMARK VINA RESULT:      -8.2      0.914      1.109
REMARK  Name = 
REMARK  7 active torsions:
REMARK  status: ('A' for Active; 'I' for Inactive)
REMARK    1  A    between atoms: C_1  and  C_2
REMARK    2  A    between atoms: C_2  and  S_3
REMARK    3  A    between atoms: C_2  and  C_23
REMARK    4  A    between atoms: S_3  and  C_4
REMARK    5  A    between atoms: C_7  and  C_8
REMARK    6  A    between atoms: N_15  and  C_16
REMARK    7  A    between atoms: C_16  and  C_17
REMARK                            x       y       z     vdW  Elec       q    Type
REMARK                         _______ _______ _______ _____ _____    ______ ____
ROOT
ATOM      1  C   UNL     1       2.334   7.578  19.082  0.00  0.00    +0.000 A 
ATOM      2  N   UNL     1       2.392   8.423  18.084  0.00  0.00    +0.000 NA
ATOM      3  N   UNL     1       3.357   7.985  17.212  0.00  0.00    +0.000 NA
ATOM      4  C   UNL     1       3.900   6.864  17.667  0.00  0.00    +0.000 A 
ATOM      5  N   UNL     1       3.286   6.560  18.887  0.00  0.00    +0.000 N 
ENDROOT
BRANCH   4   6
ATOM      6  C   UNL     1       4.919   6.087  16.920  0.00  0.00    +0.000 A 
ATOM      7  C   UNL     1       4.622   4.920  16.196  0.00  0.00    +0.000 A 
ATOM      8  C   UNL     1       5.602   4.236  15.457  0.00  0.00    +0.000 A 
ATOM      9  C   UNL     1       6.909   4.702  15.437  0.00  0.00    +0.000 A 
ATOM     10  C   UNL     1       7.236   5.850  16.154  0.00  0.00    +0.000 A 
ATOM     11  C   UNL     1       6.254   6.534  16.879  0.00  0.00    +0.000 A 
ATOM     12  F   UNL     1       6.611   7.649  17.519  0.00  0.00    +0.000 F 
ENDBRANCH   4   6
BRANCH   1  13
ATOM     13  S   UNL     1       1.200   7.663  20.401  0.00  0.00    +0.000 S 
BRANCH  13  15
ATOM     14  C   UNL     1       1.163   9.326  22.638  0.00  0.00    +0.000 C 
ATOM     15  C   UNL     1       1.342   9.395  21.119  0.00  0.00    +0.000 C 
BRANCH  15  16
ATOM     16  C   UNL     1       0.182  10.277  20.551  0.00  0.00    +0.000 C 
ATOM     17  O   UNL     1      -0.623   9.840  19.717  0.00  0.00    +0.000 OA
ATOM     18  N   UNL     1      -0.090  11.503  21.181  0.00  0.00    +0.000 N 
ATOM     19  C   UNL     1      -1.520  11.939  21.179  0.00  0.00    +0.000 C 
ATOM     20  C   UNL     1      -1.751  12.728  22.462  0.00  0.00    +0.000 C 
ATOM     21  O   UNL     1      -2.753  12.642  23.161  0.00  0.00    +0.000 OA
ATOM     22  N   UNL     1      -0.782  13.682  22.683  0.00  0.00    +0.000 N 
ATOM     23  C   UNL     1       0.254  13.833  21.753  0.00  0.00    +0.000 A 
ATOM     24  C   UNL     1       0.600  15.107  21.312  0.00  0.00    +0.000 A 
ATOM     25  C   UNL     1       1.499  15.219  20.258  0.00  0.00    +0.000 A 
ATOM     26  C   UNL     1       2.158  14.080  19.775  0.00  0.00    +0.000 A 
ATOM     27  C   UNL     1       1.809  12.798  20.223  0.00  0.00    +0.000 A 
ATOM     28  C   UNL     1       0.748  12.671  21.107  0.00  0.00    +0.000 A 
ATOM     29  H   UNL     1      -0.748  14.129  23.591  0.00  0.00    +0.000 HD
ENDBRANCH  15  16
ENDBRANCH  13  15
ENDBRANCH   1  13
BRANCH   5  30
ATOM     30  C   UNL     1       3.594   5.478  19.802  0.00  0.00    +0.000 C 
BRANCH  30  31
ATOM     31  C   UNL     1       2.583   4.348  19.805  0.00  0.00    +0.000 A 
ATOM     32  C   UNL     1       2.075   3.862  21.025  0.00  0.00    +0.000 A 
ATOM     33  C   UNL     1       1.203   2.771  21.053  0.00  0.00    +0.000 A 
ATOM     34  C   UNL     1       0.805   2.166  19.863  0.00  0.00    +0.000 A 
ATOM     35  C   UNL     1       1.259   2.668  18.646  0.00  0.00    +0.000 A 
ATOM     36  C   UNL     1       2.129   3.760  18.617  0.00  0.00    +0.000 A 
ENDBRANCH  30  31
ENDBRANCH   5  30
TORSDOF 6
ENDMDL
MODEL 6
REMARK VINA RESULT:      -8.2      3.218      9.832
REMARK  Name = 
REMARK  7 active torsions:
REMARK  status: ('A' for Active; 'I' for Inactive)
REMARK    1  A    between atoms: C_1  and  C_2
REMARK    2  A    between atoms: C_2  and  S_3
REMARK    3  A    between atoms: C_2  and  C_23
REMARK    4  A    between atoms: S_3  and  C_4
REMARK    5  A    between atoms: C_7  and  C_8
REMARK    6  A    between atoms: N_15  and  C_16
REMARK    7  A    between atoms: C_16  and  C_17
REMARK                            x       y       z     vdW  Elec       q    Type
REMARK                         _______ _______ _______ _____ _____    ______ ____
ROOT
ATOM      1  C   UNL     1       0.612  10.164  20.929  0.00  0.00    +0.000 A 
ATOM      2  N   UNL     1       0.744   9.623  22.113  0.00  0.00    +0.000 NA
ATOM      3  N   UNL     1      -0.018  10.343  22.997  0.00  0.00    +0.000 NA
ATOM      4  C   UNL     1      -0.628  11.335  22.363  0.00  0.00    +0.000 A 
ATOM      5  N   UNL     1      -0.243  11.278  21.018  0.00  0.00    +0.000 N 
ENDROOT
BRANCH   4   6
ATOM      6  C   UNL     1      -1.593  12.253  23.015  0.00  0.00    +0.000 A 
ATOM      7  C   UNL     1      -2.857  11.846  23.474  0.00  0.00    +0.000 A 
ATOM      8  C   UNL     1      -3.726  12.730  24.135  0.00  0.00    +0.000 A 
ATOM      9  C   UNL     1      -3.352  14.051  24.339  0.00  0.00    +0.000 A 
ATOM     10  C   UNL     1      -2.110  14.487  23.884  0.00  0.00    +0.000 A 
ATOM     11  C   UNL     1      -1.243  13.599  23.237  0.00  0.00    +0.000 A 
ATOM     12  F   UNL     1      -0.050  14.058  22.854  0.00  0.00    +0.000 F 
ENDBRANCH   4   6
BRANCH   1  13
ATOM     13  S   UNL     1       1.323   9.551  19.462  0.00  0.00    +0.000 S 
BRANCH  13  15
ATOM     14  C   UNL     1       2.178   7.459  21.096  0.00  0.00    +0.000 C 
ATOM     15  C   UNL     1       1.563   7.703  19.715  0.00  0.00    +0.000 C 
BRANCH  15  16
ATOM     16  C   UNL     1       2.578   7.172  18.650  0.00  0.00    +0.000 C 
ATOM     17  O   UNL     1       2.899   7.844  17.661  0.00  0.00    +0.000 OA
ATOM     18  N   UNL     1       3.318   6.016  18.955  0.00  0.00    +0.000 N 
ATOM     19  C   UNL     1       4.698   5.951  18.384  0.00  0.00    +0.000 C 
ATOM     20  C   UNL     1       5.555   5.169  19.372  0.00  0.00    +0.000 C 
ATOM     21  O   UNL     1       6.706   5.460  19.678  0.00  0.00    +0.000 OA
ATOM     22  N   UNL     1       4.964   3.993  19.776  0.00  0.00    +0.000 N 
ATOM     23  C   UNL     1       3.710   3.645  19.260  0.00  0.00    +0.000 A 
ATOM     24  C   UNL     1       3.497   2.353  18.787  0.00  0.00    +0.000 A 
ATOM     25  C   UNL     1       2.311   2.084  18.113  0.00  0.00    +0.000 A 
ATOM     26  C   UNL     1       1.297   3.051  18.067  0.00  0.00    +0.000 A 
ATOM     27  C   UNL     1       1.513   4.350  18.548  0.00  0.00    +0.000 A 
ATOM     28  C   UNL     1       2.778   4.684  19.010  0.00  0.00    +0.000 A 
ATOM     29  H   UNL     1       5.369   3.498  20.561  0.00  0.00    +0.000 HD
ENDBRANCH  15  16
ENDBRANCH  13  15
ENDBRANCH   1  13
BRANCH   5  30
ATOM     30  C   UNL     1      -0.583  12.196  19.947  0.00  0.00    +0.000 C 
BRANCH  30  31
ATOM     31  C   UNL     1      -1.874  11.869  19.224  0.00  0.00    +0.000 A 
ATOM     32  C   UNL     1      -1.843  11.124  18.029  0.00  0.00    +0.000 A 
ATOM     33  C   UNL     1      -3.013  10.880  17.307  0.00  0.00    +0.000 A 
ATOM     34  C   UNL     1      -4.235  11.353  17.779  0.00  0.00    +0.000 A 
ATOM     35  C   UNL     1      -4.289  12.048  18.985  0.00  0.00    +0.000 A 
ATOM     36  C   UNL     1      -3.120  12.290  19.710  0.00  0.00    +0.000 A 
ENDBRANCH  30  31
ENDBRANCH   5  30
TORSDOF 6
ENDMDL
MODEL 7
REMARK VINA RESULT:      -8.2      3.369      9.423
REMARK  Name = 
REMARK  7 active torsions:
REMARK  status: ('A' for Active; 'I' for Inactive)
REMARK    1  A    between atoms: C_1  and  C_2
REMARK    2  A    between atoms: C_2  and  S_3
REMARK    3  A    between atoms: C_2  and  C_23
REMARK    4  A    between atoms: S_3  and  C_4
REMARK    5  A    between atoms: C_7  and  C_8
REMARK    6  A    between atoms: N_15  and  C_16
REMARK    7  A    between atoms: C_16  and  C_17
REMARK                            x       y       z     vdW  Elec       q    Type
REMARK                         _______ _______ _______ _____ _____    ______ ____
ROOT
ATOM      1  C   UNL     1       1.066  10.448  18.745  0.00  0.00    +0.000 A 
ATOM      2  N   UNL     1       1.792  11.398  19.277  0.00  0.00    +0.000 NA
ATOM      3  N   UNL     1       1.032  12.030  20.230  0.00  0.00    +0.000 NA
ATOM      4  C   UNL     1      -0.169  11.471  20.292  0.00  0.00    +0.000 A 
ATOM      5  N   UNL     1      -0.210  10.447  19.338  0.00  0.00    +0.000 N 
ENDROOT
BRANCH   4   6
ATOM      6  C   UNL     1      -1.204  11.865  21.278  0.00  0.00    +0.000 A 
ATOM      7  C   UNL     1      -2.228  12.785  20.996  0.00  0.00    +0.000 A 
ATOM      8  C   UNL     1      -3.224  13.097  21.936  0.00  0.00    +0.000 A 
ATOM      9  C   UNL     1      -3.209  12.501  23.190  0.00  0.00    +0.000 A 
ATOM     10  C   UNL     1      -2.199  11.594  23.503  0.00  0.00    +0.000 A 
ATOM     11  C   UNL     1      -1.216  11.278  22.558  0.00  0.00    +0.000 A 
ATOM     12  F   UNL     1      -0.293  10.374  22.894  0.00  0.00    +0.000 F 
ENDBRANCH   4   6
BRANCH   1  13
ATOM     13  S   UNL     1       1.624   9.315  17.545  0.00  0.00    +0.000 S 
BRANCH  13  15
ATOM     14  C   UNL     1       2.474   8.056  19.883  0.00  0.00    +0.000 C 
ATOM     15  C   UNL     1       2.023   7.721  18.459  0.00  0.00    +0.000 C 
BRANCH  15  16
ATOM     16  C   UNL     1       3.221   7.012  17.744  0.00  0.00    +0.000 C 
ATOM     17  O   UNL     1       3.778   7.508  16.755  0.00  0.00    +0.000 OA
ATOM     18  N   UNL     1       3.824   5.917  18.386  0.00  0.00    +0.000 N 
ATOM     19  C   UNL     1       5.291   5.746  18.152  0.00  0.00    +0.000 C 
ATOM     20  C   UNL     1       5.878   5.132  19.417  0.00  0.00    +0.000 C 
ATOM     21  O   UNL     1       6.947   5.460  19.919  0.00  0.00    +0.000 OA
ATOM     22  N   UNL     1       5.162   4.044  19.863  0.00  0.00    +0.000 N 
ATOM     23  C   UNL     1       4.034   3.626  19.145  0.00  0.00    +0.000 A 
ATOM     24  C   UNL     1       3.872   2.276  18.850  0.00  0.00    +0.000 A 
ATOM     25  C   UNL     1       2.849   1.908  17.982  0.00  0.00    +0.000 A 
ATOM     26  C   UNL     1       1.913   2.862  17.560  0.00  0.00    +0.000 A 
ATOM     27  C   UNL     1       2.078   4.221  17.862  0.00  0.00    +0.000 A 
ATOM     28  C   UNL     1       3.226   4.616  18.532  0.00  0.00    +0.000 A 
ATOM     29  H   UNL     1       5.365   3.683  20.788  0.00  0.00    +0.000 HD
ENDBRANCH  15  16
ENDBRANCH  13  15
ENDBRANCH   1  13
BRANCH   5  30
ATOM     30  C   UNL     1      -1.332   9.603  18.975  0.00  0.00    +0.000 C 
BRANCH  30  31
ATOM     31  C   UNL     1      -2.189  10.145  17.848  0.00  0.00    +0.000 A 
ATOM     32  C   UNL     1      -3.228  11.054  18.127  0.00  0.00    +0.000 A 
ATOM     33  C   UNL     1      -4.077  11.504  17.113  0.00  0.00    +0.000 A 
ATOM     34  C   UNL     1      -3.885  11.076  15.803  0.00  0.00    +0.000 A 
ATOM     35  C   UNL     1      -2.831  10.217  15.502  0.00  0.00    +0.000 A 
ATOM     36  C   UNL     1      -1.980   9.768  16.514  0.00  0.00    +0.000 A 
ENDBRANCH  30  31
ENDBRANCH   5  30
TORSDOF 6
ENDMDL
MODEL 8
REMARK VINA RESULT:      -8.1      2.033      4.204
REMARK  Name = 
REMARK  7 active torsions:
REMARK  status: ('A' for Active; 'I' for Inactive)
REMARK    1  A    between atoms: C_1  and  C_2
REMARK    2  A    between atoms: C_2  and  S_3
REMARK    3  A    between atoms: C_2  and  C_23
REMARK    4  A    between atoms: S_3  and  C_4
REMARK    5  A    between atoms: C_7  and  C_8
REMARK    6  A    between atoms: N_15  and  C_16
REMARK    7  A    between atoms: C_16  and  C_17
REMARK                            x       y       z     vdW  Elec       q    Type
REMARK                         _______ _______ _______ _____ _____    ______ ____
ROOT
ATOM      1  C   UNL     1       2.007   7.788  19.530  0.00  0.00    +0.000 A 
ATOM      2  N   UNL     1       1.460   7.261  20.596  0.00  0.00    +0.000 NA
ATOM      3  N   UNL     1       1.683   5.908  20.563  0.00  0.00    +0.000 NA
ATOM      4  C   UNL     1       2.370   5.590  19.474  0.00  0.00    +0.000 A 
ATOM      5  N   UNL     1       2.595   6.771  18.757  0.00  0.00    +0.000 N 
ENDROOT
BRANCH   4   6
ATOM      6  C   UNL     1       2.846   4.218  19.178  0.00  0.00    +0.000 A 
ATOM      7  C   UNL     1       3.912   3.606  19.860  0.00  0.00    +0.000 A 
ATOM      8  C   UNL     1       4.304   2.284  19.590  0.00  0.00    +0.000 A 
ATOM      9  C   UNL     1       3.642   1.547  18.618  0.00  0.00    +0.000 A 
ATOM     10  C   UNL     1       2.590   2.130  17.917  0.00  0.00    +0.000 A 
ATOM     11  C   UNL     1       2.196   3.443  18.198  0.00  0.00    +0.000 A 
ATOM     12  F   UNL     1       1.157   3.943  17.525  0.00  0.00    +0.000 F 
ENDBRANCH   4   6
BRANCH   1  13
ATOM     13  S   UNL     1       2.061   9.491  19.170  0.00  0.00    +0.000 S 
BRANCH  13  15
ATOM     14  C   UNL     1      -0.468  10.532  18.629  0.00  0.00    +0.000 C 
ATOM     15  C   UNL     1       0.453  10.226  19.812  0.00  0.00    +0.000 C 
BRANCH  15  16
ATOM     16  C   UNL     1       0.765  11.583  20.526  0.00  0.00    +0.000 C 
ATOM     17  O   UNL     1       1.905  11.870  20.916  0.00  0.00    +0.000 OA
ATOM     18  N   UNL     1      -0.219  12.587  20.503  0.00  0.00    +0.000 N 
ATOM     19  C   UNL     1       0.282  13.995  20.471  0.00  0.00    +0.000 C 
ATOM     20  C   UNL     1      -0.732  14.815  19.684  0.00  0.00    +0.000 C 
ATOM     21  O   UNL     1      -0.444  15.684  18.870  0.00  0.00    +0.000 OA
ATOM     22  N   UNL     1      -2.028  14.596  20.094  0.00  0.00    +0.000 N 
ATOM     23  C   UNL     1      -2.272  13.702  21.144  0.00  0.00    +0.000 A 
ATOM     24  C   UNL     1      -3.129  14.073  22.176  0.00  0.00    +0.000 A 
ATOM     25  C   UNL     1      -3.211  13.250  23.294  0.00  0.00    +0.000 A 
ATOM     26  C   UNL     1      -2.572  12.002  23.294  0.00  0.00    +0.000 A 
ATOM     27  C   UNL     1      -1.712  11.630  22.251  0.00  0.00    +0.000 A 
ATOM     28  C   UNL     1      -1.449  12.552  21.247  0.00  0.00    +0.000 A 
ATOM     29  H   UNL     1      -2.781  14.953  19.517  0.00  0.00    +0.000 HD
ENDBRANCH  15  16
ENDBRANCH  13  15
ENDBRANCH   1  13
BRANCH   5  30
ATOM     30  C   UNL     1       3.232   6.927  17.462  0.00  0.00    +0.000 C 
BRANCH  30  31
ATOM     31  C   UNL     1       4.541   6.178  17.310  0.00  0.00    +0.000 A 
ATOM     32  C   UNL     1       4.661   5.160  16.344  0.00  0.00    +0.000 A 
ATOM     33  C   UNL     1       5.833   4.406  16.241  0.00  0.00    +0.000 A 
ATOM     34  C   UNL     1       6.910   4.673  17.082  0.00  0.00    +0.000 A 
ATOM     35  C   UNL     1       6.824   5.709  18.009  0.00  0.00    +0.000 A 
ATOM     36  C   UNL     1       5.655   6.466  18.111  0.00  0.00    +0.000 A 
ENDBRANCH  30  31
ENDBRANCH   5  30
TORSDOF 6
ENDMDL
MODEL 9
REMARK VINA RESULT:      -8.1      1.593      2.046
REMARK  Name = 
REMARK  7 active torsions:
REMARK  status: ('A' for Active; 'I' for Inactive)
REMARK    1  A    between atoms: C_1  and  C_2
REMARK    2  A    between atoms: C_2  and  S_3
REMARK    3  A    between atoms: C_2  and  C_23
REMARK    4  A    between atoms: S_3  and  C_4
REMARK    5  A    between atoms: C_7  and  C_8
REMARK    6  A    between atoms: N_15  and  C_16
REMARK    7  A    between atoms: C_16  and  C_17
REMARK                            x       y       z     vdW  Elec       q    Type
REMARK                         _______ _______ _______ _____ _____    ______ ____
ROOT
ATOM      1  C   UNL     1       2.383   7.401  19.351  0.00  0.00    +0.000 A 
ATOM      2  N   UNL     1       2.540   8.278  18.392  0.00  0.00    +0.000 NA
ATOM      3  N   UNL     1       3.520   7.816  17.550  0.00  0.00    +0.000 NA
ATOM      4  C   UNL     1       3.973   6.647  17.984  0.00  0.00    +0.000 A 
ATOM      5  N   UNL     1       3.281   6.335  19.160  0.00  0.00    +0.000 N 
ENDROOT
BRANCH   4   6
ATOM      6  C   UNL     1       4.980   5.839  17.256  0.00  0.00    +0.000 A 
ATOM      7  C   UNL     1       4.782   5.349  15.953  0.00  0.00    +0.000 A 
ATOM      8  C   UNL     1       5.777   4.630  15.272  0.00  0.00    +0.000 A 
ATOM      9  C   UNL     1       6.994   4.372  15.888  0.00  0.00    +0.000 A 
ATOM     10  C   UNL     1       7.216   4.834  17.183  0.00  0.00    +0.000 A 
ATOM     11  C   UNL     1       6.224   5.561  17.852  0.00  0.00    +0.000 A 
ATOM     12  F   UNL     1       6.501   6.013  19.077  0.00  0.00    +0.000 F 
ENDBRANCH   4   6
BRANCH   1  13
ATOM     13  S   UNL     1       1.191   7.505  20.617  0.00  0.00    +0.000 S 
BRANCH  13  15
ATOM     14  C   UNL     1       1.938   9.179  22.717  0.00  0.00    +0.000 C 
ATOM     15  C   UNL     1       1.309   9.244  21.323  0.00  0.00    +0.000 C 
BRANCH  15  16
ATOM     16  C   UNL     1      -0.134   9.824  21.486  0.00  0.00    +0.000 C 
ATOM     17  O   UNL     1      -0.882   9.467  22.406  0.00  0.00    +0.000 OA
ATOM     18  N   UNL     1      -0.489  10.946  20.717  0.00  0.00    +0.000 N 
ATOM     19  C   UNL     1      -1.451  11.899  21.353  0.00  0.00    +0.000 C 
ATOM     20  C   UNL     1      -1.111  13.291  20.834  0.00  0.00    +0.000 C 
ATOM     21  O   UNL     1      -1.102  14.306  21.520  0.00  0.00    +0.000 OA
ATOM     22  N   UNL     1      -0.968  13.330  19.465  0.00  0.00    +0.000 N 
ATOM     23  C   UNL     1      -1.150  12.156  18.724  0.00  0.00    +0.000 A 
ATOM     24  C   UNL     1      -1.943  12.182  17.581  0.00  0.00    +0.000 A 
ATOM     25  C   UNL     1      -2.260  10.974  16.969  0.00  0.00    +0.000 A 
ATOM     26  C   UNL     1      -1.653   9.788  17.405  0.00  0.00    +0.000 A 
ATOM     27  C   UNL     1      -0.852   9.765  18.555  0.00  0.00    +0.000 A 
ATOM     28  C   UNL     1      -0.726  10.930  19.298  0.00  0.00    +0.000 A 
ATOM     29  H   UNL     1      -0.568  14.162  19.048  0.00  0.00    +0.000 HD
ENDBRANCH  15  16
ENDBRANCH  13  15
ENDBRANCH   1  13
BRANCH   5  30
ATOM     30  C   UNL     1       3.479   5.202  20.044  0.00  0.00    +0.000 C 
BRANCH  30  31
ATOM     31  C   UNL     1       2.818   3.919  19.581  0.00  0.00    +0.000 A 
ATOM     32  C   UNL     1       3.594   2.896  19.004  0.00  0.00    +0.000 A 
ATOM     33  C   UNL     1       2.994   1.739  18.501  0.00  0.00    +0.000 A 
ATOM     34  C   UNL     1       1.614   1.575  18.588  0.00  0.00    +0.000 A 
ATOM     35  C   UNL     1       0.838   2.556  19.201  0.00  0.00    +0.000 A 
ATOM     36  C   UNL     1       1.437   3.712  19.708  0.00  0.00    +0.000 A 
ENDBRANCH  30  31
ENDBRANCH   5  30
TORSDOF 6
ENDMDL
