MODEL 1
REMARK VINA RESULT:      -8.5      0.000      0.000
REMARK  Name = 
REMARK  6 active torsions:
REMARK  status: ('A' for Active; 'I' for Inactive)
REMARK    1  A    between atoms: C_2  and  C_3
REMARK    2  A    between atoms: C_3  and  S_4
REMARK    3  A    between atoms: S_4  and  C_5
REMARK    4  A    between atoms: N_15  and  C_16
REMARK    5  A    between atoms: C_16  and  C_17
REMARK    6  A    between atoms: N_23  and  C_24
REMARK                            x       y       z     vdW  Elec       q    Type
REMARK                         _______ _______ _______ _____ _____    ______ ____
ROOT
ATOM      1  C   UNL     1       1.228  10.913  18.394  0.00  0.00    +0.000 A 
ATOM      2  N   UNL     1       2.239  11.696  18.189  0.00  0.00    +0.000 NA
ATOM      3  C   UNL     1       2.153  13.038  18.532  0.00  0.00    +0.000 A 
ATOM      4  C   UNL     1       3.257  13.863  18.305  0.00  0.00    +0.000 A 
ATOM      5  C   UNL     1       3.222  15.212  18.669  0.00  0.00    +0.000 A 
ATOM      6  C   UNL     1       2.078  15.744  19.260  0.00  0.00    +0.000 A 
ATOM      7  C   UNL     1       0.967  14.929  19.482  0.00  0.00    +0.000 A 
ATOM      8  C   UNL     1       1.016  13.578  19.115  0.00  0.00    +0.000 A 
ATOM      9  C   UNL     1      -0.124  12.673  19.346  0.00  0.00    +0.000 A 
ATOM     10  O   UNL     1      -1.125  13.129  19.890  0.00  0.00    +0.000 OA
ATOM     11  N   UNL     1       0.027  11.341  18.945  0.00  0.00    +0.000 N 
ENDROOT
BRANCH   1  12
ATOM     12  S   UNL     1       1.470   9.215  17.960  0.00  0.00    +0.000 S 
BRANCH  12  13
ATOM     13  C   UNL     1       1.788   8.515  19.625  0.00  0.00    +0.000 C 
BRANCH  13  15
ATOM     14  O   UNL     1       1.798   6.373  20.682  0.00  0.00    +0.000 OA
ATOM     15  C   UNL     1       2.095   7.024  19.680  0.00  0.00    +0.000 C 
ATOM     16  N   UNL     1       2.701   6.483  18.560  0.00  0.00    +0.000 N 
ATOM     17  H   UNL     1       3.284   7.132  18.039  0.00  0.00    +0.000 HD
BRANCH  16  18
ATOM     18  C   UNL     1       3.037   5.110  18.457  0.00  0.00    +0.000 A 
ATOM     19  C   UNL     1       4.202   4.541  18.987  0.00  0.00    +0.000 A 
ATOM     20  F   UNL     1       5.044   5.266  19.735  0.00  0.00    +0.000 F 
ATOM     21  C   UNL     1       4.475   3.179  18.824  0.00  0.00    +0.000 A 
ATOM     22  C   UNL     1       3.585   2.365  18.119  0.00  0.00    +0.000 A 
ATOM     23  C   UNL     1       2.410   2.916  17.606  0.00  0.00    +0.000 A 
ATOM     24  C   UNL     1       2.138   4.268  17.800  0.00  0.00    +0.000 A 
ATOM     25  F   UNL     1       1.001   4.778  17.297  0.00  0.00    +0.000 F 
ENDBRANCH  16  18
ENDBRANCH  13  15
ENDBRANCH  12  13
ENDBRANCH   1  12
BRANCH  11  26
ATOM     26  C   UNL     1      -1.150  10.487  19.170  0.00  0.00    +0.000 C 
BRANCH  26  27
ATOM     27  C   UNL     1      -2.150  10.556  18.032  0.00  0.00    +0.000 A 
ATOM     28  C   UNL     1      -1.910   9.870  16.836  0.00  0.00    +0.000 A 
ATOM     29  C   UNL     1      -2.776  10.000  15.749  0.00  0.00    +0.000 A 
ATOM     30  C   UNL     1      -3.908  10.804  15.852  0.00  0.00    +0.000 A 
ATOM     31  C   UNL     1      -4.190  11.455  17.051  0.00  0.00    +0.000 A 
ATOM     32  C   UNL     1      -3.318  11.330  18.135  0.00  0.00    +0.000 A 
ENDBRANCH  26  27
ENDBRANCH  11  26
TORSDOF 6
ENDMDL
MODEL 2
REMARK VINA RESULT:      -8.5      0.159      1.488
REMARK  Name = 
REMARK  6 active torsions:
REMARK  status: ('A' for Active; 'I' for Inactive)
REMARK    1  A    between atoms: C_2  and  C_3
REMARK    2  A    between atoms: C_3  and  S_4
REMARK    3  A    between atoms: S_4  and  C_5
REMARK    4  A    between atoms: N_15  and  C_16
REMARK    5  A    between atoms: C_16  and  C_17
REMARK    6  A    between atoms: N_23  and  C_24
REMARK                            x       y       z     vdW  Elec       q    Type
REMARK                         _______ _______ _______ _____ _____    ______ ____
ROOT
ATOM      1  C   UNL     1       1.173  10.969  18.459  0.00  0.00    +0.000 A 
ATOM      2  N   UNL     1       2.195  11.738  18.258  0.00  0.00    +0.000 NA
ATOM      3  C   UNL     1       2.124  13.083  18.598  0.00  0.00    +0.000 A 
ATOM      4  C   UNL     1       3.239  13.894  18.375  0.00  0.00    +0.000 A 
ATOM      5  C   UNL     1       3.219  15.243  18.737  0.00  0.00    +0.000 A 
ATOM      6  C   UNL     1       2.079  15.790  19.322  0.00  0.00    +0.000 A 
ATOM      7  C   UNL     1       0.957  14.989  19.539  0.00  0.00    +0.000 A 
ATOM      8  C   UNL     1       0.991  13.637  19.175  0.00  0.00    +0.000 A 
ATOM      9  C   UNL     1      -0.161  12.747  19.401  0.00  0.00    +0.000 A 
ATOM     10  O   UNL     1      -1.159  13.216  19.940  0.00  0.00    +0.000 OA
ATOM     11  N   UNL     1      -0.025  11.413  19.003  0.00  0.00    +0.000 N 
ENDROOT
BRANCH   1  12
ATOM     12  S   UNL     1       1.396   9.268  18.029  0.00  0.00    +0.000 S 
BRANCH  12  13
ATOM     13  C   UNL     1       1.827   8.588  19.677  0.00  0.00    +0.000 C 
BRANCH  13  15
ATOM     14  O   UNL     1       1.660   6.449  20.726  0.00  0.00    +0.000 OA
ATOM     15  C   UNL     1       2.052   7.083  19.746  0.00  0.00    +0.000 C 
ATOM     16  N   UNL     1       2.694   6.510  18.663  0.00  0.00    +0.000 N 
ATOM     17  H   UNL     1       3.341   7.127  18.180  0.00  0.00    +0.000 HD
BRANCH  16  18
ATOM     18  C   UNL     1       2.964   5.121  18.576  0.00  0.00    +0.000 A 
ATOM     19  C   UNL     1       2.125   4.193  17.949  0.00  0.00    +0.000 A 
ATOM     20  F   UNL     1       1.032   4.591  17.284  0.00  0.00    +0.000 F 
ATOM     21  C   UNL     1       2.449   2.832  17.922  0.00  0.00    +0.000 A 
ATOM     22  C   UNL     1       3.621   2.380  18.534  0.00  0.00    +0.000 A 
ATOM     23  C   UNL     1       4.477   3.299  19.143  0.00  0.00    +0.000 A 
ATOM     24  C   UNL     1       4.154   4.654  19.136  0.00  0.00    +0.000 A 
ATOM     25  F   UNL     1       4.992   5.522  19.728  0.00  0.00    +0.000 F 
ENDBRANCH  16  18
ENDBRANCH  13  15
ENDBRANCH  12  13
ENDBRANCH   1  12
BRANCH  11  26
ATOM     26  C   UNL     1      -1.213  10.573  19.224  0.00  0.00    +0.000 C 
BRANCH  26  27
ATOM     27  C   UNL     1      -2.182  10.612  18.059  0.00  0.00    +0.000 A 
ATOM     28  C   UNL     1      -1.916   9.885  16.892  0.00  0.00    +0.000 A 
ATOM     29  C   UNL     1      -2.752   9.986  15.779  0.00  0.00    +0.000 A 
ATOM     30  C   UNL     1      -3.880  10.801  15.825  0.00  0.00    +0.000 A 
ATOM     31  C   UNL     1      -4.189  11.492  16.994  0.00  0.00    +0.000 A 
ATOM     32  C   UNL     1      -3.346  11.397  18.105  0.00  0.00    +0.000 A 
ENDBRANCH  26  27
ENDBRANCH  11  26
TORSDOF 6
ENDMDL
MODEL 3
REMARK VINA RESULT:      -8.4      3.466      9.197
REMARK  Name = 
REMARK  6 active torsions:
REMARK  status: ('A' for Active; 'I' for Inactive)
REMARK    1  A    between atoms: C_2  and  C_3
REMARK    2  A    between atoms: C_3  and  S_4
REMARK    3  A    between atoms: S_4  and  C_5
REMARK    4  A    between atoms: N_15  and  C_16
REMARK    5  A    between atoms: C_16  and  C_17
REMARK    6  A    between atoms: N_23  and  C_24
REMARK                            x       y       z     vdW  Elec       q    Type
REMARK                         _______ _______ _______ _____ _____    ______ ____
ROOT
ATOM      1  C   UNL     1       3.044   6.460  18.123  0.00  0.00    +0.000 A 
ATOM      2  N   UNL     1       2.119   5.947  18.869  0.00  0.00    +0.000 NA
ATOM      3  C   UNL     1       1.968   4.568  18.931  0.00  0.00    +0.000 A 
ATOM      4  C   UNL     1       0.966   4.036  19.745  0.00  0.00    +0.000 A 
ATOM      5  C   UNL     1       0.806   2.653  19.862  0.00  0.00    +0.000 A 
ATOM      6  C   UNL     1       1.649   1.793  19.161  0.00  0.00    +0.000 A 
ATOM      7  C   UNL     1       2.648   2.316  18.339  0.00  0.00    +0.000 A 
ATOM      8  C   UNL     1       2.799   3.704  18.233  0.00  0.00    +0.000 A 
ATOM      9  C   UNL     1       3.850   4.305  17.392  0.00  0.00    +0.000 A 
ATOM     10  O   UNL     1       4.613   3.552  16.794  0.00  0.00    +0.000 OA
ATOM     11  N   UNL     1       3.919   5.702  17.356  0.00  0.00    +0.000 N 
ENDROOT
BRANCH   1  12
ATOM     12  S   UNL     1       3.169   8.224  18.158  0.00  0.00    +0.000 S 
BRANCH  12  13
ATOM     13  C   UNL     1       1.484   8.663  17.583  0.00  0.00    +0.000 C 
BRANCH  13  15
ATOM     14  O   UNL     1      -0.319  10.146  18.087  0.00  0.00    +0.000 OA
ATOM     15  C   UNL     1       0.661   9.540  18.519  0.00  0.00    +0.000 C 
ATOM     16  N   UNL     1       1.080   9.589  19.836  0.00  0.00    +0.000 N 
ATOM     17  H   UNL     1       2.079   9.454  19.968  0.00  0.00    +0.000 HD
BRANCH  16  18
ATOM     18  C   UNL     1       0.412  10.350  20.827  0.00  0.00    +0.000 A 
ATOM     19  C   UNL     1       0.383  11.750  20.862  0.00  0.00    +0.000 A 
ATOM     20  F   UNL     1       0.919  12.474  19.871  0.00  0.00    +0.000 F 
ATOM     21  C   UNL     1      -0.282  12.431  21.886  0.00  0.00    +0.000 A 
ATOM     22  C   UNL     1      -0.925  11.716  22.900  0.00  0.00    +0.000 A 
ATOM     23  C   UNL     1      -0.923  10.321  22.864  0.00  0.00    +0.000 A 
ATOM     24  C   UNL     1      -0.280   9.657  21.822  0.00  0.00    +0.000 A 
ATOM     25  F   UNL     1      -0.291   8.313  21.807  0.00  0.00    +0.000 F 
ENDBRANCH  16  18
ENDBRANCH  13  15
ENDBRANCH  12  13
ENDBRANCH   1  12
BRANCH  11  26
ATOM     26  C   UNL     1       4.966   6.251  16.480  0.00  0.00    +0.000 C 
BRANCH  26  27
ATOM     27  C   UNL     1       6.219   6.639  17.239  0.00  0.00    +0.000 A 
ATOM     28  C   UNL     1       6.777   5.764  18.178  0.00  0.00    +0.000 A 
ATOM     29  C   UNL     1       7.876   6.146  18.950  0.00  0.00    +0.000 A 
ATOM     30  C   UNL     1       8.446   7.404  18.776  0.00  0.00    +0.000 A 
ATOM     31  C   UNL     1       7.937   8.269  17.810  0.00  0.00    +0.000 A 
ATOM     32  C   UNL     1       6.832   7.888  17.045  0.00  0.00    +0.000 A 
ENDBRANCH  26  27
ENDBRANCH  11  26
TORSDOF 6
ENDMDL
MODEL 4
REMARK VINA RESULT:      -8.4      3.560      9.005
REMARK  Name = 
REMARK  6 active torsions:
REMARK  status: ('A' for Active; 'I' for Inactive)
REMARK    1  A    between atoms: C_2  and  C_3
REMARK    2  A    between atoms: C_3  and  S_4
REMARK    3  A    between atoms: S_4  and  C_5
REMARK    4  A    between atoms: N_15  and  C_16
REMARK    5  A    between atoms: C_16  and  C_17
REMARK    6  A    between atoms: N_23  and  C_24
REMARK                            x       y       z     vdW  Elec       q    Type
REMARK                         _______ _______ _______ _____ _____    ______ ____
ROOT
ATOM      1  C   UNL     1       3.392   6.542  18.562  0.00  0.00    +0.000 A 
ATOM      2  N   UNL     1       2.328   6.132  19.175  0.00  0.00    +0.000 NA
ATOM      3  C   UNL     1       2.330   4.898  19.811  0.00  0.00    +0.000 A 
ATOM      4  C   UNL     1       1.173   4.478  20.470  0.00  0.00    +0.000 A 
ATOM      5  C   UNL     1       1.147   3.259  21.153  0.00  0.00    +0.000 A 
ATOM      6  C   UNL     1       2.281   2.450  21.177  0.00  0.00    +0.000 A 
ATOM      7  C   UNL     1       3.439   2.858  20.514  0.00  0.00    +0.000 A 
ATOM      8  C   UNL     1       3.453   4.084  19.836  0.00  0.00    +0.000 A 
ATOM      9  C   UNL     1       4.657   4.567  19.137  0.00  0.00    +0.000 A 
ATOM     10  O   UNL     1       5.668   3.872  19.177  0.00  0.00    +0.000 OA
ATOM     11  N   UNL     1       4.568   5.805  18.491  0.00  0.00    +0.000 N 
ENDROOT
BRANCH   1  12
ATOM     12  S   UNL     1       3.286   8.147  17.826  0.00  0.00    +0.000 S 
BRANCH  12  13
ATOM     13  C   UNL     1       1.473   8.245  17.564  0.00  0.00    +0.000 C 
BRANCH  13  15
ATOM     14  O   UNL     1      -0.183   9.918  17.970  0.00  0.00    +0.000 OA
ATOM     15  C   UNL     1       0.718   9.229  18.449  0.00  0.00    +0.000 C 
ATOM     16  N   UNL     1       1.102   9.277  19.777  0.00  0.00    +0.000 N 
ATOM     17  H   UNL     1       2.078   9.045  19.943  0.00  0.00    +0.000 HD
BRANCH  16  18
ATOM     18  C   UNL     1       0.487  10.132  20.724  0.00  0.00    +0.000 A 
ATOM     19  C   UNL     1       0.587  11.529  20.709  0.00  0.00    +0.000 A 
ATOM     20  F   UNL     1       1.208  12.164  19.706  0.00  0.00    +0.000 F 
ATOM     21  C   UNL     1      -0.032  12.305  21.693  0.00  0.00    +0.000 A 
ATOM     22  C   UNL     1      -0.758  11.691  22.717  0.00  0.00    +0.000 A 
ATOM     23  C   UNL     1      -0.884  10.301  22.730  0.00  0.00    +0.000 A 
ATOM     24  C   UNL     1      -0.285   9.543  21.727  0.00  0.00    +0.000 A 
ATOM     25  F   UNL     1      -0.419   8.206  21.758  0.00  0.00    +0.000 F 
ENDBRANCH  16  18
ENDBRANCH  13  15
ENDBRANCH  12  13
ENDBRANCH   1  12
BRANCH  11  26
ATOM     26  C   UNL     1       5.787   6.228  17.784  0.00  0.00    +0.000 C 
BRANCH  26  27
ATOM     27  C   UNL     1       5.983   5.499  16.470  0.00  0.00    +0.000 A 
ATOM     28  C   UNL     1       7.255   5.413  15.892  0.00  0.00    +0.000 A 
ATOM     29  C   UNL     1       7.434   4.825  14.638  0.00  0.00    +0.000 A 
ATOM     30  C   UNL     1       6.343   4.297  13.953  0.00  0.00    +0.000 A 
ATOM     31  C   UNL     1       5.077   4.329  14.535  0.00  0.00    +0.000 A 
ATOM     32  C   UNL     1       4.899   4.924  15.786  0.00  0.00    +0.000 A 
ENDBRANCH  26  27
ENDBRANCH  11  26
TORSDOF 6
ENDMDL
MODEL 5
REMARK VINA RESULT:      -8.3      1.058      1.058
REMARK  Name = 
REMARK  6 active torsions:
REMARK  status: ('A' for Active; 'I' for Inactive)
REMARK    1  A    between atoms: C_2  and  C_3
REMARK    2  A    between atoms: C_3  and  S_4
REMARK    3  A    between atoms: S_4  and  C_5
REMARK    4  A    between atoms: N_15  and  C_16
REMARK    5  A    between atoms: C_16  and  C_17
REMARK    6  A    between atoms: N_23  and  C_24
REMARK                            x       y       z     vdW  Elec       q    Type
REMARK                         _______ _______ _______ _____ _____    ______ ____
ROOT
ATOM      1  C   UNL     1       1.055  11.044  18.994  0.00  0.00    +0.000 A 
ATOM      2  N   UNL     1       2.151  11.685  18.740  0.00  0.00    +0.000 NA
ATOM      3  C   UNL     1       2.131  13.068  18.625  0.00  0.00    +0.000 A 
ATOM      4  C   UNL     1       3.325  13.739  18.354  0.00  0.00    +0.000 A 
ATOM      5  C   UNL     1       3.353  15.133  18.268  0.00  0.00    +0.000 A 
ATOM      6  C   UNL     1       2.182  15.865  18.448  0.00  0.00    +0.000 A 
ATOM      7  C   UNL     1       0.982  15.203  18.710  0.00  0.00    +0.000 A 
ATOM      8  C   UNL     1       0.968  13.805  18.798  0.00  0.00    +0.000 A 
ATOM      9  C   UNL     1      -0.270  13.061  19.090  0.00  0.00    +0.000 A 
ATOM     10  O   UNL     1      -1.300  13.702  19.277  0.00  0.00    +0.000 OA
ATOM     11  N   UNL     1      -0.176  11.667  19.159  0.00  0.00    +0.000 N 
ENDROOT
BRANCH   1  12
ATOM     12  S   UNL     1       1.210   9.290  19.161  0.00  0.00    +0.000 S 
BRANCH  12  13
ATOM     13  C   UNL     1       2.330   8.945  17.751  0.00  0.00    +0.000 C 
BRANCH  13  15
ATOM     14  O   UNL     1       4.063   7.404  17.177  0.00  0.00    +0.000 OA
ATOM     15  C   UNL     1       2.971   7.563  17.724  0.00  0.00    +0.000 C 
ATOM     16  N   UNL     1       2.264   6.549  18.343  0.00  0.00    +0.000 N 
ATOM     17  H   UNL     1       1.255   6.672  18.339  0.00  0.00    +0.000 HD
BRANCH  16  18
ATOM     18  C   UNL     1       2.735   5.214  18.411  0.00  0.00    +0.000 A 
ATOM     19  C   UNL     1       3.887   4.818  19.100  0.00  0.00    +0.000 A 
ATOM     20  F   UNL     1       4.578   5.691  19.845  0.00  0.00    +0.000 F 
ATOM     21  C   UNL     1       4.300   3.481  19.103  0.00  0.00    +0.000 A 
ATOM     22  C   UNL     1       3.565   2.519  18.405  0.00  0.00    +0.000 A 
ATOM     23  C   UNL     1       2.401   2.898  17.733  0.00  0.00    +0.000 A 
ATOM     24  C   UNL     1       1.988   4.228  17.763  0.00  0.00    +0.000 A 
ATOM     25  F   UNL     1       0.865   4.571  17.109  0.00  0.00    +0.000 F 
ENDBRANCH  16  18
ENDBRANCH  13  15
ENDBRANCH  12  13
ENDBRANCH   1  12
BRANCH  11  26
ATOM     26  C   UNL     1      -1.445  10.970  19.424  0.00  0.00    +0.000 C 
BRANCH  26  27
ATOM     27  C   UNL     1      -2.298  10.814  18.181  0.00  0.00    +0.000 A 
ATOM     28  C   UNL     1      -1.845  10.043  17.104  0.00  0.00    +0.000 A 
ATOM     29  C   UNL     1      -2.579   9.966  15.919  0.00  0.00    +0.000 A 
ATOM     30  C   UNL     1      -3.788  10.646  15.802  0.00  0.00    +0.000 A 
ATOM     31  C   UNL     1      -4.280  11.376  16.881  0.00  0.00    +0.000 A 
ATOM     32  C   UNL     1      -3.541  11.458  18.064  0.00  0.00    +0.000 A 
ENDBRANCH  26  27
ENDBRANCH  11  26
TORSDOF 6
ENDMDL
MODEL 6
REMARK VINA RESULT:      -8.3      6.018      9.810
REMARK  Name = 
REMARK  6 active torsions:
REMARK  status: ('A' for Active; 'I' for Inactive)
REMARK    1  A    between atoms: C_2  and  C_3
REMARK    2  A    between atoms: C_3  and  S_4
REMARK    3  A    between atoms: S_4  and  C_5
REMARK    4  A    between atoms: N_15  and  C_16
REMARK    5  A    between atoms: C_16  and  C_17
REMARK    6  A    between atoms: N_23  and  C_24
REMARK                            x       y       z     vdW  Elec       q    Type
REMARK                         _______ _______ _______ _____ _____    ______ ____
ROOT
ATOM      1  C   UNL     1       7.131   5.879  16.947  0.00  0.00    +0.000 A 
ATOM      2  N   UNL     1       7.622   5.926  15.749  0.00  0.00    +0.000 NA
ATOM      3  C   UNL     1       7.100   5.107  14.757  0.00  0.00    +0.000 A 
ATOM      4  C   UNL     1       7.642   5.177  13.472  0.00  0.00    +0.000 A 
ATOM      5  C   UNL     1       7.120   4.395  12.438  0.00  0.00    +0.000 A 
ATOM      6  C   UNL     1       6.054   3.534  12.686  0.00  0.00    +0.000 A 
ATOM      7  C   UNL     1       5.512   3.451  13.970  0.00  0.00    +0.000 A 
ATOM      8  C   UNL     1       6.042   4.242  14.997  0.00  0.00    +0.000 A 
ATOM      9  C   UNL     1       5.493   4.204  16.363  0.00  0.00    +0.000 A 
ATOM     10  O   UNL     1       4.536   3.467  16.583  0.00  0.00    +0.000 OA
ATOM     11  N   UNL     1       6.092   5.035  17.316  0.00  0.00    +0.000 N 
ENDROOT
BRANCH   1  12
ATOM     12  S   UNL     1       7.845   6.999  18.115  0.00  0.00    +0.000 S 
BRANCH  12  13
ATOM     13  C   UNL     1       7.248   8.588  17.420  0.00  0.00    +0.000 C 
BRANCH  13  15
ATOM     14  O   UNL     1       7.691  10.935  17.397  0.00  0.00    +0.000 OA
ATOM     15  C   UNL     1       7.983   9.841  17.879  0.00  0.00    +0.000 C 
ATOM     16  N   UNL     1       8.957   9.660  18.845  0.00  0.00    +0.000 N 
ATOM     17  H   UNL     1       9.409   8.750  18.825  0.00  0.00    +0.000 HD
BRANCH  16  18
ATOM     18  C   UNL     1       9.717  10.729  19.381  0.00  0.00    +0.000 A 
ATOM     19  C   UNL     1       9.596  11.204  20.692  0.00  0.00    +0.000 A 
ATOM     20  F   UNL     1       8.799  10.590  21.576  0.00  0.00    +0.000 F 
ATOM     21  C   UNL     1      10.368  12.280  21.141  0.00  0.00    +0.000 A 
ATOM     22  C   UNL     1      11.272  12.903  20.277  0.00  0.00    +0.000 A 
ATOM     23  C   UNL     1      11.419  12.424  18.974  0.00  0.00    +0.000 A 
ATOM     24  C   UNL     1      10.663  11.333  18.550  0.00  0.00    +0.000 A 
ATOM     25  F   UNL     1      10.820  10.888  17.292  0.00  0.00    +0.000 F 
ENDBRANCH  16  18
ENDBRANCH  13  15
ENDBRANCH  12  13
ENDBRANCH   1  12
BRANCH  11  26
ATOM     26  C   UNL     1       5.526   4.937  18.671  0.00  0.00    +0.000 C 
BRANCH  26  27
ATOM     27  C   UNL     1       4.244   5.732  18.828  0.00  0.00    +0.000 A 
ATOM     28  C   UNL     1       3.966   6.802  17.971  0.00  0.00    +0.000 A 
ATOM     29  C   UNL     1       2.835   7.599  18.162  0.00  0.00    +0.000 A 
ATOM     30  C   UNL     1       1.955   7.322  19.205  0.00  0.00    +0.000 A 
ATOM     31  C   UNL     1       2.189   6.230  20.038  0.00  0.00    +0.000 A 
ATOM     32  C   UNL     1       3.325   5.439  19.849  0.00  0.00    +0.000 A 
ENDBRANCH  26  27
ENDBRANCH  11  26
TORSDOF 6
ENDMDL
MODEL 7
REMARK VINA RESULT:      -8.3      3.286      9.408
REMARK  Name = 
REMARK  6 active torsions:
REMARK  status: ('A' for Active; 'I' for Inactive)
REMARK    1  A    between atoms: C_2  and  C_3
REMARK    2  A    between atoms: C_3  and  S_4
REMARK    3  A    between atoms: S_4  and  C_5
REMARK    4  A    between atoms: N_15  and  C_16
REMARK    5  A    between atoms: C_16  and  C_17
REMARK    6  A    between atoms: N_23  and  C_24
REMARK                            x       y       z     vdW  Elec       q    Type
REMARK                         _______ _______ _______ _____ _____    ______ ____
ROOT
ATOM      1  C   UNL     1       3.413   6.277  18.459  0.00  0.00    +0.000 A 
ATOM      2  N   UNL     1       2.318   5.898  19.038  0.00  0.00    +0.000 NA
ATOM      3  C   UNL     1       2.294   4.710  19.756  0.00  0.00    +0.000 A 
ATOM      4  C   UNL     1       1.104   4.322  20.375  0.00  0.00    +0.000 A 
ATOM      5  C   UNL     1       1.048   3.152  21.137  0.00  0.00    +0.000 A 
ATOM      6  C   UNL     1       2.185   2.361  21.281  0.00  0.00    +0.000 A 
ATOM      7  C   UNL     1       3.376   2.736  20.658  0.00  0.00    +0.000 A 
ATOM      8  C   UNL     1       3.420   3.913  19.900  0.00  0.00    +0.000 A 
ATOM      9  C   UNL     1       4.658   4.361  19.239  0.00  0.00    +0.000 A 
ATOM     10  O   UNL     1       5.670   3.682  19.383  0.00  0.00    +0.000 OA
ATOM     11  N   UNL     1       4.596   5.551  18.506  0.00  0.00    +0.000 N 
ENDROOT
BRANCH   1  12
ATOM     12  S   UNL     1       3.337   7.828  17.611  0.00  0.00    +0.000 S 
BRANCH  12  13
ATOM     13  C   UNL     1       1.557   8.212  17.833  0.00  0.00    +0.000 C 
BRANCH  13  15
ATOM     14  O   UNL     1       1.319   9.328  19.932  0.00  0.00    +0.000 OA
ATOM     15  C   UNL     1       1.234   9.418  18.707  0.00  0.00    +0.000 C 
ATOM     16  N   UNL     1       0.861  10.572  18.042  0.00  0.00    +0.000 N 
ATOM     17  H   UNL     1       0.400  10.417  17.150  0.00  0.00    +0.000 HD
BRANCH  16  18
ATOM     18  C   UNL     1       0.541  11.777  18.716  0.00  0.00    +0.000 A 
ATOM     19  C   UNL     1      -0.705  12.052  19.293  0.00  0.00    +0.000 A 
ATOM     20  F   UNL     1      -1.666  11.120  19.331  0.00  0.00    +0.000 F 
ATOM     21  C   UNL     1      -0.951  13.276  19.923  0.00  0.00    +0.000 A 
ATOM     22  C   UNL     1       0.049  14.250  19.978  0.00  0.00    +0.000 A 
ATOM     23  C   UNL     1       1.302  13.979  19.427  0.00  0.00    +0.000 A 
ATOM     24  C   UNL     1       1.541  12.745  18.827  0.00  0.00    +0.000 A 
ATOM     25  F   UNL     1       2.755  12.505  18.302  0.00  0.00    +0.000 F 
ENDBRANCH  16  18
ENDBRANCH  13  15
ENDBRANCH  12  13
ENDBRANCH   1  12
BRANCH  11  26
ATOM     26  C   UNL     1       5.850   5.939  17.842  0.00  0.00    +0.000 C 
BRANCH  26  27
ATOM     27  C   UNL     1       6.026   5.275  16.490  0.00  0.00    +0.000 A 
ATOM     28  C   UNL     1       7.214   5.441  15.770  0.00  0.00    +0.000 A 
ATOM     29  C   UNL     1       7.353   4.912  14.485  0.00  0.00    +0.000 A 
ATOM     30  C   UNL     1       6.310   4.190  13.912  0.00  0.00    +0.000 A 
ATOM     31  C   UNL     1       5.139   3.971  14.634  0.00  0.00    +0.000 A 
ATOM     32  C   UNL     1       4.999   4.508  15.916  0.00  0.00    +0.000 A 
ENDBRANCH  26  27
ENDBRANCH  11  26
TORSDOF 6
ENDMDL
MODEL 8
REMARK VINA RESULT:      -8.3      5.769      9.797
REMARK  Name = 
REMARK  6 active torsions:
REMARK  status: ('A' for Active; 'I' for Inactive)
REMARK    1  A    between atoms: C_2  and  C_3
REMARK    2  A    between atoms: C_3  and  S_4
REMARK    3  A    between atoms: S_4  and  C_5
REMARK    4  A    between atoms: N_15  and  C_16
REMARK    5  A    between atoms: C_16  and  C_17
REMARK    6  A    between atoms: N_23  and  C_24
REMARK                            x       y       z     vdW  Elec       q    Type
REMARK                         _______ _______ _______ _____ _____    ______ ____
ROOT
ATOM      1  C   UNL     1       6.982   5.783  16.997  0.00  0.00    +0.000 A 
ATOM      2  N   UNL     1       7.584   5.781  15.851  0.00  0.00    +0.000 NA
ATOM      3  C   UNL     1       7.048   5.061  14.792  0.00  0.00    +0.000 A 
ATOM      4  C   UNL     1       7.713   5.075  13.563  0.00  0.00    +0.000 A 
ATOM      5  C   UNL     1       7.186   4.394  12.463  0.00  0.00    +0.000 A 
ATOM      6  C   UNL     1       5.991   3.689  12.588  0.00  0.00    +0.000 A 
ATOM      7  C   UNL     1       5.325   3.663  13.814  0.00  0.00    +0.000 A 
ATOM      8  C   UNL     1       5.861   4.353  14.908  0.00  0.00    +0.000 A 
ATOM      9  C   UNL     1       5.186   4.370  16.217  0.00  0.00    +0.000 A 
ATOM     10  O   UNL     1       4.119   3.774  16.327  0.00  0.00    +0.000 OA
ATOM     11  N   UNL     1       5.804   5.090  17.246  0.00  0.00    +0.000 N 
ENDROOT
BRANCH   1  12
ATOM     12  S   UNL     1       7.733   6.770  18.258  0.00  0.00    +0.000 S 
BRANCH  12  13
ATOM     13  C   UNL     1       7.689   8.408  17.434  0.00  0.00    +0.000 C 
BRANCH  13  15
ATOM     14  O   UNL     1       8.853   9.369  19.286  0.00  0.00    +0.000 OA
ATOM     15  C   UNL     1       8.422   9.539  18.145  0.00  0.00    +0.000 C 
ATOM     16  N   UNL     1       8.565  10.717  17.435  0.00  0.00    +0.000 N 
ATOM     17  H   UNL     1       7.826  10.896  16.760  0.00  0.00    +0.000 HD
BRANCH  16  18
ATOM     18  C   UNL     1       9.231  11.853  17.956  0.00  0.00    +0.000 A 
ATOM     19  C   UNL     1      10.566  11.860  18.377  0.00  0.00    +0.000 A 
ATOM     20  F   UNL     1      11.347  10.784  18.212  0.00  0.00    +0.000 F 
ATOM     21  C   UNL     1      11.149  13.018  18.902  0.00  0.00    +0.000 A 
ATOM     22  C   UNL     1      10.396  14.190  19.021  0.00  0.00    +0.000 A 
ATOM     23  C   UNL     1       9.071  14.201  18.583  0.00  0.00    +0.000 A 
ATOM     24  C   UNL     1       8.513  13.048  18.037  0.00  0.00    +0.000 A 
ATOM     25  F   UNL     1       7.235  13.081  17.622  0.00  0.00    +0.000 F 
ENDBRANCH  16  18
ENDBRANCH  13  15
ENDBRANCH  12  13
ENDBRANCH   1  12
BRANCH  11  26
ATOM     26  C   UNL     1       5.105   5.052  18.540  0.00  0.00    +0.000 C 
BRANCH  26  27
ATOM     27  C   UNL     1       4.040   6.123  18.661  0.00  0.00    +0.000 A 
ATOM     28  C   UNL     1       3.147   6.114  19.739  0.00  0.00    +0.000 A 
ATOM     29  C   UNL     1       2.104   7.039  19.814  0.00  0.00    +0.000 A 
ATOM     30  C   UNL     1       1.953   8.002  18.819  0.00  0.00    +0.000 A 
ATOM     31  C   UNL     1       2.862   8.059  17.765  0.00  0.00    +0.000 A 
ATOM     32  C   UNL     1       3.900   7.127  17.688  0.00  0.00    +0.000 A 
ENDBRANCH  26  27
ENDBRANCH  11  26
TORSDOF 6
ENDMDL
MODEL 9
REMARK VINA RESULT:      -8.2      3.217      9.112
REMARK  Name = 
REMARK  6 active torsions:
REMARK  status: ('A' for Active; 'I' for Inactive)
REMARK    1  A    between atoms: C_2  and  C_3
REMARK    2  A    between atoms: C_3  and  S_4
REMARK    3  A    between atoms: S_4  and  C_5
REMARK    4  A    between atoms: N_15  and  C_16
REMARK    5  A    between atoms: C_16  and  C_17
REMARK    6  A    between atoms: N_23  and  C_24
REMARK                            x       y       z     vdW  Elec       q    Type
REMARK                         _______ _______ _______ _____ _____    ______ ____
ROOT
ATOM      1  C   UNL     1       2.851   6.567  18.503  0.00  0.00    +0.000 A 
ATOM      2  N   UNL     1       1.878   5.970  19.115  0.00  0.00    +0.000 NA
ATOM      3  C   UNL     1       2.118   4.786  19.799  0.00  0.00    +0.000 A 
ATOM      4  C   UNL     1       1.055   4.160  20.454  0.00  0.00    +0.000 A 
ATOM      5  C   UNL     1       1.262   2.987  21.184  0.00  0.00    +0.000 A 
ATOM      6  C   UNL     1       2.537   2.430  21.259  0.00  0.00    +0.000 A 
ATOM      7  C   UNL     1       3.603   3.043  20.600  0.00  0.00    +0.000 A 
ATOM      8  C   UNL     1       3.382   4.221  19.874  0.00  0.00    +0.000 A 
ATOM      9  C   UNL     1       4.479   4.916  19.177  0.00  0.00    +0.000 A 
ATOM     10  O   UNL     1       5.609   4.445  19.261  0.00  0.00    +0.000 OA
ATOM     11  N   UNL     1       4.153   6.086  18.482  0.00  0.00    +0.000 N 
ENDROOT
BRANCH   1  12
ATOM     12  S   UNL     1       2.436   8.090  17.704  0.00  0.00    +0.000 S 
BRANCH  12  13
ATOM     13  C   UNL     1       2.054   9.115  19.175  0.00  0.00    +0.000 C 
BRANCH  13  15
ATOM     14  O   UNL     1      -0.009   9.273  20.368  0.00  0.00    +0.000 OA
ATOM     15  C   UNL     1       0.602   9.547  19.336  0.00  0.00    +0.000 C 
ATOM     16  N   UNL     1       0.053  10.250  18.278  0.00  0.00    +0.000 N 
ATOM     17  H   UNL     1       0.448  10.024  17.369  0.00  0.00    +0.000 HD
BRANCH  16  18
ATOM     18  C   UNL     1      -1.281  10.728  18.284  0.00  0.00    +0.000 A 
ATOM     19  C   UNL     1      -1.761  11.716  19.152  0.00  0.00    +0.000 A 
ATOM     20  F   UNL     1      -0.935  12.359  19.987  0.00  0.00    +0.000 F 
ATOM     21  C   UNL     1      -3.099  12.122  19.111  0.00  0.00    +0.000 A 
ATOM     22  C   UNL     1      -3.981  11.535  18.199  0.00  0.00    +0.000 A 
ATOM     23  C   UNL     1      -3.509  10.565  17.313  0.00  0.00    +0.000 A 
ATOM     24  C   UNL     1      -2.167  10.193  17.348  0.00  0.00    +0.000 A 
ATOM     25  F   UNL     1      -1.734   9.257  16.485  0.00  0.00    +0.000 F 
ENDBRANCH  16  18
ENDBRANCH  13  15
ENDBRANCH  12  13
ENDBRANCH   1  12
BRANCH  11  26
ATOM     26  C   UNL     1       5.277   6.725  17.779  0.00  0.00    +0.000 C 
BRANCH  26  27
ATOM     27  C   UNL     1       5.763   5.914  16.593  0.00  0.00    +0.000 A 
ATOM     28  C   UNL     1       4.847   5.374  15.683  0.00  0.00    +0.000 A 
ATOM     29  C   UNL     1       5.275   4.550  14.641  0.00  0.00    +0.000 A 
ATOM     30  C   UNL     1       6.630   4.270  14.483  0.00  0.00    +0.000 A 
ATOM     31  C   UNL     1       7.561   4.840  15.349  0.00  0.00    +0.000 A 
ATOM     32  C   UNL     1       7.130   5.658  16.396  0.00  0.00    +0.000 A 
ENDBRANCH  26  27
ENDBRANCH  11  26
TORSDOF 6
ENDMDL
