MODEL 1
REMARK VINA RESULT:      -9.5      0.000      0.000
REMARK  Name = 
REMARK  6 active torsions:
REMARK  status: ('A' for Active; 'I' for Inactive)
REMARK    1  A    between atoms: C_1  and  C_2
REMARK    2  A    between atoms: C_4  and  C_5
REMARK    3  A    between atoms: C_9  and  N_10
REMARK    4  A    between atoms: C_11  and  C_13
REMARK    5  A    between atoms: N_15  and  C_16
REMARK    6  A    between atoms: C_21  and  C_22
REMARK                            x       y       z     vdW  Elec       q    Type
REMARK                         _______ _______ _______ _____ _____    ______ ____
ROOT
ATOM      1  N   UNL     1       1.691   8.683  18.800  0.00  0.00    +0.000 N 
ATOM      2  C   UNL     1       1.795   7.768  19.839  0.00  0.00    +0.000 C 
ATOM      3  O   UNL     1       1.268   7.872  20.946  0.00  0.00    +0.000 OA
ATOM      4  H   UNL     1       2.099   8.364  17.924  0.00  0.00    +0.000 HD
ENDROOT
BRANCH   2   5
ATOM      5  C   UNL     1       2.566   6.561  19.494  0.00  0.00    +0.000 A 
ATOM      6  N   UNL     1       3.627   6.583  18.649  0.00  0.00    +0.000 NA
ATOM      7  N   UNL     1       4.044   5.276  18.541  0.00  0.00    +0.000 N 
ATOM      8  C   UNL     1       3.266   4.476  19.322  0.00  0.00    +0.000 A 
ATOM      9  C   UNL     1       2.350   5.258  19.954  0.00  0.00    +0.000 A 
ATOM     10  C   UNL     1       1.505   4.479  20.876  0.00  0.00    +0.000 C 
ATOM     11  C   UNL     1       2.337   3.153  21.004  0.00  0.00    +0.000 C 
ATOM     12  C   UNL     1       3.249   3.061  19.730  0.00  0.00    +0.000 C 
BRANCH   7  13
ATOM     13  C   UNL     1       5.072   4.897  17.639  0.00  0.00    +0.000 A 
ATOM     14  C   UNL     1       4.704   4.351  16.395  0.00  0.00    +0.000 A 
ATOM     15  C   UNL     1       5.673   4.060  15.436  0.00  0.00    +0.000 A 
ATOM     16  C   UNL     1       7.015   4.305  15.710  0.00  0.00    +0.000 A 
ATOM     17  C   UNL     1       7.393   4.807  16.955  0.00  0.00    +0.000 A 
ATOM     18  C   UNL     1       6.435   5.092  17.945  0.00  0.00    +0.000 A 
ATOM     19  C   UNL     1       6.925   5.466  19.320  0.00  0.00    +0.000 C 
ENDBRANCH   7  13
ENDBRANCH   2   5
BRANCH   1  24
ATOM     20  C   UNL     1      -1.057  11.122  18.172  0.00  0.00    +0.000 A 
ATOM     21  C   UNL     1      -0.603  12.224  18.912  0.00  0.00    +0.000 A 
ATOM     22  C   UNL     1       0.619  12.178  19.573  0.00  0.00    +0.000 A 
ATOM     23  C   UNL     1       1.392  11.017  19.525  0.00  0.00    +0.000 A 
ATOM     24  C   UNL     1       0.961   9.894  18.813  0.00  0.00    +0.000 A 
ATOM     25  C   UNL     1      -0.251   9.967  18.106  0.00  0.00    +0.000 A 
BRANCH  20  29
ATOM     26  C   UNL     1      -5.878  11.817  17.452  0.00  0.00    +0.000 C 
ATOM     27  C   UNL     1      -4.440  11.522  17.329  0.00  0.00    +0.000 A 
ATOM     28  N   UNL     1      -3.481  11.665  18.210  0.00  0.00    +0.000 NA
ATOM     29  C   UNL     1      -2.369  11.198  17.532  0.00  0.00    +0.000 A 
ATOM     30  N   UNL     1      -2.634  10.797  16.276  0.00  0.00    +0.000 NA
ATOM     31  O   UNL     1      -4.008  11.010  16.143  0.00  0.00    +0.000 OA
ENDBRANCH  20  29
ENDBRANCH   1  24
TORSDOF 4
ENDMDL
MODEL 2
REMARK VINA RESULT:      -9.4      0.860      1.106
REMARK  Name = 
REMARK  6 active torsions:
REMARK  status: ('A' for Active; 'I' for Inactive)
REMARK    1  A    between atoms: C_1  and  C_2
REMARK    2  A    between atoms: C_4  and  C_5
REMARK    3  A    between atoms: C_9  and  N_10
REMARK    4  A    between atoms: C_11  and  C_13
REMARK    5  A    between atoms: N_15  and  C_16
REMARK    6  A    between atoms: C_21  and  C_22
REMARK                            x       y       z     vdW  Elec       q    Type
REMARK                         _______ _______ _______ _____ _____    ______ ____
ROOT
ATOM      1  N   UNL     1       1.708   8.368  19.022  0.00  0.00    +0.000 N 
ATOM      2  C   UNL     1       1.798   7.413  20.026  0.00  0.00    +0.000 C 
ATOM      3  O   UNL     1       1.197   7.436  21.098  0.00  0.00    +0.000 OA
ATOM      4  H   UNL     1       2.190   8.113  18.162  0.00  0.00    +0.000 HD
ENDROOT
BRANCH   2   5
ATOM      5  C   UNL     1       2.660   6.269  19.682  0.00  0.00    +0.000 A 
ATOM      6  N   UNL     1       3.672   6.353  18.783  0.00  0.00    +0.000 NA
ATOM      7  N   UNL     1       4.202   5.087  18.698  0.00  0.00    +0.000 N 
ATOM      8  C   UNL     1       3.540   4.250  19.545  0.00  0.00    +0.000 A 
ATOM      9  C   UNL     1       2.587   4.970  20.197  0.00  0.00    +0.000 A 
ATOM     10  C   UNL     1       1.865   4.154  21.188  0.00  0.00    +0.000 C 
ATOM     11  C   UNL     1       2.820   2.915  21.317  0.00  0.00    +0.000 C 
ATOM     12  C   UNL     1       3.673   2.856  20.001  0.00  0.00    +0.000 C 
BRANCH   7  13
ATOM     13  C   UNL     1       5.216   4.768  17.757  0.00  0.00    +0.000 A 
ATOM     14  C   UNL     1       4.836   4.170  16.541  0.00  0.00    +0.000 A 
ATOM     15  C   UNL     1       5.781   3.933  15.543  0.00  0.00    +0.000 A 
ATOM     16  C   UNL     1       7.111   4.284  15.752  0.00  0.00    +0.000 A 
ATOM     17  C   UNL     1       7.504   4.838  16.970  0.00  0.00    +0.000 A 
ATOM     18  C   UNL     1       6.572   5.071  17.998  0.00  0.00    +0.000 A 
ATOM     19  C   UNL     1       7.091   5.509  19.342  0.00  0.00    +0.000 C 
ENDBRANCH   7  13
ENDBRANCH   2   5
BRANCH   1  24
ATOM     20  C   UNL     1      -1.019  10.756  18.153  0.00  0.00    +0.000 A 
ATOM     21  C   UNL     1      -0.800  11.761  19.106  0.00  0.00    +0.000 A 
ATOM     22  C   UNL     1       0.265  11.674  19.995  0.00  0.00    +0.000 A 
ATOM     23  C   UNL     1       1.110  10.565  19.961  0.00  0.00    +0.000 A 
ATOM     24  C   UNL     1       0.909   9.535  19.037  0.00  0.00    +0.000 A 
ATOM     25  C   UNL     1      -0.139   9.655  18.109  0.00  0.00    +0.000 A 
BRANCH  20  29
ATOM     26  C   UNL     1      -4.014  10.243  14.279  0.00  0.00    +0.000 C 
ATOM     27  C   UNL     1      -3.382  10.587  15.564  0.00  0.00    +0.000 A 
ATOM     28  N   UNL     1      -2.240  10.188  16.065  0.00  0.00    +0.000 NA
ATOM     29  C   UNL     1      -2.179  10.866  17.269  0.00  0.00    +0.000 A 
ATOM     30  N   UNL     1      -3.251  11.642  17.505  0.00  0.00    +0.000 NA
ATOM     31  O   UNL     1      -4.048  11.458  16.372  0.00  0.00    +0.000 OA
ENDBRANCH  20  29
ENDBRANCH   1  24
TORSDOF 4
ENDMDL
MODEL 3
REMARK VINA RESULT:      -9.2      0.949      1.134
REMARK  Name = 
REMARK  6 active torsions:
REMARK  status: ('A' for Active; 'I' for Inactive)
REMARK    1  A    between atoms: C_1  and  C_2
REMARK    2  A    between atoms: C_4  and  C_5
REMARK    3  A    between atoms: C_9  and  N_10
REMARK    4  A    between atoms: C_11  and  C_13
REMARK    5  A    between atoms: N_15  and  C_16
REMARK    6  A    between atoms: C_21  and  C_22
REMARK                            x       y       z     vdW  Elec       q    Type
REMARK                         _______ _______ _______ _____ _____    ______ ____
ROOT
ATOM      1  N   UNL     1       1.820   9.007  18.526  0.00  0.00    +0.000 N 
ATOM      2  C   UNL     1       1.901   8.128  19.599  0.00  0.00    +0.000 C 
ATOM      3  O   UNL     1       1.436   8.318  20.722  0.00  0.00    +0.000 OA
ATOM      4  H   UNL     1       2.161   8.622  17.648  0.00  0.00    +0.000 HD
ENDROOT
BRANCH   2   5
ATOM      5  C   UNL     1       2.561   6.852  19.273  0.00  0.00    +0.000 A 
ATOM      6  N   UNL     1       3.665   6.774  18.490  0.00  0.00    +0.000 NA
ATOM      7  N   UNL     1       3.949   5.432  18.379  0.00  0.00    +0.000 N 
ATOM      8  C   UNL     1       3.047   4.707  19.098  0.00  0.00    +0.000 A 
ATOM      9  C   UNL     1       2.182   5.572  19.694  0.00  0.00    +0.000 A 
ATOM     10  C   UNL     1       1.209   4.874  20.550  0.00  0.00    +0.000 C 
ATOM     11  C   UNL     1       1.888   3.466  20.697  0.00  0.00    +0.000 C 
ATOM     12  C   UNL     1       2.858   3.296  19.476  0.00  0.00    +0.000 C 
BRANCH   7  13
ATOM     13  C   UNL     1       4.983   4.959  17.529  0.00  0.00    +0.000 A 
ATOM     14  C   UNL     1       4.628   4.432  16.274  0.00  0.00    +0.000 A 
ATOM     15  C   UNL     1       5.613   4.050  15.363  0.00  0.00    +0.000 A 
ATOM     16  C   UNL     1       6.956   4.188  15.698  0.00  0.00    +0.000 A 
ATOM     17  C   UNL     1       7.317   4.670  16.955  0.00  0.00    +0.000 A 
ATOM     18  C   UNL     1       6.341   5.044  17.898  0.00  0.00    +0.000 A 
ATOM     19  C   UNL     1       6.797   5.392  19.291  0.00  0.00    +0.000 C 
ENDBRANCH   7  13
ENDBRANCH   2   5
BRANCH   1  24
ATOM     20  C   UNL     1      -0.884  11.570  18.652  0.00  0.00    +0.000 A 
ATOM     21  C   UNL     1      -0.126  12.750  18.645  0.00  0.00    +0.000 A 
ATOM     22  C   UNL     1       1.260  12.701  18.551  0.00  0.00    +0.000 A 
ATOM     23  C   UNL     1       1.909  11.468  18.492  0.00  0.00    +0.000 A 
ATOM     24  C   UNL     1       1.186  10.271  18.518  0.00  0.00    +0.000 A 
ATOM     25  C   UNL     1      -0.216  10.331  18.562  0.00  0.00    +0.000 A 
BRANCH  20  29
ATOM     26  C   UNL     1      -5.713  11.172  17.776  0.00  0.00    +0.000 C 
ATOM     27  C   UNL     1      -4.376  11.449  18.330  0.00  0.00    +0.000 A 
ATOM     28  N   UNL     1      -3.198  11.096  17.881  0.00  0.00    +0.000 NA
ATOM     29  C   UNL     1      -2.335  11.667  18.800  0.00  0.00    +0.000 A 
ATOM     30  N   UNL     1      -2.962  12.334  19.784  0.00  0.00    +0.000 NA
ATOM     31  O   UNL     1      -4.317  12.190  19.471  0.00  0.00    +0.000 OA
ENDBRANCH  20  29
ENDBRANCH   1  24
TORSDOF 4
ENDMDL
MODEL 4
REMARK VINA RESULT:      -9.1      1.242      1.359
REMARK  Name = 
REMARK  6 active torsions:
REMARK  status: ('A' for Active; 'I' for Inactive)
REMARK    1  A    between atoms: C_1  and  C_2
REMARK    2  A    between atoms: C_4  and  C_5
REMARK    3  A    between atoms: C_9  and  N_10
REMARK    4  A    between atoms: C_11  and  C_13
REMARK    5  A    between atoms: N_15  and  C_16
REMARK    6  A    between atoms: C_21  and  C_22
REMARK                            x       y       z     vdW  Elec       q    Type
REMARK                         _______ _______ _______ _____ _____    ______ ____
ROOT
ATOM      1  N   UNL     1       0.855   9.008  19.315  0.00  0.00    +0.000 N 
ATOM      2  C   UNL     1       1.859   8.885  18.363  0.00  0.00    +0.000 C 
ATOM      3  O   UNL     1       2.175   9.738  17.535  0.00  0.00    +0.000 OA
ATOM      4  H   UNL     1       0.824   8.243  19.986  0.00  0.00    +0.000 HD
ENDROOT
BRANCH   2   5
ATOM      5  C   UNL     1       2.610   7.621  18.451  0.00  0.00    +0.000 A 
ATOM      6  N   UNL     1       3.670   7.338  17.654  0.00  0.00    +0.000 NA
ATOM      7  N   UNL     1       4.066   6.066  17.998  0.00  0.00    +0.000 N 
ATOM      8  C   UNL     1       3.276   5.591  19.001  0.00  0.00    +0.000 A 
ATOM      9  C   UNL     1       2.373   6.555  19.326  0.00  0.00    +0.000 A 
ATOM     10  C   UNL     1       1.518   6.149  20.455  0.00  0.00    +0.000 C 
ATOM     11  C   UNL     1       2.328   4.933  21.028  0.00  0.00    +0.000 C 
ATOM     12  C   UNL     1       3.236   4.399  19.866  0.00  0.00    +0.000 C 
BRANCH   7  13
ATOM     13  C   UNL     1       5.087   5.386  17.283  0.00  0.00    +0.000 A 
ATOM     14  C   UNL     1       4.790   4.893  15.999  0.00  0.00    +0.000 A 
ATOM     15  C   UNL     1       5.786   4.311  15.217  0.00  0.00    +0.000 A 
ATOM     16  C   UNL     1       7.084   4.212  15.709  0.00  0.00    +0.000 A 
ATOM     17  C   UNL     1       7.378   4.660  16.996  0.00  0.00    +0.000 A 
ATOM     18  C   UNL     1       6.385   5.235  17.811  0.00  0.00    +0.000 A 
ATOM     19  C   UNL     1       6.732   5.537  19.246  0.00  0.00    +0.000 C 
ENDBRANCH   7  13
ENDBRANCH   2   5
BRANCH   1  24
ATOM     20  C   UNL     1      -2.008  11.359  18.908  0.00  0.00    +0.000 A 
ATOM     21  C   UNL     1      -1.760  12.258  19.957  0.00  0.00    +0.000 A 
ATOM     22  C   UNL     1      -0.634  12.115  20.759  0.00  0.00    +0.000 A 
ATOM     23  C   UNL     1       0.246  11.055  20.541  0.00  0.00    +0.000 A 
ATOM     24  C   UNL     1       0.018  10.129  19.518  0.00  0.00    +0.000 A 
ATOM     25  C   UNL     1      -1.094  10.309  18.680  0.00  0.00    +0.000 A 
BRANCH  20  29
ATOM     26  C   UNL     1      -6.688  12.241  17.657  0.00  0.00    +0.000 C 
ATOM     27  C   UNL     1      -5.252  11.916  17.690  0.00  0.00    +0.000 A 
ATOM     28  N   UNL     1      -4.408  11.965  18.690  0.00  0.00    +0.000 NA
ATOM     29  C   UNL     1      -3.229  11.519  18.120  0.00  0.00    +0.000 A 
ATOM     30  N   UNL     1      -3.342  11.220  16.814  0.00  0.00    +0.000 NA
ATOM     31  O   UNL     1      -4.685  11.482  16.530  0.00  0.00    +0.000 OA
ENDBRANCH  20  29
ENDBRANCH   1  24
TORSDOF 4
ENDMDL
MODEL 5
REMARK VINA RESULT:      -9.0      0.992      1.760
REMARK  Name = 
REMARK  6 active torsions:
REMARK  status: ('A' for Active; 'I' for Inactive)
REMARK    1  A    between atoms: C_1  and  C_2
REMARK    2  A    between atoms: C_4  and  C_5
REMARK    3  A    between atoms: C_9  and  N_10
REMARK    4  A    between atoms: C_11  and  C_13
REMARK    5  A    between atoms: N_15  and  C_16
REMARK    6  A    between atoms: C_21  and  C_22
REMARK                            x       y       z     vdW  Elec       q    Type
REMARK                         _______ _______ _______ _____ _____    ______ ____
ROOT
ATOM      1  N   UNL     1       1.481   8.617  19.093  0.00  0.00    +0.000 N 
ATOM      2  C   UNL     1       1.546   7.718  20.149  0.00  0.00    +0.000 C 
ATOM      3  O   UNL     1       0.893   7.780  21.189  0.00  0.00    +0.000 OA
ATOM      4  H   UNL     1       2.011   8.332  18.271  0.00  0.00    +0.000 HD
ENDROOT
BRANCH   2   5
ATOM      5  C   UNL     1       2.453   6.582  19.908  0.00  0.00    +0.000 A 
ATOM      6  N   UNL     1       3.671   6.723  19.328  0.00  0.00    +0.000 NA
ATOM      7  N   UNL     1       4.186   5.451  19.231  0.00  0.00    +0.000 N 
ATOM      8  C   UNL     1       3.309   4.554  19.761  0.00  0.00    +0.000 A 
ATOM      9  C   UNL     1       2.225   5.237  20.220  0.00  0.00    +0.000 A 
ATOM     10  C   UNL     1       1.251   4.347  20.873  0.00  0.00    +0.000 C 
ATOM     11  C   UNL     1       2.118   3.058  21.097  0.00  0.00    +0.000 C 
ATOM     12  C   UNL     1       3.294   3.112  20.059  0.00  0.00    +0.000 C 
BRANCH   7  13
ATOM     13  C   UNL     1       5.412   5.196  18.562  0.00  0.00    +0.000 A 
ATOM     14  C   UNL     1       6.612   5.539  19.210  0.00  0.00    +0.000 A 
ATOM     15  C   UNL     1       7.843   5.215  18.639  0.00  0.00    +0.000 A 
ATOM     16  C   UNL     1       7.886   4.551  17.418  0.00  0.00    +0.000 A 
ATOM     17  C   UNL     1       6.702   4.244  16.748  0.00  0.00    +0.000 A 
ATOM     18  C   UNL     1       5.449   4.577  17.295  0.00  0.00    +0.000 A 
ATOM     19  C   UNL     1       4.225   4.371  16.442  0.00  0.00    +0.000 C 
ENDBRANCH   7  13
ENDBRANCH   2   5
BRANCH   1  24
ATOM     20  C   UNL     1      -1.275  10.870  17.987  0.00  0.00    +0.000 A 
ATOM     21  C   UNL     1      -1.113  11.939  18.880  0.00  0.00    +0.000 A 
ATOM     22  C   UNL     1      -0.076  11.937  19.806  0.00  0.00    +0.000 A 
ATOM     23  C   UNL     1       0.797  10.851  19.870  0.00  0.00    +0.000 A 
ATOM     24  C   UNL     1       0.652   9.760  19.008  0.00  0.00    +0.000 A 
ATOM     25  C   UNL     1      -0.367   9.792  18.042  0.00  0.00    +0.000 A 
BRANCH  20  29
ATOM     26  C   UNL     1      -4.079  10.141  14.005  0.00  0.00    +0.000 C 
ATOM     27  C   UNL     1      -3.523  10.527  15.314  0.00  0.00    +0.000 A 
ATOM     28  N   UNL     1      -2.371  10.217  15.855  0.00  0.00    +0.000 NA
ATOM     29  C   UNL     1      -2.407  10.892  17.062  0.00  0.00    +0.000 A 
ATOM     30  N   UNL     1      -3.546  11.579  17.260  0.00  0.00    +0.000 NA
ATOM     31  O   UNL     1      -4.285  11.338  16.099  0.00  0.00    +0.000 OA
ENDBRANCH  20  29
ENDBRANCH   1  24
TORSDOF 4
ENDMDL
MODEL 6
REMARK VINA RESULT:      -9.0      2.465      3.619
REMARK  Name = 
REMARK  6 active torsions:
REMARK  status: ('A' for Active; 'I' for Inactive)
REMARK    1  A    between atoms: C_1  and  C_2
REMARK    2  A    between atoms: C_4  and  C_5
REMARK    3  A    between atoms: C_9  and  N_10
REMARK    4  A    between atoms: C_11  and  C_13
REMARK    5  A    between atoms: N_15  and  C_16
REMARK    6  A    between atoms: C_21  and  C_22
REMARK                            x       y       z     vdW  Elec       q    Type
REMARK                         _______ _______ _______ _____ _____    ______ ____
ROOT
ATOM      1  N   UNL     1       1.587   8.818  18.634  0.00  0.00    +0.000 N 
ATOM      2  C   UNL     1       1.801   7.981  19.722  0.00  0.00    +0.000 C 
ATOM      3  O   UNL     1       1.392   8.168  20.866  0.00  0.00    +0.000 OA
ATOM      4  H   UNL     1       1.903   8.434  17.746  0.00  0.00    +0.000 HD
ENDROOT
BRANCH   2   5
ATOM      5  C   UNL     1       2.536   6.749  19.387  0.00  0.00    +0.000 A 
ATOM      6  N   UNL     1       3.612   6.736  18.562  0.00  0.00    +0.000 NA
ATOM      7  N   UNL     1       3.986   5.416  18.458  0.00  0.00    +0.000 N 
ATOM      8  C   UNL     1       3.166   4.641  19.222  0.00  0.00    +0.000 A 
ATOM      9  C   UNL     1       2.266   5.453  19.840  0.00  0.00    +0.000 A 
ATOM     10  C   UNL     1       1.378   4.702  20.744  0.00  0.00    +0.000 C 
ATOM     11  C   UNL     1       2.160   3.348  20.883  0.00  0.00    +0.000 C 
ATOM     12  C   UNL     1       3.092   3.227  19.626  0.00  0.00    +0.000 C 
BRANCH   7  13
ATOM     13  C   UNL     1       5.017   5.003  17.575  0.00  0.00    +0.000 A 
ATOM     14  C   UNL     1       4.654   4.495  16.313  0.00  0.00    +0.000 A 
ATOM     15  C   UNL     1       5.632   4.173  15.372  0.00  0.00    +0.000 A 
ATOM     16  C   UNL     1       6.976   4.351  15.682  0.00  0.00    +0.000 A 
ATOM     17  C   UNL     1       7.346   4.814  16.944  0.00  0.00    +0.000 A 
ATOM     18  C   UNL     1       6.379   5.128  17.916  0.00  0.00    +0.000 A 
ATOM     19  C   UNL     1       6.853   5.457  19.308  0.00  0.00    +0.000 C 
ENDBRANCH   7  13
ENDBRANCH   2   5
BRANCH   1  24
ATOM     20  C   UNL     1       0.877  12.478  18.619  0.00  0.00    +0.000 A 
ATOM     21  C   UNL     1      -0.520  12.473  18.498  0.00  0.00    +0.000 A 
ATOM     22  C   UNL     1      -1.224  11.275  18.469  0.00  0.00    +0.000 A 
ATOM     23  C   UNL     1      -0.536  10.063  18.533  0.00  0.00    +0.000 A 
ATOM     24  C   UNL     1       0.858  10.030  18.634  0.00  0.00    +0.000 A 
ATOM     25  C   UNL     1       1.557  11.246  18.713  0.00  0.00    +0.000 A 
BRANCH  20  29
ATOM     26  C   UNL     1       4.432  15.858  18.190  0.00  0.00    +0.000 C 
ATOM     27  C   UNL     1       3.171  15.124  18.392  0.00  0.00    +0.000 A 
ATOM     28  N   UNL     1       2.910  13.851  18.228  0.00  0.00    +0.000 NA
ATOM     29  C   UNL     1       1.580  13.759  18.597  0.00  0.00    +0.000 A 
ATOM     30  N   UNL     1       1.041  14.936  18.962  0.00  0.00    +0.000 NA
ATOM     31  O   UNL     1       2.097  15.841  18.827  0.00  0.00    +0.000 OA
ENDBRANCH  20  29
ENDBRANCH   1  24
TORSDOF 4
ENDMDL
MODEL 7
REMARK VINA RESULT:      -9.0      0.579      1.367
REMARK  Name = 
REMARK  6 active torsions:
REMARK  status: ('A' for Active; 'I' for Inactive)
REMARK    1  A    between atoms: C_1  and  C_2
REMARK    2  A    between atoms: C_4  and  C_5
REMARK    3  A    between atoms: C_9  and  N_10
REMARK    4  A    between atoms: C_11  and  C_13
REMARK    5  A    between atoms: N_15  and  C_16
REMARK    6  A    between atoms: C_21  and  C_22
REMARK                            x       y       z     vdW  Elec       q    Type
REMARK                         _______ _______ _______ _____ _____    ______ ____
ROOT
ATOM      1  N   UNL     1       1.567   8.820  19.197  0.00  0.00    +0.000 N 
ATOM      2  C   UNL     1       1.534   7.829  20.169  0.00  0.00    +0.000 C 
ATOM      3  O   UNL     1       0.841   7.841  21.185  0.00  0.00    +0.000 OA
ATOM      4  H   UNL     1       2.114   8.575  18.373  0.00  0.00    +0.000 HD
ENDROOT
BRANCH   2   5
ATOM      5  C   UNL     1       2.380   6.664  19.860  0.00  0.00    +0.000 A 
ATOM      6  N   UNL     1       3.616   6.777  19.312  0.00  0.00    +0.000 NA
ATOM      7  N   UNL     1       4.061   5.488  19.130  0.00  0.00    +0.000 N 
ATOM      8  C   UNL     1       3.125   4.606  19.578  0.00  0.00    +0.000 A 
ATOM      9  C   UNL     1       2.072   5.315  20.068  0.00  0.00    +0.000 A 
ATOM     10  C   UNL     1       1.035   4.437  20.638  0.00  0.00    +0.000 C 
ATOM     11  C   UNL     1       1.825   3.087  20.780  0.00  0.00    +0.000 C 
ATOM     12  C   UNL     1       3.023   3.150  19.769  0.00  0.00    +0.000 C 
BRANCH   7  13
ATOM     13  C   UNL     1       5.284   5.212  18.464  0.00  0.00    +0.000 A 
ATOM     14  C   UNL     1       6.487   5.574  19.098  0.00  0.00    +0.000 A 
ATOM     15  C   UNL     1       7.715   5.232  18.532  0.00  0.00    +0.000 A 
ATOM     16  C   UNL     1       7.754   4.532  17.331  0.00  0.00    +0.000 A 
ATOM     17  C   UNL     1       6.567   4.206  16.675  0.00  0.00    +0.000 A 
ATOM     18  C   UNL     1       5.317   4.556  17.217  0.00  0.00    +0.000 A 
ATOM     19  C   UNL     1       4.089   4.325  16.374  0.00  0.00    +0.000 C 
ENDBRANCH   7  13
ENDBRANCH   2   5
BRANCH   1  24
ATOM     20  C   UNL     1      -1.169  11.227  18.413  0.00  0.00    +0.000 A 
ATOM     21  C   UNL     1      -0.803  12.311  19.224  0.00  0.00    +0.000 A 
ATOM     22  C   UNL     1       0.359  12.267  19.985  0.00  0.00    +0.000 A 
ATOM     23  C   UNL     1       1.158  11.123  19.966  0.00  0.00    +0.000 A 
ATOM     24  C   UNL     1       0.813  10.016  19.185  0.00  0.00    +0.000 A 
ATOM     25  C   UNL     1      -0.336  10.089  18.381  0.00  0.00    +0.000 A 
BRANCH  20  29
ATOM     26  C   UNL     1      -5.926  11.857  17.308  0.00  0.00    +0.000 C 
ATOM     27  C   UNL     1      -4.477  11.592  17.299  0.00  0.00    +0.000 A 
ATOM     28  N   UNL     1      -3.599  11.724  18.262  0.00  0.00    +0.000 NA
ATOM     29  C   UNL     1      -2.424  11.299  17.667  0.00  0.00    +0.000 A 
ATOM     30  N   UNL     1      -2.574  10.932  16.382  0.00  0.00    +0.000 NA
ATOM     31  O   UNL     1      -3.936  11.126  16.139  0.00  0.00    +0.000 OA
ENDBRANCH  20  29
ENDBRANCH   1  24
TORSDOF 4
ENDMDL
MODEL 8
REMARK VINA RESULT:      -8.9      2.646      3.195
REMARK  Name = 
REMARK  6 active torsions:
REMARK  status: ('A' for Active; 'I' for Inactive)
REMARK    1  A    between atoms: C_1  and  C_2
REMARK    2  A    between atoms: C_4  and  C_5
REMARK    3  A    between atoms: C_9  and  N_10
REMARK    4  A    between atoms: C_11  and  C_13
REMARK    5  A    between atoms: N_15  and  C_16
REMARK    6  A    between atoms: C_21  and  C_22
REMARK                            x       y       z     vdW  Elec       q    Type
REMARK                         _______ _______ _______ _____ _____    ______ ____
ROOT
ATOM      1  N   UNL     1       1.464   8.126  20.942  0.00  0.00    +0.000 N 
ATOM      2  C   UNL     1       1.795   7.933  19.607  0.00  0.00    +0.000 C 
ATOM      3  O   UNL     1       1.534   8.701  18.682  0.00  0.00    +0.000 OA
ATOM      4  H   UNL     1       1.869   7.438  21.573  0.00  0.00    +0.000 HD
ENDROOT
BRANCH   2   5
ATOM      5  C   UNL     1       2.580   6.712  19.360  0.00  0.00    +0.000 A 
ATOM      6  N   UNL     1       3.646   6.678  18.521  0.00  0.00    +0.000 NA
ATOM      7  N   UNL     1       4.076   5.372  18.517  0.00  0.00    +0.000 N 
ATOM      8  C   UNL     1       3.301   4.626  19.353  0.00  0.00    +0.000 A 
ATOM      9  C   UNL     1       2.373   5.445  19.918  0.00  0.00    +0.000 A 
ATOM     10  C   UNL     1       1.530   4.731  20.892  0.00  0.00    +0.000 C 
ATOM     11  C   UNL     1       2.374   3.427  21.126  0.00  0.00    +0.000 C 
ATOM     12  C   UNL     1       3.294   3.247  19.869  0.00  0.00    +0.000 C 
BRANCH   7  13
ATOM     13  C   UNL     1       5.114   4.935  17.653  0.00  0.00    +0.000 A 
ATOM     14  C   UNL     1       4.759   4.373  16.412  0.00  0.00    +0.000 A 
ATOM     15  C   UNL     1       5.742   4.024  15.486  0.00  0.00    +0.000 A 
ATOM     16  C   UNL     1       7.084   4.228  15.792  0.00  0.00    +0.000 A 
ATOM     17  C   UNL     1       7.446   4.744  17.035  0.00  0.00    +0.000 A 
ATOM     18  C   UNL     1       6.474   5.087  17.992  0.00  0.00    +0.000 A 
ATOM     19  C   UNL     1       6.940   5.476  19.371  0.00  0.00    +0.000 C 
ENDBRANCH   7  13
ENDBRANCH   2   5
BRANCH   1  24
ATOM     20  C   UNL     1       0.080  11.571  21.274  0.00  0.00    +0.000 A 
ATOM     21  C   UNL     1      -0.676  11.437  22.448  0.00  0.00    +0.000 A 
ATOM     22  C   UNL     1      -0.691  10.236  23.147  0.00  0.00    +0.000 A 
ATOM     23  C   UNL     1       0.029   9.142  22.666  0.00  0.00    +0.000 A 
ATOM     24  C   UNL     1       0.778   9.235  21.489  0.00  0.00    +0.000 A 
ATOM     25  C   UNL     1       0.828  10.467  20.816  0.00  0.00    +0.000 A 
BRANCH  20  29
ATOM     26  C   UNL     1       1.437  15.770  19.089  0.00  0.00    +0.000 C 
ATOM     27  C   UNL     1       0.712  14.612  19.640  0.00  0.00    +0.000 A 
ATOM     28  N   UNL     1       1.179  13.535  20.222  0.00  0.00    +0.000 NA
ATOM     29  C   UNL     1       0.029  12.838  20.546  0.00  0.00    +0.000 A 
ATOM     30  N   UNL     1      -1.101  13.457  20.164  0.00  0.00    +0.000 NA
ATOM     31  O   UNL     1      -0.648  14.635  19.565  0.00  0.00    +0.000 OA
ENDBRANCH  20  29
ENDBRANCH   1  24
TORSDOF 4
ENDMDL
MODEL 9
REMARK VINA RESULT:      -8.8      2.185      9.646
REMARK  Name = 
REMARK  6 active torsions:
REMARK  status: ('A' for Active; 'I' for Inactive)
REMARK    1  A    between atoms: C_1  and  C_2
REMARK    2  A    between atoms: C_4  and  C_5
REMARK    3  A    between atoms: C_9  and  N_10
REMARK    4  A    between atoms: C_11  and  C_13
REMARK    5  A    between atoms: N_15  and  C_16
REMARK    6  A    between atoms: C_21  and  C_22
REMARK                            x       y       z     vdW  Elec       q    Type
REMARK                         _______ _______ _______ _____ _____    ______ ____
ROOT
ATOM      1  N   UNL     1       1.573   8.328  18.687  0.00  0.00    +0.000 N 
ATOM      2  C   UNL     1       1.158   9.142  19.733  0.00  0.00    +0.000 C 
ATOM      3  O   UNL     1       1.499   9.034  20.909  0.00  0.00    +0.000 OA
ATOM      4  H   UNL     1       1.274   8.648  17.768  0.00  0.00    +0.000 HD
ENDROOT
BRANCH   2   5
ATOM      5  C   UNL     1       0.282  10.249  19.312  0.00  0.00    +0.000 A 
ATOM      6  N   UNL     1      -1.063  10.120  19.192  0.00  0.00    +0.000 NA
ATOM      7  N   UNL     1      -1.516  11.336  18.736  0.00  0.00    +0.000 N 
ATOM      8  C   UNL     1      -0.470  12.198  18.601  0.00  0.00    +0.000 A 
ATOM      9  C   UNL     1       0.666  11.554  18.982  0.00  0.00    +0.000 A 
ATOM     10  C   UNL     1       1.843  12.439  18.931  0.00  0.00    +0.000 C 
ATOM     11  C   UNL     1       1.159  13.849  18.845  0.00  0.00    +0.000 C 
ATOM     12  C   UNL     1      -0.286  13.624  18.279  0.00  0.00    +0.000 C 
BRANCH   7  13
ATOM     13  C   UNL     1      -2.876  11.537  18.382  0.00  0.00    +0.000 A 
ATOM     14  C   UNL     1      -3.746  12.077  19.347  0.00  0.00    +0.000 A 
ATOM     15  C   UNL     1      -5.064  12.389  19.015  0.00  0.00    +0.000 A 
ATOM     16  C   UNL     1      -5.525  12.160  17.723  0.00  0.00    +0.000 A 
ATOM     17  C   UNL     1      -4.683  11.585  16.772  0.00  0.00    +0.000 A 
ATOM     18  C   UNL     1      -3.354  11.246  17.088  0.00  0.00    +0.000 A 
ATOM     19  C   UNL     1      -2.557  10.475  16.068  0.00  0.00    +0.000 C 
ENDBRANCH   7  13
ENDBRANCH   2   5
BRANCH   1  24
ATOM     20  C   UNL     1       4.420   6.060  17.885  0.00  0.00    +0.000 A 
ATOM     21  C   UNL     1       4.353   5.165  18.962  0.00  0.00    +0.000 A 
ATOM     22  C   UNL     1       3.349   5.280  19.918  0.00  0.00    +0.000 A 
ATOM     23  C   UNL     1       2.415   6.312  19.823  0.00  0.00    +0.000 A 
ATOM     24  C   UNL     1       2.465   7.234  18.773  0.00  0.00    +0.000 A 
ATOM     25  C   UNL     1       3.451   7.080  17.785  0.00  0.00    +0.000 A 
BRANCH  20  29
ATOM     26  C   UNL     1       7.061   4.755  13.939  0.00  0.00    +0.000 C 
ATOM     27  C   UNL     1       6.563   5.314  15.208  0.00  0.00    +0.000 A 
ATOM     28  N   UNL     1       5.365   5.255  15.733  0.00  0.00    +0.000 NA
ATOM     29  C   UNL     1       5.520   5.930  16.930  0.00  0.00    +0.000 A 
ATOM     30  N   UNL     1       6.764   6.398  17.127  0.00  0.00    +0.000 NA
ATOM     31  O   UNL     1       7.457   5.988  15.984  0.00  0.00    +0.000 OA
ENDBRANCH  20  29
ENDBRANCH   1  24
TORSDOF 4
ENDMDL
