MODEL 1
REMARK VINA RESULT:      -8.4      0.000      0.000
REMARK  Name = 
REMARK  3 active torsions:
REMARK  status: ('A' for Active; 'I' for Inactive)
REMARK    1  A    between atoms: C_2  and  C_14
REMARK    2  A    between atoms: N_3  and  C_4
REMARK    3  A    between atoms: C_16  and  C_17
REMARK                            x       y       z     vdW  Elec       q    Type
REMARK                         _______ _______ _______ _____ _____    ______ ____
ROOT
ATOM      1  O   UNL     1       3.891   5.991  19.564  0.00  0.00    +0.000 OA
ATOM      2  C   UNL     1       3.702   6.212  18.368  0.00  0.00    +0.000 C 
ATOM      3  N   UNL     1       2.823   7.174  17.888  0.00  0.00    +0.000 N 
ATOM      4  H   UNL     1       2.603   7.150  16.899  0.00  0.00    +0.000 HD
ENDROOT
BRANCH   3   5
ATOM      5  C   UNL     1       2.115   8.085  18.714  0.00  0.00    +0.000 A 
ATOM      6  C   UNL     1       1.608   9.306  18.201  0.00  0.00    +0.000 A 
ATOM      7  C   UNL     1       0.932  10.232  19.001  0.00  0.00    +0.000 A 
ATOM      8  C   UNL     1       0.765   9.905  20.318  0.00  0.00    +0.000 A 
ATOM      9  O   UNL     1       0.130  10.689  21.264  0.00  0.00    +0.000 OA
ATOM     10  C   UNL     1       0.241   9.902  22.414  0.00  0.00    +0.000 A 
ATOM     11  O   UNL     1      -0.198  10.228  23.505  0.00  0.00    +0.000 OA
ATOM     12  N   UNL     1       0.905   8.723  22.152  0.00  0.00    +0.000 N 
ATOM     13  C   UNL     1       1.238   8.714  20.827  0.00  0.00    +0.000 A 
ATOM     14  C   UNL     1       1.906   7.773  20.064  0.00  0.00    +0.000 A 
ATOM     15  H   UNL     1       1.089   8.025  22.851  0.00  0.00    +0.000 HD
ENDBRANCH   3   5
BRANCH   2  16
ATOM     16  C   UNL     1       4.385   5.395  17.407  0.00  0.00    +0.000 A 
ATOM     17  C   UNL     1       4.922   5.775  16.204  0.00  0.00    +0.000 A 
ATOM     18  C   UNL     1       5.407   4.590  15.620  0.00  0.00    +0.000 A 
ATOM     19  N   UNL     1       5.201   3.549  16.450  0.00  0.00    +0.000 NA
ATOM     20  O   UNL     1       4.555   4.061  17.568  0.00  0.00    +0.000 OA
BRANCH  18  21
ATOM     21  C   UNL     1       6.066   4.459  14.324  0.00  0.00    +0.000 A 
ATOM     22  C   UNL     1       5.568   3.570  13.367  0.00  0.00    +0.000 A 
ATOM     23  C   UNL     1       6.213   3.417  12.137  0.00  0.00    +0.000 A 
ATOM     24  C   UNL     1       7.358   4.157  11.850  0.00  0.00    +0.000 A 
ATOM     25  C   UNL     1       7.867   5.048  12.792  0.00  0.00    +0.000 A 
ATOM     26  C   UNL     1       7.226   5.200  14.025  0.00  0.00    +0.000 A 
ENDBRANCH  18  21
ENDBRANCH   2  16
TORSDOF 3
ENDMDL
MODEL 2
REMARK VINA RESULT:      -8.4      2.334      9.709
REMARK  Name = 
REMARK  3 active torsions:
REMARK  status: ('A' for Active; 'I' for Inactive)
REMARK    1  A    between atoms: C_2  and  C_14
REMARK    2  A    between atoms: N_3  and  C_4
REMARK    3  A    between atoms: C_16  and  C_17
REMARK                            x       y       z     vdW  Elec       q    Type
REMARK                         _______ _______ _______ _____ _____    ______ ____
ROOT
ATOM      1  O   UNL     1       2.155   8.527  17.645  0.00  0.00    +0.000 OA
ATOM      2  C   UNL     1       2.147   7.981  18.748  0.00  0.00    +0.000 C 
ATOM      3  N   UNL     1       2.760   6.764  19.014  0.00  0.00    +0.000 N 
ATOM      4  H   UNL     1       2.539   6.316  19.896  0.00  0.00    +0.000 HD
ENDROOT
BRANCH   3   5
ATOM      5  C   UNL     1       3.553   6.053  18.077  0.00  0.00    +0.000 A 
ATOM      6  C   UNL     1       3.280   4.699  17.753  0.00  0.00    +0.000 A 
ATOM      7  C   UNL     1       4.064   3.971  16.854  0.00  0.00    +0.000 A 
ATOM      8  C   UNL     1       5.117   4.627  16.280  0.00  0.00    +0.000 A 
ATOM      9  O   UNL     1       6.006   4.077  15.374  0.00  0.00    +0.000 OA
ATOM     10  C   UNL     1       6.861   5.153  15.118  0.00  0.00    +0.000 A 
ATOM     11  O   UNL     1       7.811   5.098  14.354  0.00  0.00    +0.000 OA
ATOM     12  N   UNL     1       6.490   6.270  15.836  0.00  0.00    +0.000 N 
ATOM     13  C   UNL     1       5.385   5.948  16.572  0.00  0.00    +0.000 A 
ATOM     14  C   UNL     1       4.627   6.700  17.451  0.00  0.00    +0.000 A 
ATOM     15  H   UNL     1       6.982   7.144  15.792  0.00  0.00    +0.000 HD
ENDBRANCH   3   5
BRANCH   2  16
ATOM     16  C   UNL     1       1.418   8.606  19.814  0.00  0.00    +0.000 A 
ATOM     17  C   UNL     1       0.549   9.665  19.735  0.00  0.00    +0.000 A 
ATOM     18  C   UNL     1       0.166   9.933  21.062  0.00  0.00    +0.000 A 
ATOM     19  N   UNL     1       0.751   9.052  21.898  0.00  0.00    +0.000 NA
ATOM     20  O   UNL     1       1.538   8.225  21.108  0.00  0.00    +0.000 OA
BRANCH  18  21
ATOM     21  C   UNL     1      -0.747  10.979  21.515  0.00  0.00    +0.000 A 
ATOM     22  C   UNL     1      -1.090  11.077  22.867  0.00  0.00    +0.000 A 
ATOM     23  C   UNL     1      -1.987  12.056  23.302  0.00  0.00    +0.000 A 
ATOM     24  C   UNL     1      -2.545  12.949  22.389  0.00  0.00    +0.000 A 
ATOM     25  C   UNL     1      -2.214  12.864  21.039  0.00  0.00    +0.000 A 
ATOM     26  C   UNL     1      -1.319  11.884  20.601  0.00  0.00    +0.000 A 
ENDBRANCH  18  21
ENDBRANCH   2  16
TORSDOF 3
ENDMDL
MODEL 3
REMARK VINA RESULT:      -8.3      0.179      1.002
REMARK  Name = 
REMARK  3 active torsions:
REMARK  status: ('A' for Active; 'I' for Inactive)
REMARK    1  A    between atoms: C_2  and  C_14
REMARK    2  A    between atoms: N_3  and  C_4
REMARK    3  A    between atoms: C_16  and  C_17
REMARK                            x       y       z     vdW  Elec       q    Type
REMARK                         _______ _______ _______ _____ _____    ______ ____
ROOT
ATOM      1  O   UNL     1       3.350   5.619  19.501  0.00  0.00    +0.000 OA
ATOM      2  C   UNL     1       3.490   6.046  18.355  0.00  0.00    +0.000 C 
ATOM      3  N   UNL     1       2.895   7.209  17.884  0.00  0.00    +0.000 N 
ATOM      4  H   UNL     1       2.921   7.372  16.884  0.00  0.00    +0.000 HD
ENDROOT
BRANCH   3   5
ATOM      5  C   UNL     1       2.140   8.098  18.692  0.00  0.00    +0.000 A 
ATOM      6  C   UNL     1       1.534   9.258  18.147  0.00  0.00    +0.000 A 
ATOM      7  C   UNL     1       0.809  10.162  18.929  0.00  0.00    +0.000 A 
ATOM      8  C   UNL     1       0.695   9.876  20.260  0.00  0.00    +0.000 A 
ATOM      9  O   UNL     1       0.024  10.647  21.192  0.00  0.00    +0.000 OA
ATOM     10  C   UNL     1       0.218   9.916  22.367  0.00  0.00    +0.000 A 
ATOM     11  O   UNL     1      -0.221  10.251  23.455  0.00  0.00    +0.000 OA
ATOM     12  N   UNL     1       0.960   8.779  22.133  0.00  0.00    +0.000 N 
ATOM     13  C   UNL     1       1.265   8.742  20.802  0.00  0.00    +0.000 A 
ATOM     14  C   UNL     1       1.983   7.824  20.058  0.00  0.00    +0.000 A 
ATOM     15  H   UNL     1       1.211   8.124  22.852  0.00  0.00    +0.000 HD
ENDBRANCH   3   5
BRANCH   2  16
ATOM     16  C   UNL     1       4.267   5.273  17.429  0.00  0.00    +0.000 A 
ATOM     17  C   UNL     1       4.781   5.669  16.221  0.00  0.00    +0.000 A 
ATOM     18  C   UNL     1       5.393   4.522  15.681  0.00  0.00    +0.000 A 
ATOM     19  N   UNL     1       5.281   3.492  16.542  0.00  0.00    +0.000 NA
ATOM     20  O   UNL     1       4.570   3.969  17.636  0.00  0.00    +0.000 OA
BRANCH  18  21
ATOM     21  C   UNL     1       6.080   4.419  14.397  0.00  0.00    +0.000 A 
ATOM     22  C   UNL     1       7.212   5.200  14.140  0.00  0.00    +0.000 A 
ATOM     23  C   UNL     1       7.855   5.129  12.901  0.00  0.00    +0.000 A 
ATOM     24  C   UNL     1       7.376   4.273  11.912  0.00  0.00    +0.000 A 
ATOM     25  C   UNL     1       6.251   3.488  12.153  0.00  0.00    +0.000 A 
ATOM     26  C   UNL     1       5.603   3.560  13.389  0.00  0.00    +0.000 A 
ENDBRANCH  18  21
ENDBRANCH   2  16
TORSDOF 3
ENDMDL
MODEL 4
REMARK VINA RESULT:      -8.3      6.580      7.990
REMARK  Name = 
REMARK  3 active torsions:
REMARK  status: ('A' for Active; 'I' for Inactive)
REMARK    1  A    between atoms: C_2  and  C_14
REMARK    2  A    between atoms: N_3  and  C_4
REMARK    3  A    between atoms: C_16  and  C_17
REMARK                            x       y       z     vdW  Elec       q    Type
REMARK                         _______ _______ _______ _____ _____    ______ ____
ROOT
ATOM      1  O   UNL     1       7.697   8.925  17.086  0.00  0.00    +0.000 OA
ATOM      2  C   UNL     1       7.980   8.305  18.111  0.00  0.00    +0.000 C 
ATOM      3  N   UNL     1       8.837   8.784  19.092  0.00  0.00    +0.000 N 
ATOM      4  H   UNL     1       9.147   8.127  19.798  0.00  0.00    +0.000 HD
ENDROOT
BRANCH   3   5
ATOM      5  C   UNL     1       9.407  10.083  19.085  0.00  0.00    +0.000 A 
ATOM      6  C   UNL     1       9.404  10.899  20.244  0.00  0.00    +0.000 A 
ATOM      7  C   UNL     1       9.935  12.192  20.252  0.00  0.00    +0.000 A 
ATOM      8  C   UNL     1      10.477  12.645  19.083  0.00  0.00    +0.000 A 
ATOM      9  O   UNL     1      11.045  13.891  18.892  0.00  0.00    +0.000 OA
ATOM     10  C   UNL     1      11.428  13.833  17.549  0.00  0.00    +0.000 A 
ATOM     11  O   UNL     1      11.981  14.748  16.960  0.00  0.00    +0.000 OA
ATOM     12  N   UNL     1      11.103  12.617  16.987  0.00  0.00    +0.000 N 
ATOM     13  C   UNL     1      10.503  11.856  17.951  0.00  0.00    +0.000 A 
ATOM     14  C   UNL     1       9.993  10.571  17.908  0.00  0.00    +0.000 A 
ATOM     15  H   UNL     1      11.292  12.382  16.030  0.00  0.00    +0.000 HD
ENDBRANCH   3   5
BRANCH   2  16
ATOM     16  C   UNL     1       7.441   6.987  18.281  0.00  0.00    +0.000 A 
ATOM     17  C   UNL     1       6.198   6.530  17.926  0.00  0.00    +0.000 A 
ATOM     18  C   UNL     1       6.147   5.197  18.375  0.00  0.00    +0.000 A 
ATOM     19  N   UNL     1       7.321   4.857  18.945  0.00  0.00    +0.000 NA
ATOM     20  O   UNL     1       8.127   5.987  18.886  0.00  0.00    +0.000 OA
BRANCH  18  21
ATOM     21  C   UNL     1       5.026   4.272  18.245  0.00  0.00    +0.000 A 
ATOM     22  C   UNL     1       4.765   3.334  19.249  0.00  0.00    +0.000 A 
ATOM     23  C   UNL     1       3.713   2.425  19.115  0.00  0.00    +0.000 A 
ATOM     24  C   UNL     1       2.908   2.449  17.978  0.00  0.00    +0.000 A 
ATOM     25  C   UNL     1       3.153   3.376  16.969  0.00  0.00    +0.000 A 
ATOM     26  C   UNL     1       4.208   4.284  17.098  0.00  0.00    +0.000 A 
ENDBRANCH  18  21
ENDBRANCH   2  16
TORSDOF 3
ENDMDL
MODEL 5
REMARK VINA RESULT:      -8.2      3.731     10.275
REMARK  Name = 
REMARK  3 active torsions:
REMARK  status: ('A' for Active; 'I' for Inactive)
REMARK    1  A    between atoms: C_2  and  C_14
REMARK    2  A    between atoms: N_3  and  C_4
REMARK    3  A    between atoms: C_16  and  C_17
REMARK                            x       y       z     vdW  Elec       q    Type
REMARK                         _______ _______ _______ _____ _____    ______ ____
ROOT
ATOM      1  O   UNL     1       1.414   8.832  19.483  0.00  0.00    +0.000 OA
ATOM      2  C   UNL     1       1.199   8.399  20.615  0.00  0.00    +0.000 C 
ATOM      3  N   UNL     1       1.488   7.102  21.016  0.00  0.00    +0.000 N 
ATOM      4  H   UNL     1       1.106   6.794  21.902  0.00  0.00    +0.000 HD
ENDROOT
BRANCH   3   5
ATOM      5  C   UNL     1       2.159   6.151  20.204  0.00  0.00    +0.000 A 
ATOM      6  C   UNL     1       2.935   6.549  19.086  0.00  0.00    +0.000 A 
ATOM      7  C   UNL     1       3.582   5.628  18.257  0.00  0.00    +0.000 A 
ATOM      8  C   UNL     1       3.446   4.307  18.576  0.00  0.00    +0.000 A 
ATOM      9  O   UNL     1       4.004   3.252  17.878  0.00  0.00    +0.000 OA
ATOM     10  C   UNL     1       3.558   2.149  18.613  0.00  0.00    +0.000 A 
ATOM     11  O   UNL     1       3.829   0.993  18.334  0.00  0.00    +0.000 OA
ATOM     12  N   UNL     1       2.783   2.541  19.683  0.00  0.00    +0.000 N 
ATOM     13  C   UNL     1       2.708   3.905  19.671  0.00  0.00    +0.000 A 
ATOM     14  C   UNL     1       2.060   4.788  20.516  0.00  0.00    +0.000 A 
ATOM     15  H   UNL     1       2.366   1.895  20.329  0.00  0.00    +0.000 HD
ENDBRANCH   3   5
BRANCH   2  16
ATOM     16  C   UNL     1       0.560   9.264  21.566  0.00  0.00    +0.000 A 
ATOM     17  C   UNL     1      -0.230  10.356  21.316  0.00  0.00    +0.000 A 
ATOM     18  C   UNL     1      -0.540  10.890  22.581  0.00  0.00    +0.000 A 
ATOM     19  N   UNL     1       0.011  10.132  23.549  0.00  0.00    +0.000 NA
ATOM     20  O   UNL     1       0.704   9.115  22.904  0.00  0.00    +0.000 OA
BRANCH  18  21
ATOM     21  C   UNL     1      -1.354  12.070  22.857  0.00  0.00    +0.000 A 
ATOM     22  C   UNL     1      -0.819  13.351  22.687  0.00  0.00    +0.000 A 
ATOM     23  C   UNL     1      -1.582  14.483  22.980  0.00  0.00    +0.000 A 
ATOM     24  C   UNL     1      -2.890  14.346  23.440  0.00  0.00    +0.000 A 
ATOM     25  C   UNL     1      -3.438  13.078  23.615  0.00  0.00    +0.000 A 
ATOM     26  C   UNL     1      -2.676  11.943  23.327  0.00  0.00    +0.000 A 
ENDBRANCH  18  21
ENDBRANCH   2  16
TORSDOF 3
ENDMDL
MODEL 6
REMARK VINA RESULT:      -8.1      6.512      7.755
REMARK  Name = 
REMARK  3 active torsions:
REMARK  status: ('A' for Active; 'I' for Inactive)
REMARK    1  A    between atoms: C_2  and  C_14
REMARK    2  A    between atoms: N_3  and  C_4
REMARK    3  A    between atoms: C_16  and  C_17
REMARK                            x       y       z     vdW  Elec       q    Type
REMARK                         _______ _______ _______ _____ _____    ______ ____
ROOT
ATOM      1  O   UNL     1       8.182   8.695  16.963  0.00  0.00    +0.000 OA
ATOM      2  C   UNL     1       8.160   8.243  18.107  0.00  0.00    +0.000 C 
ATOM      3  N   UNL     1       8.721   8.883  19.204  0.00  0.00    +0.000 N 
ATOM      4  H   UNL     1       8.813   8.346  20.058  0.00  0.00    +0.000 HD
ENDROOT
BRANCH   3   5
ATOM      5  C   UNL     1       9.295  10.180  19.159  0.00  0.00    +0.000 A 
ATOM      6  C   UNL     1      10.148  10.647  20.191  0.00  0.00    +0.000 A 
ATOM      7  C   UNL     1      10.702  11.930  20.181  0.00  0.00    +0.000 A 
ATOM      8  C   UNL     1      10.395  12.729  19.115  0.00  0.00    +0.000 A 
ATOM      9  O   UNL     1      10.840  14.024  18.929  0.00  0.00    +0.000 OA
ATOM     10  C   UNL     1      10.240  14.366  17.714  0.00  0.00    +0.000 A 
ATOM     11  O   UNL     1      10.376  15.450  17.171  0.00  0.00    +0.000 OA
ATOM     12  N   UNL     1       9.487  13.324  17.217  0.00  0.00    +0.000 N 
ATOM     13  C   UNL     1       9.580  12.282  18.095  0.00  0.00    +0.000 A 
ATOM     14  C   UNL     1       9.020  11.018  18.069  0.00  0.00    +0.000 A 
ATOM     15  H   UNL     1       8.973  13.375  16.355  0.00  0.00    +0.000 HD
ENDBRANCH   3   5
BRANCH   2  16
ATOM     16  C   UNL     1       7.571   6.952  18.319  0.00  0.00    +0.000 A 
ATOM     17  C   UNL     1       6.356   6.495  17.876  0.00  0.00    +0.000 A 
ATOM     18  C   UNL     1       6.226   5.200  18.413  0.00  0.00    +0.000 A 
ATOM     19  N   UNL     1       7.329   4.880  19.118  0.00  0.00    +0.000 NA
ATOM     20  O   UNL     1       8.168   5.986  19.058  0.00  0.00    +0.000 OA
BRANCH  18  21
ATOM     21  C   UNL     1       5.097   4.291  18.240  0.00  0.00    +0.000 A 
ATOM     22  C   UNL     1       4.318   4.348  17.080  0.00  0.00    +0.000 A 
ATOM     23  C   UNL     1       3.217   3.502  16.923  0.00  0.00    +0.000 A 
ATOM     24  C   UNL     1       2.889   2.587  17.921  0.00  0.00    +0.000 A 
ATOM     25  C   UNL     1       3.655   2.518  19.083  0.00  0.00    +0.000 A 
ATOM     26  C   UNL     1       4.754   3.365  19.245  0.00  0.00    +0.000 A 
ENDBRANCH  18  21
ENDBRANCH   2  16
TORSDOF 3
ENDMDL
MODEL 7
REMARK VINA RESULT:      -8.1      6.137      8.415
REMARK  Name = 
REMARK  3 active torsions:
REMARK  status: ('A' for Active; 'I' for Inactive)
REMARK    1  A    between atoms: C_2  and  C_14
REMARK    2  A    between atoms: N_3  and  C_4
REMARK    3  A    between atoms: C_16  and  C_17
REMARK                            x       y       z     vdW  Elec       q    Type
REMARK                         _______ _______ _______ _____ _____    ______ ____
ROOT
ATOM      1  O   UNL     1       8.537   7.135  18.991  0.00  0.00    +0.000 OA
ATOM      2  C   UNL     1       8.132   8.103  18.348  0.00  0.00    +0.000 C 
ATOM      3  N   UNL     1       7.160   8.025  17.360  0.00  0.00    +0.000 N 
ATOM      4  H   UNL     1       7.033   8.838  16.769  0.00  0.00    +0.000 HD
ENDROOT
BRANCH   3   5
ATOM      5  C   UNL     1       6.443   6.842  17.044  0.00  0.00    +0.000 A 
ATOM      6  C   UNL     1       6.942   5.904  16.106  0.00  0.00    +0.000 A 
ATOM      7  C   UNL     1       6.240   4.746  15.758  0.00  0.00    +0.000 A 
ATOM      8  C   UNL     1       5.037   4.544  16.374  0.00  0.00    +0.000 A 
ATOM      9  O   UNL     1       4.198   3.465  16.161  0.00  0.00    +0.000 OA
ATOM     10  C   UNL     1       3.135   3.751  17.021  0.00  0.00    +0.000 A 
ATOM     11  O   UNL     1       2.152   3.037  17.147  0.00  0.00    +0.000 OA
ATOM     12  N   UNL     1       3.343   4.931  17.701  0.00  0.00    +0.000 N 
ATOM     13  C   UNL     1       4.546   5.439  17.302  0.00  0.00    +0.000 A 
ATOM     14  C   UNL     1       5.216   6.591  17.674  0.00  0.00    +0.000 A 
ATOM     15  H   UNL     1       2.690   5.310  18.364  0.00  0.00    +0.000 HD
ENDBRANCH   3   5
BRANCH   2  16
ATOM     16  C   UNL     1       8.736   9.382  18.589  0.00  0.00    +0.000 A 
ATOM     17  C   UNL     1       8.888  10.424  17.710  0.00  0.00    +0.000 A 
ATOM     18  C   UNL     1       9.602  11.409  18.418  0.00  0.00    +0.000 A 
ATOM     19  N   UNL     1       9.839  10.991  19.677  0.00  0.00    +0.000 NA
ATOM     20  O   UNL     1       9.296   9.716  19.776  0.00  0.00    +0.000 OA
BRANCH  18  21
ATOM     21  C   UNL     1      10.024  12.714  17.917  0.00  0.00    +0.000 A 
ATOM     22  C   UNL     1      11.171  12.827  17.125  0.00  0.00    +0.000 A 
ATOM     23  C   UNL     1      11.597  14.077  16.670  0.00  0.00    +0.000 A 
ATOM     24  C   UNL     1      10.877  15.224  16.996  0.00  0.00    +0.000 A 
ATOM     25  C   UNL     1       9.732  15.129  17.784  0.00  0.00    +0.000 A 
ATOM     26  C   UNL     1       9.306  13.880  18.245  0.00  0.00    +0.000 A 
ENDBRANCH  18  21
ENDBRANCH   2  16
TORSDOF 3
ENDMDL
MODEL 8
REMARK VINA RESULT:      -8.1      6.101      7.485
REMARK  Name = 
REMARK  3 active torsions:
REMARK  status: ('A' for Active; 'I' for Inactive)
REMARK    1  A    between atoms: C_2  and  C_14
REMARK    2  A    between atoms: N_3  and  C_4
REMARK    3  A    between atoms: C_16  and  C_17
REMARK                            x       y       z     vdW  Elec       q    Type
REMARK                         _______ _______ _______ _____ _____    ______ ____
ROOT
ATOM      1  O   UNL     1       8.607   7.367  18.732  0.00  0.00    +0.000 OA
ATOM      2  C   UNL     1       7.686   7.785  18.029  0.00  0.00    +0.000 C 
ATOM      3  N   UNL     1       7.489   9.125  17.729  0.00  0.00    +0.000 N 
ATOM      4  H   UNL     1       6.606   9.381  17.302  0.00  0.00    +0.000 HD
ENDROOT
BRANCH   3   5
ATOM      5  C   UNL     1       8.379  10.164  18.107  0.00  0.00    +0.000 A 
ATOM      6  C   UNL     1       9.315   9.989  19.158  0.00  0.00    +0.000 A 
ATOM      7  C   UNL     1      10.182  11.006  19.566  0.00  0.00    +0.000 A 
ATOM      8  C   UNL     1      10.101  12.194  18.895  0.00  0.00    +0.000 A 
ATOM      9  O   UNL     1      10.868  13.315  19.154  0.00  0.00    +0.000 OA
ATOM     10  C   UNL     1      10.387  14.221  18.204  0.00  0.00    +0.000 A 
ATOM     11  O   UNL     1      10.804  15.362  18.082  0.00  0.00    +0.000 OA
ATOM     12  N   UNL     1       9.395  13.657  17.432  0.00  0.00    +0.000 N 
ATOM     13  C   UNL     1       9.208  12.374  17.859  0.00  0.00    +0.000 A 
ATOM     14  C   UNL     1       8.339  11.388  17.425  0.00  0.00    +0.000 A 
ATOM     15  H   UNL     1       8.920  14.150  16.696  0.00  0.00    +0.000 HD
ENDBRANCH   3   5
BRANCH   2  16
ATOM     16  C   UNL     1       6.724   6.842  17.534  0.00  0.00    +0.000 A 
ATOM     17  C   UNL     1       5.692   6.251  18.217  0.00  0.00    +0.000 A 
ATOM     18  C   UNL     1       5.100   5.361  17.301  0.00  0.00    +0.000 A 
ATOM     19  N   UNL     1       5.728   5.438  16.111  0.00  0.00    +0.000 NA
ATOM     20  O   UNL     1       6.749   6.368  16.266  0.00  0.00    +0.000 OA
BRANCH  18  21
ATOM     21  C   UNL     1       3.960   4.483  17.547  0.00  0.00    +0.000 A 
ATOM     22  C   UNL     1       4.123   3.094  17.525  0.00  0.00    +0.000 A 
ATOM     23  C   UNL     1       3.029   2.249  17.728  0.00  0.00    +0.000 A 
ATOM     24  C   UNL     1       1.764   2.784  17.961  0.00  0.00    +0.000 A 
ATOM     25  C   UNL     1       1.585   4.165  17.987  0.00  0.00    +0.000 A 
ATOM     26  C   UNL     1       2.676   5.013  17.780  0.00  0.00    +0.000 A 
ENDBRANCH  18  21
ENDBRANCH   2  16
TORSDOF 3
ENDMDL
MODEL 9
REMARK VINA RESULT:      -8.1      5.462      7.641
REMARK  Name = 
REMARK  3 active torsions:
REMARK  status: ('A' for Active; 'I' for Inactive)
REMARK    1  A    between atoms: C_2  and  C_14
REMARK    2  A    between atoms: N_3  and  C_4
REMARK    3  A    between atoms: C_16  and  C_17
REMARK                            x       y       z     vdW  Elec       q    Type
REMARK                         _______ _______ _______ _____ _____    ______ ____
ROOT
ATOM      1  O   UNL     1       7.626   5.878  17.559  0.00  0.00    +0.000 OA
ATOM      2  C   UNL     1       6.919   6.881  17.663  0.00  0.00    +0.000 C 
ATOM      3  N   UNL     1       5.532   6.856  17.639  0.00  0.00    +0.000 N 
ATOM      4  H   UNL     1       5.053   7.744  17.545  0.00  0.00    +0.000 HD
ENDROOT
BRANCH   3   5
ATOM      5  C   UNL     1       4.759   5.666  17.597  0.00  0.00    +0.000 A 
ATOM      6  C   UNL     1       5.135   4.569  16.782  0.00  0.00    +0.000 A 
ATOM      7  C   UNL     1       4.375   3.399  16.703  0.00  0.00    +0.000 A 
ATOM      8  C   UNL     1       3.241   3.346  17.464  0.00  0.00    +0.000 A 
ATOM      9  O   UNL     1       2.361   2.281  17.518  0.00  0.00    +0.000 OA
ATOM     10  C   UNL     1       1.401   2.743  18.423  0.00  0.00    +0.000 A 
ATOM     11  O   UNL     1       0.423   2.098  18.764  0.00  0.00    +0.000 OA
ATOM     12  N   UNL     1       1.707   4.009  18.874  0.00  0.00    +0.000 N 
ATOM     13  C   UNL     1       2.871   4.399  18.275  0.00  0.00    +0.000 A 
ATOM     14  C   UNL     1       3.602   5.568  18.382  0.00  0.00    +0.000 A 
ATOM     15  H   UNL     1       1.137   4.516  19.528  0.00  0.00    +0.000 HD
ENDBRANCH   3   5
BRANCH   2  16
ATOM     16  C   UNL     1       7.561   8.161  17.757  0.00  0.00    +0.000 A 
ATOM     17  C   UNL     1       8.613   8.521  18.561  0.00  0.00    +0.000 A 
ATOM     18  C   UNL     1       8.809   9.894  18.326  0.00  0.00    +0.000 A 
ATOM     19  N   UNL     1       7.937  10.333  17.397  0.00  0.00    +0.000 NA
ATOM     20  O   UNL     1       7.154   9.240  17.048  0.00  0.00    +0.000 OA
BRANCH  18  21
ATOM     21  C   UNL     1       9.810  10.754  18.950  0.00  0.00    +0.000 A 
ATOM     22  C   UNL     1      10.940  11.157  18.231  0.00  0.00    +0.000 A 
ATOM     23  C   UNL     1      11.918  11.953  18.834  0.00  0.00    +0.000 A 
ATOM     24  C   UNL     1      11.771  12.359  20.158  0.00  0.00    +0.000 A 
ATOM     25  C   UNL     1      10.652  11.968  20.888  0.00  0.00    +0.000 A 
ATOM     26  C   UNL     1       9.674  11.168  20.290  0.00  0.00    +0.000 A 
ENDBRANCH  18  21
ENDBRANCH   2  16
TORSDOF 3
ENDMDL
