MODEL 1
REMARK VINA RESULT:      -8.7      0.000      0.000
REMARK  Name = 
REMARK  2 active torsions:
REMARK  status: ('A' for Active; 'I' for Inactive)
REMARK    1  A    between atoms: C_2  and  C_18
REMARK    2  A    between atoms: C_6  and  C_7
REMARK                            x       y       z     vdW  Elec       q    Type
REMARK                         _______ _______ _______ _____ _____    ______ ____
ROOT
ATOM      1  O   UNL     1       2.018   9.123  19.428  0.00  0.00    +0.000 OA
ATOM      2  C   UNL     1       1.433   8.599  20.370  0.00  0.00    +0.000 C 
ATOM      3  N   UNL     1       1.561   7.296  20.793  0.00  0.00    +0.000 N 
ATOM      4  C   UNL     1       2.364   6.402  20.144  0.00  0.00    +0.000 A 
ATOM      5  N   UNL     1       3.210   6.606  19.171  0.00  0.00    +0.000 NA
ATOM      6  C   UNL     1       3.780   5.408  18.781  0.00  0.00    +0.000 A 
ATOM      7  C   UNL     1       3.313   4.301  19.468  0.00  0.00    +0.000 A 
ATOM      8  S   UNL     1       2.202   4.793  20.684  0.00  0.00    +0.000 S 
ATOM      9  H   UNL     1       0.992   6.930  21.543  0.00  0.00    +0.000 HD
ENDROOT
BRANCH   6  10
ATOM     10  C   UNL     1       4.775   5.369  17.715  0.00  0.00    +0.000 A 
ATOM     11  C   UNL     1       6.058   5.917  17.951  0.00  0.00    +0.000 A 
ATOM     12  C   UNL     1       7.051   5.893  16.966  0.00  0.00    +0.000 A 
ATOM     13  C   UNL     1       6.745   5.298  15.762  0.00  0.00    +0.000 A 
ATOM     14  C   UNL     1       5.497   4.750  15.512  0.00  0.00    +0.000 A 
ATOM     15  C   UNL     1       4.497   4.780  16.471  0.00  0.00    +0.000 A 
ATOM     16  C   UNL     1       5.456   4.243  14.125  0.00  0.00    +0.000 C 
ATOM     17  C   UNL     1       6.952   4.261  13.816  0.00  0.00    +0.000 C 
ATOM     18  O   UNL     1       7.610   5.196  14.704  0.00  0.00    +0.000 OA
ENDBRANCH   6  10
BRANCH   2  19
ATOM     19  C   UNL     1       0.474   9.439  21.138  0.00  0.00    +0.000 A 
ATOM     20  C   UNL     1       0.328   9.195  22.512  0.00  0.00    +0.000 A 
ATOM     21  C   UNL     1      -0.531   9.980  23.282  0.00  0.00    +0.000 A 
ATOM     22  C   UNL     1      -1.243  11.024  22.690  0.00  0.00    +0.000 A 
ATOM     23  C   UNL     1      -1.105  11.274  21.325  0.00  0.00    +0.000 A 
ATOM     24  C   UNL     1      -0.254  10.479  20.560  0.00  0.00    +0.000 A 
ATOM     25  F   UNL     1      -0.148  10.749  19.248  0.00  0.00    +0.000 F 
ENDBRANCH   2  19
TORSDOF 2
ENDMDL
MODEL 2
REMARK VINA RESULT:      -8.3      1.090      1.404
REMARK  Name = 
REMARK  2 active torsions:
REMARK  status: ('A' for Active; 'I' for Inactive)
REMARK    1  A    between atoms: C_2  and  C_18
REMARK    2  A    between atoms: C_6  and  C_7
REMARK                            x       y       z     vdW  Elec       q    Type
REMARK                         _______ _______ _______ _____ _____    ______ ____
ROOT
ATOM      1  O   UNL     1       2.378   8.443  18.370  0.00  0.00    +0.000 OA
ATOM      2  C   UNL     1       2.045   7.969  19.451  0.00  0.00    +0.000 C 
ATOM      3  N   UNL     1       2.407   6.742  19.955  0.00  0.00    +0.000 N 
ATOM      4  C   UNL     1       3.181   5.870  19.245  0.00  0.00    +0.000 A 
ATOM      5  N   UNL     1       3.803   6.051  18.111  0.00  0.00    +0.000 NA
ATOM      6  C   UNL     1       4.435   4.882  17.727  0.00  0.00    +0.000 A 
ATOM      7  C   UNL     1       4.241   3.816  18.588  0.00  0.00    +0.000 A 
ATOM      8  S   UNL     1       3.320   4.322  19.948  0.00  0.00    +0.000 S 
ATOM      9  H   UNL     1       2.034   6.404  20.832  0.00  0.00    +0.000 HD
ENDROOT
BRANCH   6  10
ATOM     10  C   UNL     1       5.215   4.828  16.495  0.00  0.00    +0.000 A 
ATOM     11  C   UNL     1       6.513   5.392  16.478  0.00  0.00    +0.000 A 
ATOM     12  C   UNL     1       7.306   5.355  15.326  0.00  0.00    +0.000 A 
ATOM     13  C   UNL     1       6.788   4.732  14.212  0.00  0.00    +0.000 A 
ATOM     14  C   UNL     1       5.523   4.168  14.209  0.00  0.00    +0.000 A 
ATOM     15  C   UNL     1       4.719   4.210  15.337  0.00  0.00    +0.000 A 
ATOM     16  C   UNL     1       5.231   3.630  12.864  0.00  0.00    +0.000 C 
ATOM     17  C   UNL     1       6.643   3.654  12.283  0.00  0.00    +0.000 C 
ATOM     18  O   UNL     1       7.443   4.614  13.014  0.00  0.00    +0.000 OA
ENDBRANCH   6  10
BRANCH   2  19
ATOM     19  C   UNL     1       1.147   8.786  20.312  0.00  0.00    +0.000 A 
ATOM     20  C   UNL     1       1.227   8.620  21.703  0.00  0.00    +0.000 A 
ATOM     21  C   UNL     1       0.433   9.388  22.555  0.00  0.00    +0.000 A 
ATOM     22  C   UNL     1      -0.441  10.339  22.026  0.00  0.00    +0.000 A 
ATOM     23  C   UNL     1      -0.528  10.511  20.645  0.00  0.00    +0.000 A 
ATOM     24  C   UNL     1       0.260   9.733  19.801  0.00  0.00    +0.000 A 
ATOM     25  F   UNL     1       0.146   9.926  18.476  0.00  0.00    +0.000 F 
ENDBRANCH   2  19
TORSDOF 2
ENDMDL
MODEL 3
REMARK VINA RESULT:      -8.2      0.967      1.375
REMARK  Name = 
REMARK  2 active torsions:
REMARK  status: ('A' for Active; 'I' for Inactive)
REMARK    1  A    between atoms: C_2  and  C_18
REMARK    2  A    between atoms: C_6  and  C_7
REMARK                            x       y       z     vdW  Elec       q    Type
REMARK                         _______ _______ _______ _____ _____    ______ ____
ROOT
ATOM      1  O   UNL     1       1.931   9.409  19.253  0.00  0.00    +0.000 OA
ATOM      2  C   UNL     1       1.324   8.933  20.206  0.00  0.00    +0.000 C 
ATOM      3  N   UNL     1       1.433   7.651  20.692  0.00  0.00    +0.000 N 
ATOM      4  C   UNL     1       2.241   6.722  20.102  0.00  0.00    +0.000 A 
ATOM      5  N   UNL     1       3.107   6.874  19.137  0.00  0.00    +0.000 NA
ATOM      6  C   UNL     1       3.675   5.655  18.816  0.00  0.00    +0.000 A 
ATOM      7  C   UNL     1       3.186   4.585  19.545  0.00  0.00    +0.000 A 
ATOM      8  S   UNL     1       2.056   5.142  20.714  0.00  0.00    +0.000 S 
ATOM      9  H   UNL     1       0.846   7.325  21.448  0.00  0.00    +0.000 HD
ENDROOT
BRANCH   6  10
ATOM     10  C   UNL     1       4.690   5.558  17.772  0.00  0.00    +0.000 A 
ATOM     11  C   UNL     1       5.976   6.098  18.012  0.00  0.00    +0.000 A 
ATOM     12  C   UNL     1       6.988   6.020  17.049  0.00  0.00    +0.000 A 
ATOM     13  C   UNL     1       6.697   5.381  15.864  0.00  0.00    +0.000 A 
ATOM     14  C   UNL     1       5.446   4.840  15.611  0.00  0.00    +0.000 A 
ATOM     15  C   UNL     1       4.428   4.923  16.548  0.00  0.00    +0.000 A 
ATOM     16  C   UNL     1       5.425   4.277  14.246  0.00  0.00    +0.000 C 
ATOM     17  C   UNL     1       6.927   4.262  13.967  0.00  0.00    +0.000 C 
ATOM     18  O   UNL     1       7.581   5.224  14.829  0.00  0.00    +0.000 OA
ENDBRANCH   6  10
BRANCH   2  19
ATOM     19  C   UNL     1       0.357   9.816  20.915  0.00  0.00    +0.000 A 
ATOM     20  C   UNL     1      -0.449  10.671  20.148  0.00  0.00    +0.000 A 
ATOM     21  C   UNL     1      -1.396  11.491  20.763  0.00  0.00    +0.000 A 
ATOM     22  C   UNL     1      -1.557  11.455  22.149  0.00  0.00    +0.000 A 
ATOM     23  C   UNL     1      -0.761  10.608  22.919  0.00  0.00    +0.000 A 
ATOM     24  C   UNL     1       0.190   9.801  22.300  0.00  0.00    +0.000 A 
ATOM     25  F   UNL     1       0.940   9.000  23.075  0.00  0.00    +0.000 F 
ENDBRANCH   2  19
TORSDOF 2
ENDMDL
MODEL 4
REMARK VINA RESULT:      -8.0      1.295      1.502
REMARK  Name = 
REMARK  2 active torsions:
REMARK  status: ('A' for Active; 'I' for Inactive)
REMARK    1  A    between atoms: C_2  and  C_18
REMARK    2  A    between atoms: C_6  and  C_7
REMARK                            x       y       z     vdW  Elec       q    Type
REMARK                         _______ _______ _______ _____ _____    ______ ____
ROOT
ATOM      1  O   UNL     1       1.755   9.559  18.300  0.00  0.00    +0.000 OA
ATOM      2  C   UNL     1       1.081   9.336  19.300  0.00  0.00    +0.000 C 
ATOM      3  N   UNL     1       1.180   8.244  20.130  0.00  0.00    +0.000 N 
ATOM      4  C   UNL     1       2.057   7.228  19.883  0.00  0.00    +0.000 A 
ATOM      5  N   UNL     1       2.998   7.148  18.981  0.00  0.00    +0.000 NA
ATOM      6  C   UNL     1       3.620   5.915  19.055  0.00  0.00    +0.000 A 
ATOM      7  C   UNL     1       3.097   5.066  20.014  0.00  0.00    +0.000 A 
ATOM      8  S   UNL     1       1.859   5.869  20.895  0.00  0.00    +0.000 S 
ATOM      9  H   UNL     1       0.540   8.112  20.901  0.00  0.00    +0.000 HD
ENDROOT
BRANCH   6  10
ATOM     10  C   UNL     1       4.722   5.582  18.158  0.00  0.00    +0.000 A 
ATOM     11  C   UNL     1       5.985   5.262  18.709  0.00  0.00    +0.000 A 
ATOM     12  C   UNL     1       7.070   4.924  17.893  0.00  0.00    +0.000 A 
ATOM     13  C   UNL     1       6.862   4.893  16.532  0.00  0.00    +0.000 A 
ATOM     14  C   UNL     1       5.632   5.196  15.971  0.00  0.00    +0.000 A 
ATOM     15  C   UNL     1       4.551   5.549  16.765  0.00  0.00    +0.000 A 
ATOM     16  C   UNL     1       5.736   5.131  14.499  0.00  0.00    +0.000 C 
ATOM     17  C   UNL     1       7.070   4.394  14.384  0.00  0.00    +0.000 C 
ATOM     18  O   UNL     1       7.823   4.579  15.606  0.00  0.00    +0.000 OA
ENDBRANCH   6  10
BRANCH   2  19
ATOM     19  C   UNL     1       0.037  10.334  19.661  0.00  0.00    +0.000 A 
ATOM     20  C   UNL     1       0.163  11.017  20.880  0.00  0.00    +0.000 A 
ATOM     21  C   UNL     1      -0.770  11.988  21.247  0.00  0.00    +0.000 A 
ATOM     22  C   UNL     1      -1.832  12.295  20.393  0.00  0.00    +0.000 A 
ATOM     23  C   UNL     1      -1.965  11.620  19.180  0.00  0.00    +0.000 A 
ATOM     24  C   UNL     1      -1.036  10.645  18.825  0.00  0.00    +0.000 A 
ATOM     25  F   UNL     1      -1.199  10.015  17.650  0.00  0.00    +0.000 F 
ENDBRANCH   2  19
TORSDOF 2
ENDMDL
MODEL 5
REMARK VINA RESULT:      -8.0      3.807      8.994
REMARK  Name = 
REMARK  2 active torsions:
REMARK  status: ('A' for Active; 'I' for Inactive)
REMARK    1  A    between atoms: C_2  and  C_18
REMARK    2  A    between atoms: C_6  and  C_7
REMARK                            x       y       z     vdW  Elec       q    Type
REMARK                         _______ _______ _______ _____ _____    ______ ____
ROOT
ATOM      1  O   UNL     1       1.500   5.458  20.635  0.00  0.00    +0.000 OA
ATOM      2  C   UNL     1       2.173   5.413  19.610  0.00  0.00    +0.000 C 
ATOM      3  N   UNL     1       2.496   6.472  18.794  0.00  0.00    +0.000 N 
ATOM      4  C   UNL     1       2.039   7.736  19.037  0.00  0.00    +0.000 A 
ATOM      5  N   UNL     1       1.385   8.194  20.070  0.00  0.00    +0.000 NA
ATOM      6  C   UNL     1       1.078   9.530  19.880  0.00  0.00    +0.000 A 
ATOM      7  C   UNL     1       1.492  10.046  18.664  0.00  0.00    +0.000 A 
ATOM      8  S   UNL     1       2.359   8.850  17.786  0.00  0.00    +0.000 S 
ATOM      9  H   UNL     1       3.006   6.334  17.933  0.00  0.00    +0.000 HD
ENDROOT
BRANCH   6  10
ATOM     10  C   UNL     1       0.359  10.280  20.903  0.00  0.00    +0.000 A 
ATOM     11  C   UNL     1      -0.142   9.594  22.035  0.00  0.00    +0.000 A 
ATOM     12  C   UNL     1      -0.828  10.270  23.050  0.00  0.00    +0.000 A 
ATOM     13  C   UNL     1      -0.982  11.632  22.921  0.00  0.00    +0.000 A 
ATOM     14  C   UNL     1      -0.494  12.325  21.825  0.00  0.00    +0.000 A 
ATOM     15  C   UNL     1       0.173  11.668  20.803  0.00  0.00    +0.000 A 
ATOM     16  C   UNL     1      -0.862  13.751  21.945  0.00  0.00    +0.000 C 
ATOM     17  C   UNL     1      -1.273  13.771  23.416  0.00  0.00    +0.000 C 
ATOM     18  O   UNL     1      -1.627  12.430  23.830  0.00  0.00    +0.000 OA
ENDBRANCH   6  10
BRANCH   2  19
ATOM     19  C   UNL     1       2.691   4.084  19.185  0.00  0.00    +0.000 A 
ATOM     20  C   UNL     1       3.660   3.461  19.986  0.00  0.00    +0.000 A 
ATOM     21  C   UNL     1       4.150   2.198  19.650  0.00  0.00    +0.000 A 
ATOM     22  C   UNL     1       3.668   1.541  18.517  0.00  0.00    +0.000 A 
ATOM     23  C   UNL     1       2.706   2.153  17.715  0.00  0.00    +0.000 A 
ATOM     24  C   UNL     1       2.229   3.418  18.051  0.00  0.00    +0.000 A 
ATOM     25  F   UNL     1       1.304   3.976  17.252  0.00  0.00    +0.000 F 
ENDBRANCH   2  19
TORSDOF 2
ENDMDL
MODEL 6
REMARK VINA RESULT:      -7.9      3.426      4.788
REMARK  Name = 
REMARK  2 active torsions:
REMARK  status: ('A' for Active; 'I' for Inactive)
REMARK    1  A    between atoms: C_2  and  C_18
REMARK    2  A    between atoms: C_6  and  C_7
REMARK                            x       y       z     vdW  Elec       q    Type
REMARK                         _______ _______ _______ _____ _____    ______ ____
ROOT
ATOM      1  O   UNL     1       0.444   9.925  22.426  0.00  0.00    +0.000 OA
ATOM      2  C   UNL     1       0.230  10.833  21.631  0.00  0.00    +0.000 C 
ATOM      3  N   UNL     1       0.500  10.824  20.282  0.00  0.00    +0.000 N 
ATOM      4  C   UNL     1       1.105   9.761  19.675  0.00  0.00    +0.000 A 
ATOM      5  N   UNL     1       1.394   8.586  20.163  0.00  0.00    +0.000 NA
ATOM      6  C   UNL     1       2.049   7.826  19.210  0.00  0.00    +0.000 A 
ATOM      7  C   UNL     1       2.269   8.479  18.009  0.00  0.00    +0.000 A 
ATOM      8  S   UNL     1       1.559  10.043  18.056  0.00  0.00    +0.000 S 
ATOM      9  H   UNL     1       0.347  11.643  19.711  0.00  0.00    +0.000 HD
ENDROOT
BRANCH   6  10
ATOM     10  C   UNL     1       2.468   6.461  19.505  0.00  0.00    +0.000 A 
ATOM     11  C   UNL     1       3.643   5.956  18.900  0.00  0.00    +0.000 A 
ATOM     12  C   UNL     1       4.095   4.657  19.161  0.00  0.00    +0.000 A 
ATOM     13  C   UNL     1       3.367   3.891  20.044  0.00  0.00    +0.000 A 
ATOM     14  C   UNL     1       2.217   4.367  20.652  0.00  0.00    +0.000 A 
ATOM     15  C   UNL     1       1.747   5.646  20.392  0.00  0.00    +0.000 A 
ATOM     16  C   UNL     1       1.633   3.303  21.494  0.00  0.00    +0.000 C 
ATOM     17  C   UNL     1       2.824   2.348  21.536  0.00  0.00    +0.000 C 
ATOM     18  O   UNL     1       3.682   2.606  20.399  0.00  0.00    +0.000 OA
ENDBRANCH   6  10
BRANCH   2  19
ATOM     19  C   UNL     1      -0.374  12.086  22.163  0.00  0.00    +0.000 A 
ATOM     20  C   UNL     1       0.155  13.313  21.736  0.00  0.00    +0.000 A 
ATOM     21  C   UNL     1      -0.400  14.515  22.178  0.00  0.00    +0.000 A 
ATOM     22  C   UNL     1      -1.498  14.502  23.040  0.00  0.00    +0.000 A 
ATOM     23  C   UNL     1      -2.030  13.287  23.470  0.00  0.00    +0.000 A 
ATOM     24  C   UNL     1      -1.464  12.092  23.034  0.00  0.00    +0.000 A 
ATOM     25  F   UNL     1      -2.003  10.941  23.471  0.00  0.00    +0.000 F 
ENDBRANCH   2  19
TORSDOF 2
ENDMDL
MODEL 7
REMARK VINA RESULT:      -7.9      1.005      1.026
REMARK  Name = 
REMARK  2 active torsions:
REMARK  status: ('A' for Active; 'I' for Inactive)
REMARK    1  A    between atoms: C_2  and  C_18
REMARK    2  A    between atoms: C_6  and  C_7
REMARK                            x       y       z     vdW  Elec       q    Type
REMARK                         _______ _______ _______ _____ _____    ______ ____
ROOT
ATOM      1  O   UNL     1       1.320   9.562  19.348  0.00  0.00    +0.000 OA
ATOM      2  C   UNL     1       0.865   9.096  20.387  0.00  0.00    +0.000 C 
ATOM      3  N   UNL     1       1.082   7.832  20.883  0.00  0.00    +0.000 N 
ATOM      4  C   UNL     1       1.832   6.911  20.209  0.00  0.00    +0.000 A 
ATOM      5  N   UNL     1       2.552   7.062  19.131  0.00  0.00    +0.000 NA
ATOM      6  C   UNL     1       3.111   5.851  18.764  0.00  0.00    +0.000 A 
ATOM      7  C   UNL     1       2.762   4.788  19.577  0.00  0.00    +0.000 A 
ATOM      8  S   UNL     1       1.784   5.343  20.877  0.00  0.00    +0.000 S 
ATOM      9  H   UNL     1       0.615   7.509  21.720  0.00  0.00    +0.000 HD
ENDROOT
BRANCH   6  10
ATOM     10  C   UNL     1       3.977   5.756  17.593  0.00  0.00    +0.000 A 
ATOM     11  C   UNL     1       4.454   6.945  16.992  0.00  0.00    +0.000 A 
ATOM     12  C   UNL     1       5.296   6.908  15.875  0.00  0.00    +0.000 A 
ATOM     13  C   UNL     1       5.664   5.672  15.391  0.00  0.00    +0.000 A 
ATOM     14  C   UNL     1       5.214   4.495  15.968  0.00  0.00    +0.000 A 
ATOM     15  C   UNL     1       4.366   4.515  17.065  0.00  0.00    +0.000 A 
ATOM     16  C   UNL     1       5.729   3.345  15.198  0.00  0.00    +0.000 C 
ATOM     17  C   UNL     1       6.801   4.063  14.380  0.00  0.00    +0.000 C 
ATOM     18  O   UNL     1       6.482   5.474  14.310  0.00  0.00    +0.000 OA
ENDBRANCH   6  10
BRANCH   2  19
ATOM     19  C   UNL     1      -0.025   9.969  21.201  0.00  0.00    +0.000 A 
ATOM     20  C   UNL     1      -0.222   9.644  22.551  0.00  0.00    +0.000 A 
ATOM     21  C   UNL     1      -1.017  10.451  23.365  0.00  0.00    +0.000 A 
ATOM     22  C   UNL     1      -1.614  11.599  22.841  0.00  0.00    +0.000 A 
ATOM     23  C   UNL     1      -1.424  11.930  21.500  0.00  0.00    +0.000 A 
ATOM     24  C   UNL     1      -0.638  11.113  20.691  0.00  0.00    +0.000 A 
ATOM     25  F   UNL     1      -0.480  11.464  19.403  0.00  0.00    +0.000 F 
ENDBRANCH   2  19
TORSDOF 2
ENDMDL
MODEL 8
REMARK VINA RESULT:      -7.9      1.640      2.028
REMARK  Name = 
REMARK  2 active torsions:
REMARK  status: ('A' for Active; 'I' for Inactive)
REMARK    1  A    between atoms: C_2  and  C_18
REMARK    2  A    between atoms: C_6  and  C_7
REMARK                            x       y       z     vdW  Elec       q    Type
REMARK                         _______ _______ _______ _____ _____    ______ ____
ROOT
ATOM      1  O   UNL     1       1.657   9.715  17.939  0.00  0.00    +0.000 OA
ATOM      2  C   UNL     1       0.965   9.566  18.941  0.00  0.00    +0.000 C 
ATOM      3  N   UNL     1       1.054   8.543  19.855  0.00  0.00    +0.000 N 
ATOM      4  C   UNL     1       1.941   7.516  19.704  0.00  0.00    +0.000 A 
ATOM      5  N   UNL     1       2.899   7.373  18.829  0.00  0.00    +0.000 NA
ATOM      6  C   UNL     1       3.526   6.154  19.011  0.00  0.00    +0.000 A 
ATOM      7  C   UNL     1       2.989   5.378  20.022  0.00  0.00    +0.000 A 
ATOM      8  S   UNL     1       1.730   6.239  20.815  0.00  0.00    +0.000 S 
ATOM      9  H   UNL     1       0.399   8.466  20.621  0.00  0.00    +0.000 HD
ENDROOT
BRANCH   6  10
ATOM     10  C   UNL     1       4.646   5.760  18.163  0.00  0.00    +0.000 A 
ATOM     11  C   UNL     1       5.875   5.404  18.768  0.00  0.00    +0.000 A 
ATOM     12  C   UNL     1       6.976   5.008  18.000  0.00  0.00    +0.000 A 
ATOM     13  C   UNL     1       6.817   4.954  16.634  0.00  0.00    +0.000 A 
ATOM     14  C   UNL     1       5.622   5.292  16.021  0.00  0.00    +0.000 A 
ATOM     15  C   UNL     1       4.527   5.702  16.766  0.00  0.00    +0.000 A 
ATOM     16  C   UNL     1       5.778   5.191  14.555  0.00  0.00    +0.000 C 
ATOM     17  C   UNL     1       7.085   4.402  14.506  0.00  0.00    +0.000 C 
ATOM     18  O   UNL     1       7.799   4.584  15.752  0.00  0.00    +0.000 OA
ENDBRANCH   6  10
BRANCH   2  19
ATOM     19  C   UNL     1      -0.092  10.582  19.204  0.00  0.00    +0.000 A 
ATOM     20  C   UNL     1      -1.225  10.592  18.377  0.00  0.00    +0.000 A 
ATOM     21  C   UNL     1      -2.260  11.500  18.605  0.00  0.00    +0.000 A 
ATOM     22  C   UNL     1      -2.178  12.399  19.671  0.00  0.00    +0.000 A 
ATOM     23  C   UNL     1      -1.055  12.396  20.497  0.00  0.00    +0.000 A 
ATOM     24  C   UNL     1      -0.021  11.494  20.257  0.00  0.00    +0.000 A 
ATOM     25  F   UNL     1       1.045  11.523  21.074  0.00  0.00    +0.000 F 
ENDBRANCH   2  19
TORSDOF 2
ENDMDL
MODEL 9
REMARK VINA RESULT:      -7.9      3.416      4.602
REMARK  Name = 
REMARK  2 active torsions:
REMARK  status: ('A' for Active; 'I' for Inactive)
REMARK    1  A    between atoms: C_2  and  C_18
REMARK    2  A    between atoms: C_6  and  C_7
REMARK                            x       y       z     vdW  Elec       q    Type
REMARK                         _______ _______ _______ _____ _____    ______ ____
ROOT
ATOM      1  O   UNL     1       0.352  10.033  22.540  0.00  0.00    +0.000 OA
ATOM      2  C   UNL     1       0.154  10.917  21.712  0.00  0.00    +0.000 C 
ATOM      3  N   UNL     1       0.432  10.857  20.366  0.00  0.00    +0.000 N 
ATOM      4  C   UNL     1       1.025   9.766  19.800  0.00  0.00    +0.000 A 
ATOM      5  N   UNL     1       1.295   8.604  20.329  0.00  0.00    +0.000 NA
ATOM      6  C   UNL     1       1.943   7.803  19.406  0.00  0.00    +0.000 A 
ATOM      7  C   UNL     1       2.179   8.410  18.186  0.00  0.00    +0.000 A 
ATOM      8  S   UNL     1       1.491   9.986  18.174  0.00  0.00    +0.000 S 
ATOM      9  H   UNL     1       0.293  11.658  19.766  0.00  0.00    +0.000 HD
ENDROOT
BRANCH   6  10
ATOM     10  C   UNL     1       2.341   6.442  19.751  0.00  0.00    +0.000 A 
ATOM     11  C   UNL     1       1.572   5.719  20.694  0.00  0.00    +0.000 A 
ATOM     12  C   UNL     1       1.905   4.407  21.049  0.00  0.00    +0.000 A 
ATOM     13  C   UNL     1       2.995   3.834  20.435  0.00  0.00    +0.000 A 
ATOM     14  C   UNL     1       3.758   4.521  19.505  0.00  0.00    +0.000 A 
ATOM     15  C   UNL     1       3.452   5.827  19.154  0.00  0.00    +0.000 A 
ATOM     16  C   UNL     1       4.884   3.669  19.070  0.00  0.00    +0.000 C 
ATOM     17  C   UNL     1       4.393   2.327  19.609  0.00  0.00    +0.000 C 
ATOM     18  O   UNL     1       3.443   2.561  20.676  0.00  0.00    +0.000 OA
ENDBRANCH   6  10
BRANCH   2  19
ATOM     19  C   UNL     1      -0.434  12.195  22.198  0.00  0.00    +0.000 A 
ATOM     20  C   UNL     1       0.142  13.399  21.766  0.00  0.00    +0.000 A 
ATOM     21  C   UNL     1      -0.397  14.624  22.164  0.00  0.00    +0.000 A 
ATOM     22  C   UNL     1      -1.524  14.657  22.986  0.00  0.00    +0.000 A 
ATOM     23  C   UNL     1      -2.103  13.465  23.420  0.00  0.00    +0.000 A 
ATOM     24  C   UNL     1      -1.554  12.247  23.028  0.00  0.00    +0.000 A 
ATOM     25  F   UNL     1      -2.138  11.120  23.469  0.00  0.00    +0.000 F 
ENDBRANCH   2  19
TORSDOF 2
ENDMDL
