MODEL 1
REMARK VINA RESULT:      -8.6      0.000      0.000
REMARK  Name = 
REMARK  5 active torsions:
REMARK  status: ('A' for Active; 'I' for Inactive)
REMARK    1  A    between atoms: C_1  and  C_2
REMARK    2  A    between atoms: C_2  and  C_3
REMARK    3  A    between atoms: C_3  and  C_5
REMARK    4  A    between atoms: C_7  and  N_8
REMARK    5  A    between atoms: C_15  and  C_16
REMARK                            x       y       z     vdW  Elec       q    Type
REMARK                         _______ _______ _______ _____ _____    ______ ____
ROOT
ATOM      1  N   UNL     1       4.562   4.833  16.419  0.00  0.00    +0.000 N 
ATOM      2  C   UNL     1       3.886   3.700  17.032  0.00  0.00    +0.000 C 
ATOM      3  C   UNL     1       3.186   4.310  18.206  0.00  0.00    +0.000 A 
ATOM      4  C   UNL     1       3.445   5.679  18.235  0.00  0.00    +0.000 A 
ATOM      5  C   UNL     1       2.919   6.528  19.189  0.00  0.00    +0.000 A 
ATOM      6  C   UNL     1       2.099   5.963  20.161  0.00  0.00    +0.000 A 
ATOM      7  C   UNL     1       1.836   4.579  20.157  0.00  0.00    +0.000 A 
ATOM      8  C   UNL     1       2.382   3.724  19.176  0.00  0.00    +0.000 A 
ATOM      9  C   UNL     1       4.325   6.017  17.114  0.00  0.00    +0.000 C 
ATOM     10  O   UNL     1       4.696   7.157  16.903  0.00  0.00    +0.000 OA
ENDROOT
BRANCH   1  13
ATOM     11  C   UNL     1       5.821   3.901  13.027  0.00  0.00    +0.000 A 
ATOM     12  C   UNL     1       5.001   4.000  14.160  0.00  0.00    +0.000 A 
ATOM     13  C   UNL     1       5.422   4.692  15.305  0.00  0.00    +0.000 A 
ATOM     14  C   UNL     1       6.700   5.266  15.311  0.00  0.00    +0.000 A 
ATOM     15  C   UNL     1       7.543   5.129  14.207  0.00  0.00    +0.000 A 
ATOM     16  C   UNL     1       7.098   4.455  13.077  0.00  0.00    +0.000 A 
ATOM     17  F   UNL     1       7.912   4.353  12.018  0.00  0.00    +0.000 F 
BRANCH  11  18
ATOM     18  C   UNL     1       5.321   3.233  11.773  0.00  0.00    +0.000 C 
ATOM     19  F   UNL     1       3.957   3.289  11.682  0.00  0.00    +0.000 F 
BRANCH  18  21
ATOM     20  C   UNL     1       6.982   1.587  10.846  0.00  0.00    +0.000 C 
ATOM     21  C   UNL     1       5.734   1.763  11.700  0.00  0.00    +0.000 C 
ENDBRANCH  18  21
ENDBRANCH  11  18
ENDBRANCH   1  13
BRANCH   8  22
ATOM     22  C   UNL     1       2.091   2.247  19.216  0.00  0.00    +0.000 C 
ATOM     23  F   UNL     1       1.507   1.838  20.377  0.00  0.00    +0.000 F 
ATOM     24  F   UNL     1       1.250   1.856  18.221  0.00  0.00    +0.000 F 
ATOM     25  F   UNL     1       3.214   1.491  19.080  0.00  0.00    +0.000 F 
ENDBRANCH   8  22
TORSDOF 4
ENDMDL
MODEL 2
REMARK VINA RESULT:      -8.6      4.316      6.981
REMARK  Name = 
REMARK  5 active torsions:
REMARK  status: ('A' for Active; 'I' for Inactive)
REMARK    1  A    between atoms: C_1  and  C_2
REMARK    2  A    between atoms: C_2  and  C_3
REMARK    3  A    between atoms: C_3  and  C_5
REMARK    4  A    between atoms: C_7  and  N_8
REMARK    5  A    between atoms: C_15  and  C_16
REMARK                            x       y       z     vdW  Elec       q    Type
REMARK                         _______ _______ _______ _____ _____    ______ ____
ROOT
ATOM      1  N   UNL     1       1.931   7.921  19.111  0.00  0.00    +0.000 N 
ATOM      2  C   UNL     1       1.326   8.077  20.425  0.00  0.00    +0.000 C 
ATOM      3  C   UNL     1       0.826   9.488  20.409  0.00  0.00    +0.000 A 
ATOM      4  C   UNL     1       1.120  10.066  19.176  0.00  0.00    +0.000 A 
ATOM      5  C   UNL     1       0.766  11.359  18.843  0.00  0.00    +0.000 A 
ATOM      6  C   UNL     1       0.086  12.101  19.805  0.00  0.00    +0.000 A 
ATOM      7  C   UNL     1      -0.209  11.539  21.062  0.00  0.00    +0.000 A 
ATOM      8  C   UNL     1       0.161  10.217  21.388  0.00  0.00    +0.000 A 
ATOM      9  C   UNL     1       1.831   9.086  18.352  0.00  0.00    +0.000 C 
ATOM     10  O   UNL     1       2.195   9.335  17.218  0.00  0.00    +0.000 OA
ENDROOT
BRANCH   1  13
ATOM     11  C   UNL     1       2.792   4.306  18.732  0.00  0.00    +0.000 A 
ATOM     12  C   UNL     1       2.162   5.486  19.154  0.00  0.00    +0.000 A 
ATOM     13  C   UNL     1       2.610   6.743  18.724  0.00  0.00    +0.000 A 
ATOM     14  C   UNL     1       3.724   6.806  17.877  0.00  0.00    +0.000 A 
ATOM     15  C   UNL     1       4.388   5.640  17.491  0.00  0.00    +0.000 A 
ATOM     16  C   UNL     1       3.917   4.404  17.916  0.00  0.00    +0.000 A 
ATOM     17  F   UNL     1       4.552   3.294  17.518  0.00  0.00    +0.000 F 
BRANCH  11  18
ATOM     18  C   UNL     1       2.246   2.959  19.131  0.00  0.00    +0.000 C 
ATOM     19  F   UNL     1       1.812   2.250  18.044  0.00  0.00    +0.000 F 
BRANCH  18  21
ATOM     20  C   UNL     1       1.516   2.745  21.528  0.00  0.00    +0.000 C 
ATOM     21  C   UNL     1       1.079   3.078  20.109  0.00  0.00    +0.000 C 
ENDBRANCH  18  21
ENDBRANCH  11  18
ENDBRANCH   1  13
BRANCH   8  22
ATOM     22  C   UNL     1      -0.157   9.658  22.751  0.00  0.00    +0.000 C 
ATOM     23  F   UNL     1       0.947   9.324  23.474  0.00  0.00    +0.000 F 
ATOM     24  F   UNL     1      -0.853  10.537  23.522  0.00  0.00    +0.000 F 
ATOM     25  F   UNL     1      -0.914   8.529  22.686  0.00  0.00    +0.000 F 
ENDBRANCH   8  22
TORSDOF 4
ENDMDL
MODEL 3
REMARK VINA RESULT:      -8.5      0.841      1.127
REMARK  Name = 
REMARK  5 active torsions:
REMARK  status: ('A' for Active; 'I' for Inactive)
REMARK    1  A    between atoms: C_1  and  C_2
REMARK    2  A    between atoms: C_2  and  C_3
REMARK    3  A    between atoms: C_3  and  C_5
REMARK    4  A    between atoms: C_7  and  N_8
REMARK    5  A    between atoms: C_15  and  C_16
REMARK                            x       y       z     vdW  Elec       q    Type
REMARK                         _______ _______ _______ _____ _____    ______ ____
ROOT
ATOM      1  N   UNL     1       4.377   4.853  16.652  0.00  0.00    +0.000 N 
ATOM      2  C   UNL     1       3.628   3.748  17.229  0.00  0.00    +0.000 C 
ATOM      3  C   UNL     1       2.951   4.370  18.410  0.00  0.00    +0.000 A 
ATOM      4  C   UNL     1       3.290   5.720  18.476  0.00  0.00    +0.000 A 
ATOM      5  C   UNL     1       2.804   6.575  19.445  0.00  0.00    +0.000 A 
ATOM      6  C   UNL     1       1.940   6.037  20.394  0.00  0.00    +0.000 A 
ATOM      7  C   UNL     1       1.595   4.672  20.353  0.00  0.00    +0.000 A 
ATOM      8  C   UNL     1       2.101   3.810  19.357  0.00  0.00    +0.000 A 
ATOM      9  C   UNL     1       4.203   6.032  17.374  0.00  0.00    +0.000 C 
ATOM     10  O   UNL     1       4.643   7.152  17.195  0.00  0.00    +0.000 OA
ENDROOT
BRANCH   1  13
ATOM     11  C   UNL     1       5.692   3.744  13.335  0.00  0.00    +0.000 A 
ATOM     12  C   UNL     1       4.871   3.872  14.465  0.00  0.00    +0.000 A 
ATOM     13  C   UNL     1       5.241   4.687  15.545  0.00  0.00    +0.000 A 
ATOM     14  C   UNL     1       6.470   5.358  15.489  0.00  0.00    +0.000 A 
ATOM     15  C   UNL     1       7.317   5.197  14.391  0.00  0.00    +0.000 A 
ATOM     16  C   UNL     1       6.922   4.398  13.326  0.00  0.00    +0.000 A 
ATOM     17  F   UNL     1       7.737   4.273  12.270  0.00  0.00    +0.000 F 
BRANCH  11  18
ATOM     18  C   UNL     1       5.241   2.936  12.146  0.00  0.00    +0.000 C 
ATOM     19  F   UNL     1       6.291   2.295  11.546  0.00  0.00    +0.000 F 
BRANCH  18  21
ATOM     20  C   UNL     1       3.247   3.173  10.632  0.00  0.00    +0.000 C 
ATOM     21  C   UNL     1       4.556   3.801  11.089  0.00  0.00    +0.000 C 
ENDBRANCH  18  21
ENDBRANCH  11  18
ENDBRANCH   1  13
BRANCH   8  22
ATOM     22  C   UNL     1       1.723   2.352  19.358  0.00  0.00    +0.000 C 
ATOM     23  F   UNL     1       1.355   1.885  20.583  0.00  0.00    +0.000 F 
ATOM     24  F   UNL     1       0.675   2.087  18.531  0.00  0.00    +0.000 F 
ATOM     25  F   UNL     1       2.742   1.549  18.946  0.00  0.00    +0.000 F 
ENDBRANCH   8  22
TORSDOF 4
ENDMDL
MODEL 4
REMARK VINA RESULT:      -8.3      4.545      6.583
REMARK  Name = 
REMARK  5 active torsions:
REMARK  status: ('A' for Active; 'I' for Inactive)
REMARK    1  A    between atoms: C_1  and  C_2
REMARK    2  A    between atoms: C_2  and  C_3
REMARK    3  A    between atoms: C_3  and  C_5
REMARK    4  A    between atoms: C_7  and  N_8
REMARK    5  A    between atoms: C_15  and  C_16
REMARK                            x       y       z     vdW  Elec       q    Type
REMARK                         _______ _______ _______ _____ _____    ______ ____
ROOT
ATOM      1  N   UNL     1       1.950   8.111  19.214  0.00  0.00    +0.000 N 
ATOM      2  C   UNL     1       1.325   8.232  20.523  0.00  0.00    +0.000 C 
ATOM      3  C   UNL     1       0.649   9.566  20.460  0.00  0.00    +0.000 A 
ATOM      4  C   UNL     1       0.873  10.136  19.208  0.00  0.00    +0.000 A 
ATOM      5  C   UNL     1       0.358  11.361  18.832  0.00  0.00    +0.000 A 
ATOM      6  C   UNL     1      -0.414  12.042  19.769  0.00  0.00    +0.000 A 
ATOM      7  C   UNL     1      -0.641  11.488  21.044  0.00  0.00    +0.000 A 
ATOM      8  C   UNL     1      -0.106  10.236  21.414  0.00  0.00    +0.000 A 
ATOM      9  C   UNL     1       1.706   9.227  18.417  0.00  0.00    +0.000 C 
ATOM     10  O   UNL     1       2.040   9.483  17.275  0.00  0.00    +0.000 OA
ENDROOT
BRANCH   1  13
ATOM     11  C   UNL     1       4.533   6.052  17.468  0.00  0.00    +0.000 A 
ATOM     12  C   UNL     1       3.668   7.108  17.788  0.00  0.00    +0.000 A 
ATOM     13  C   UNL     1       2.775   7.017  18.867  0.00  0.00    +0.000 A 
ATOM     14  C   UNL     1       2.741   5.830  19.610  0.00  0.00    +0.000 A 
ATOM     15  C   UNL     1       3.561   4.754  19.268  0.00  0.00    +0.000 A 
ATOM     16  C   UNL     1       4.450   4.874  18.207  0.00  0.00    +0.000 A 
ATOM     17  F   UNL     1       5.247   3.840  17.906  0.00  0.00    +0.000 F 
BRANCH  11  18
ATOM     18  C   UNL     1       5.547   6.198  16.364  0.00  0.00    +0.000 C 
ATOM     19  F   UNL     1       5.374   5.249  15.393  0.00  0.00    +0.000 F 
BRANCH  18  21
ATOM     20  C   UNL     1       7.449   7.394  17.495  0.00  0.00    +0.000 C 
ATOM     21  C   UNL     1       6.980   6.082  16.880  0.00  0.00    +0.000 C 
ENDBRANCH  18  21
ENDBRANCH  11  18
ENDBRANCH   1  13
BRANCH   8  22
ATOM     22  C   UNL     1      -0.357   9.687  22.794  0.00  0.00    +0.000 C 
ATOM     23  F   UNL     1      -1.004   8.488  22.794  0.00  0.00    +0.000 F 
ATOM     24  F   UNL     1       0.795   9.486  23.490  0.00  0.00    +0.000 F 
ATOM     25  F   UNL     1      -1.119  10.519  23.556  0.00  0.00    +0.000 F 
ENDBRANCH   8  22
TORSDOF 4
ENDMDL
MODEL 5
REMARK VINA RESULT:      -8.3      4.372      6.948
REMARK  Name = 
REMARK  5 active torsions:
REMARK  status: ('A' for Active; 'I' for Inactive)
REMARK    1  A    between atoms: C_1  and  C_2
REMARK    2  A    between atoms: C_2  and  C_3
REMARK    3  A    between atoms: C_3  and  C_5
REMARK    4  A    between atoms: C_7  and  N_8
REMARK    5  A    between atoms: C_15  and  C_16
REMARK                            x       y       z     vdW  Elec       q    Type
REMARK                         _______ _______ _______ _____ _____    ______ ____
ROOT
ATOM      1  N   UNL     1       1.952   8.017  19.208  0.00  0.00    +0.000 N 
ATOM      2  C   UNL     1       1.322   8.160  20.512  0.00  0.00    +0.000 C 
ATOM      3  C   UNL     1       0.720   9.529  20.456  0.00  0.00    +0.000 A 
ATOM      4  C   UNL     1       0.984  10.097  19.211  0.00  0.00    +0.000 A 
ATOM      5  C   UNL     1       0.539  11.351  18.841  0.00  0.00    +0.000 A 
ATOM      6  C   UNL     1      -0.204  12.064  19.778  0.00  0.00    +0.000 A 
ATOM      7  C   UNL     1      -0.471  11.513  21.046  0.00  0.00    +0.000 A 
ATOM      8  C   UNL     1      -0.008  10.231  21.410  0.00  0.00    +0.000 A 
ATOM      9  C   UNL     1       1.775   9.152  18.419  0.00  0.00    +0.000 C 
ATOM     10  O   UNL     1       2.131   9.399  17.282  0.00  0.00    +0.000 OA
ENDROOT
BRANCH   1  13
ATOM     11  C   UNL     1       3.268   4.521  19.165  0.00  0.00    +0.000 A 
ATOM     12  C   UNL     1       2.554   5.668  19.539  0.00  0.00    +0.000 A 
ATOM     13  C   UNL     1       2.720   6.883  18.858  0.00  0.00    +0.000 A 
ATOM     14  C   UNL     1       3.640   6.941  17.803  0.00  0.00    +0.000 A 
ATOM     15  C   UNL     1       4.392   5.818  17.455  0.00  0.00    +0.000 A 
ATOM     16  C   UNL     1       4.199   4.621  18.133  0.00  0.00    +0.000 A 
ATOM     17  F   UNL     1       4.913   3.547  17.771  0.00  0.00    +0.000 F 
BRANCH  11  18
ATOM     18  C   UNL     1       3.015   3.202  19.847  0.00  0.00    +0.000 C 
ATOM     19  F   UNL     1       4.177   2.637  20.298  0.00  0.00    +0.000 F 
BRANCH  18  21
ATOM     20  C   UNL     1       0.839   2.463  18.824  0.00  0.00    +0.000 C 
ATOM     21  C   UNL     1       2.334   2.196  18.920  0.00  0.00    +0.000 C 
ENDBRANCH  18  21
ENDBRANCH  11  18
ENDBRANCH   1  13
BRANCH   8  22
ATOM     22  C   UNL     1      -0.299   9.685  22.783  0.00  0.00    +0.000 C 
ATOM     23  F   UNL     1      -0.951   8.489  22.765  0.00  0.00    +0.000 F 
ATOM     24  F   UNL     1       0.832   9.479  23.511  0.00  0.00    +0.000 F 
ATOM     25  F   UNL     1      -1.078  10.521  23.522  0.00  0.00    +0.000 F 
ENDBRANCH   8  22
TORSDOF 4
ENDMDL
MODEL 6
REMARK VINA RESULT:      -8.2      4.444      6.900
REMARK  Name = 
REMARK  5 active torsions:
REMARK  status: ('A' for Active; 'I' for Inactive)
REMARK    1  A    between atoms: C_1  and  C_2
REMARK    2  A    between atoms: C_2  and  C_3
REMARK    3  A    between atoms: C_3  and  C_5
REMARK    4  A    between atoms: C_7  and  N_8
REMARK    5  A    between atoms: C_15  and  C_16
REMARK                            x       y       z     vdW  Elec       q    Type
REMARK                         _______ _______ _______ _____ _____    ______ ____
ROOT
ATOM      1  N   UNL     1       2.076   7.433  19.605  0.00  0.00    +0.000 N 
ATOM      2  C   UNL     1       1.378   7.806  20.827  0.00  0.00    +0.000 C 
ATOM      3  C   UNL     1       0.844   9.169  20.516  0.00  0.00    +0.000 A 
ATOM      4  C   UNL     1       1.207   9.520  19.217  0.00  0.00    +0.000 A 
ATOM      5  C   UNL     1       0.843  10.714  18.626  0.00  0.00    +0.000 A 
ATOM      6  C   UNL     1       0.080  11.594  19.388  0.00  0.00    +0.000 A 
ATOM      7  C   UNL     1      -0.286  11.264  20.707  0.00  0.00    +0.000 A 
ATOM      8  C   UNL     1       0.095  10.041  21.298  0.00  0.00    +0.000 A 
ATOM      9  C   UNL     1       1.998   8.432  18.637  0.00  0.00    +0.000 C 
ATOM     10  O   UNL     1       2.432   8.481  17.502  0.00  0.00    +0.000 OA
ENDROOT
BRANCH   1  13
ATOM     11  C   UNL     1       4.920   5.072  19.063  0.00  0.00    +0.000 A 
ATOM     12  C   UNL     1       4.165   6.252  19.127  0.00  0.00    +0.000 A 
ATOM     13  C   UNL     1       2.810   6.230  19.489  0.00  0.00    +0.000 A 
ATOM     14  C   UNL     1       2.208   4.995  19.762  0.00  0.00    +0.000 A 
ATOM     15  C   UNL     1       2.938   3.810  19.652  0.00  0.00    +0.000 A 
ATOM     16  C   UNL     1       4.283   3.858  19.309  0.00  0.00    +0.000 A 
ATOM     17  F   UNL     1       4.974   2.713  19.231  0.00  0.00    +0.000 F 
BRANCH  11  18
ATOM     18  C   UNL     1       6.394   5.119  18.760  0.00  0.00    +0.000 C 
ATOM     19  F   UNL     1       7.105   5.661  19.797  0.00  0.00    +0.000 F 
BRANCH  18  21
ATOM     20  C   UNL     1       7.594   7.126  17.832  0.00  0.00    +0.000 C 
ATOM     21  C   UNL     1       6.699   5.939  17.507  0.00  0.00    +0.000 C 
ENDBRANCH  18  21
ENDBRANCH  11  18
ENDBRANCH   1  13
BRANCH   8  22
ATOM     22  C   UNL     1      -0.302   9.732  22.718  0.00  0.00    +0.000 C 
ATOM     23  F   UNL     1      -1.057  10.706  23.296  0.00  0.00    +0.000 F 
ATOM     24  F   UNL     1      -1.034   8.589  22.815  0.00  0.00    +0.000 F 
ATOM     25  F   UNL     1       0.773   9.563  23.534  0.00  0.00    +0.000 F 
ENDBRANCH   8  22
TORSDOF 4
ENDMDL
MODEL 7
REMARK VINA RESULT:      -8.2      4.437      6.340
REMARK  Name = 
REMARK  5 active torsions:
REMARK  status: ('A' for Active; 'I' for Inactive)
REMARK    1  A    between atoms: C_1  and  C_2
REMARK    2  A    between atoms: C_2  and  C_3
REMARK    3  A    between atoms: C_3  and  C_5
REMARK    4  A    between atoms: C_7  and  N_8
REMARK    5  A    between atoms: C_15  and  C_16
REMARK                            x       y       z     vdW  Elec       q    Type
REMARK                         _______ _______ _______ _____ _____    ______ ____
ROOT
ATOM      1  N   UNL     1       1.951   7.946  19.062  0.00  0.00    +0.000 N 
ATOM      2  C   UNL     1       1.343   8.084  20.377  0.00  0.00    +0.000 C 
ATOM      3  C   UNL     1       0.847   9.496  20.380  0.00  0.00    +0.000 A 
ATOM      4  C   UNL     1       1.147  10.092  19.157  0.00  0.00    +0.000 A 
ATOM      5  C   UNL     1       0.797  11.391  18.842  0.00  0.00    +0.000 A 
ATOM      6  C   UNL     1       0.117  12.120  19.813  0.00  0.00    +0.000 A 
ATOM      7  C   UNL     1      -0.184  11.540  21.060  0.00  0.00    +0.000 A 
ATOM      8  C   UNL     1       0.182  10.213  21.368  0.00  0.00    +0.000 A 
ATOM      9  C   UNL     1       1.857   9.122  18.320  0.00  0.00    +0.000 C 
ATOM     10  O   UNL     1       2.225   9.387  17.191  0.00  0.00    +0.000 OA
ENDROOT
BRANCH   1  13
ATOM     11  C   UNL     1       4.487   5.695  17.493  0.00  0.00    +0.000 A 
ATOM     12  C   UNL     1       3.773   6.847  17.853  0.00  0.00    +0.000 A 
ATOM     13  C   UNL     1       2.628   6.772  18.659  0.00  0.00    +0.000 A 
ATOM     14  C   UNL     1       2.187   5.511  19.083  0.00  0.00    +0.000 A 
ATOM     15  C   UNL     1       2.861   4.354  18.689  0.00  0.00    +0.000 A 
ATOM     16  C   UNL     1       4.003   4.455  17.904  0.00  0.00    +0.000 A 
ATOM     17  F   UNL     1       4.652   3.336  17.554  0.00  0.00    +0.000 F 
BRANCH  11  18
ATOM     18  C   UNL     1       5.764   5.799  16.702  0.00  0.00    +0.000 C 
ATOM     19  F   UNL     1       6.343   7.031  16.839  0.00  0.00    +0.000 F 
BRANCH  18  21
ATOM     20  C   UNL     1       6.257   4.291  14.750  0.00  0.00    +0.000 C 
ATOM     21  C   UNL     1       5.540   5.552  15.211  0.00  0.00    +0.000 C 
ENDBRANCH  18  21
ENDBRANCH  11  18
ENDBRANCH   1  13
BRANCH   8  22
ATOM     22  C   UNL     1      -0.143   9.635  22.721  0.00  0.00    +0.000 C 
ATOM     23  F   UNL     1      -0.907   8.510  22.663  0.00  0.00    +0.000 F 
ATOM     24  F   UNL     1       0.973   9.289  23.419  0.00  0.00    +0.000 F 
ATOM     25  F   UNL     1      -0.827  10.507  23.510  0.00  0.00    +0.000 F 
ENDBRANCH   8  22
TORSDOF 4
ENDMDL
MODEL 8
REMARK VINA RESULT:      -8.2      4.457      6.723
REMARK  Name = 
REMARK  5 active torsions:
REMARK  status: ('A' for Active; 'I' for Inactive)
REMARK    1  A    between atoms: C_1  and  C_2
REMARK    2  A    between atoms: C_2  and  C_3
REMARK    3  A    between atoms: C_3  and  C_5
REMARK    4  A    between atoms: C_7  and  N_8
REMARK    5  A    between atoms: C_15  and  C_16
REMARK                            x       y       z     vdW  Elec       q    Type
REMARK                         _______ _______ _______ _____ _____    ______ ____
ROOT
ATOM      1  N   UNL     1       1.966   7.844  19.022  0.00  0.00    +0.000 N 
ATOM      2  C   UNL     1       1.365   7.993  20.338  0.00  0.00    +0.000 C 
ATOM      3  C   UNL     1       0.882   9.409  20.338  0.00  0.00    +0.000 A 
ATOM      4  C   UNL     1       1.182   9.997  19.111  0.00  0.00    +0.000 A 
ATOM      5  C   UNL     1       0.843  11.298  18.792  0.00  0.00    +0.000 A 
ATOM      6  C   UNL     1       0.173  12.037  19.763  0.00  0.00    +0.000 A 
ATOM      7  C   UNL     1      -0.128  11.465  21.014  0.00  0.00    +0.000 A 
ATOM      8  C   UNL     1       0.228  10.136  21.326  0.00  0.00    +0.000 A 
ATOM      9  C   UNL     1       1.880   9.017  18.276  0.00  0.00    +0.000 C 
ATOM     10  O   UNL     1       2.245   9.274  17.144  0.00  0.00    +0.000 OA
ENDROOT
BRANCH   1  13
ATOM     11  C   UNL     1       4.701   5.401  18.305  0.00  0.00    +0.000 A 
ATOM     12  C   UNL     1       4.031   6.585  18.645  0.00  0.00    +0.000 A 
ATOM     13  C   UNL     1       2.630   6.662  18.621  0.00  0.00    +0.000 A 
ATOM     14  C   UNL     1       1.903   5.533  18.222  0.00  0.00    +0.000 A 
ATOM     15  C   UNL     1       2.562   4.365  17.833  0.00  0.00    +0.000 A 
ATOM     16  C   UNL     1       3.949   4.307  17.881  0.00  0.00    +0.000 A 
ATOM     17  F   UNL     1       4.564   3.171  17.526  0.00  0.00    +0.000 F 
BRANCH  11  18
ATOM     18  C   UNL     1       6.199   5.306  18.420  0.00  0.00    +0.000 C 
ATOM     19  F   UNL     1       6.629   5.634  19.677  0.00  0.00    +0.000 F 
BRANCH  18  21
ATOM     20  C   UNL     1       7.865   7.170  18.144  0.00  0.00    +0.000 C 
ATOM     21  C   UNL     1       6.912   6.224  17.428  0.00  0.00    +0.000 C 
ENDBRANCH  18  21
ENDBRANCH  11  18
ENDBRANCH   1  13
BRANCH   8  22
ATOM     22  C   UNL     1      -0.096   9.567  22.683  0.00  0.00    +0.000 C 
ATOM     23  F   UNL     1      -0.873   8.449  22.632  0.00  0.00    +0.000 F 
ATOM     24  F   UNL     1       1.019   9.212  23.376  0.00  0.00    +0.000 F 
ATOM     25  F   UNL     1      -0.767  10.449  23.471  0.00  0.00    +0.000 F 
ENDBRANCH   8  22
TORSDOF 4
ENDMDL
MODEL 9
REMARK VINA RESULT:      -7.9      4.416      6.419
REMARK  Name = 
REMARK  5 active torsions:
REMARK  status: ('A' for Active; 'I' for Inactive)
REMARK    1  A    between atoms: C_1  and  C_2
REMARK    2  A    between atoms: C_2  and  C_3
REMARK    3  A    between atoms: C_3  and  C_5
REMARK    4  A    between atoms: C_7  and  N_8
REMARK    5  A    between atoms: C_15  and  C_16
REMARK                            x       y       z     vdW  Elec       q    Type
REMARK                         _______ _______ _______ _____ _____    ______ ____
ROOT
ATOM      1  N   UNL     1       1.927   7.840  19.383  0.00  0.00    +0.000 N 
ATOM      2  C   UNL     1       1.286   8.069  20.669  0.00  0.00    +0.000 C 
ATOM      3  C   UNL     1       0.753   9.461  20.546  0.00  0.00    +0.000 A 
ATOM      4  C   UNL     1       1.063   9.963  19.283  0.00  0.00    +0.000 A 
ATOM      5  C   UNL     1       0.686  11.221  18.855  0.00  0.00    +0.000 A 
ATOM      6  C   UNL     1      -0.035  12.008  19.748  0.00  0.00    +0.000 A 
ATOM      7  C   UNL     1      -0.348  11.524  21.033  0.00  0.00    +0.000 A 
ATOM      8  C   UNL     1       0.047  10.238  21.458  0.00  0.00    +0.000 A 
ATOM      9  C   UNL     1       1.818   8.948  18.544  0.00  0.00    +0.000 C 
ATOM     10  O   UNL     1       2.203   9.129  17.405  0.00  0.00    +0.000 OA
ENDROOT
BRANCH   1  13
ATOM     11  C   UNL     1       4.099   5.375  17.604  0.00  0.00    +0.000 A 
ATOM     12  C   UNL     1       3.338   6.520  17.881  0.00  0.00    +0.000 A 
ATOM     13  C   UNL     1       2.643   6.657  19.092  0.00  0.00    +0.000 A 
ATOM     14  C   UNL     1       2.700   5.609  20.021  0.00  0.00    +0.000 A 
ATOM     15  C   UNL     1       3.414   4.444  19.733  0.00  0.00    +0.000 A 
ATOM     16  C   UNL     1       4.108   4.338  18.535  0.00  0.00    +0.000 A 
ATOM     17  F   UNL     1       4.807   3.223  18.285  0.00  0.00    +0.000 F 
BRANCH  11  18
ATOM     18  C   UNL     1       4.910   5.280  16.339  0.00  0.00    +0.000 C 
ATOM     19  F   UNL     1       4.658   4.116  15.664  0.00  0.00    +0.000 F 
BRANCH  18  21
ATOM     20  C   UNL     1       7.209   4.833  15.420  0.00  0.00    +0.000 C 
ATOM     21  C   UNL     1       6.412   5.346  16.611  0.00  0.00    +0.000 C 
ENDBRANCH  18  21
ENDBRANCH  11  18
ENDBRANCH   1  13
BRANCH   8  22
ATOM     22  C   UNL     1      -0.292   9.764  22.847  0.00  0.00    +0.000 C 
ATOM     23  F   UNL     1       0.802   9.508  23.616  0.00  0.00    +0.000 F 
ATOM     24  F   UNL     1      -1.028  10.674  23.540  0.00  0.00    +0.000 F 
ATOM     25  F   UNL     1      -1.019   8.614  22.842  0.00  0.00    +0.000 F 
ENDBRANCH   8  22
TORSDOF 4
ENDMDL
