MODEL 1
REMARK VINA RESULT:      -8.4      0.000      0.000
REMARK  Name = 
REMARK  4 active torsions:
REMARK  status: ('A' for Active; 'I' for Inactive)
REMARK    1  A    between atoms: C_2  and  C_19
REMARK    2  A    between atoms: N_3  and  C_4
REMARK    3  A    between atoms: C_9  and  S_10
REMARK    4  A    between atoms: S_10  and  N_13
REMARK                            x       y       z     vdW  Elec       q    Type
REMARK                         _______ _______ _______ _____ _____    ______ ____
ROOT
ATOM      1  C   UNL     1       2.282   6.072  20.201  0.00  0.00    +0.000 A 
ATOM      2  C   UNL     1       1.652   4.829  20.111  0.00  0.00    +0.000 A 
ATOM      3  C   UNL     1       2.371   3.684  19.789  0.00  0.00    +0.000 A 
ATOM      4  C   UNL     1       3.719   3.775  19.458  0.00  0.00    +0.000 A 
ATOM      5 CL   UNL     1       4.590   2.293  19.360  0.00  0.00    +0.000 Cl
ATOM      6  C   UNL     1       4.287   5.038  19.305  0.00  0.00    +0.000 A 
ATOM      7  C   UNL     1       3.577   6.197  19.693  0.00  0.00    +0.000 A 
ENDROOT
BRANCH   1  10
ATOM      8  O   UNL     1       1.698   8.643  19.043  0.00  0.00    +0.000 OA
ATOM      9  C   UNL     1       1.392   8.366  20.199  0.00  0.00    +0.000 C 
ATOM     10  N   UNL     1       1.653   7.158  20.849  0.00  0.00    +0.000 N 
ATOM     11  H   UNL     1       1.156   7.006  21.722  0.00  0.00    +0.000 HD
BRANCH   9  12
ATOM     12  C   UNL     1       0.632   9.381  20.961  0.00  0.00    +0.000 A 
ATOM     13  C   UNL     1       0.688   9.348  22.347  0.00  0.00    +0.000 A 
ATOM     14  N   UNL     1      -0.016  10.202  23.120  0.00  0.00    +0.000 NA
ATOM     15  C   UNL     1      -0.790  11.086  22.466  0.00  0.00    +0.000 A 
ATOM     16  C   UNL     1      -1.574  11.959  23.204  0.00  0.00    +0.000 A 
ATOM     17  C   UNL     1      -2.412  12.879  22.575  0.00  0.00    +0.000 A 
ATOM     18  C   UNL     1      -2.457  12.930  21.189  0.00  0.00    +0.000 A 
ATOM     19  C   UNL     1      -1.666  12.061  20.434  0.00  0.00    +0.000 A 
ATOM     20  C   UNL     1      -0.834  11.130  21.042  0.00  0.00    +0.000 A 
ATOM     21  N   UNL     1      -0.112  10.286  20.275  0.00  0.00    +0.000 NA
ENDBRANCH   9  12
ENDBRANCH   1  10
BRANCH   6  22
ATOM     22  S   UNL     1       5.819   5.235  18.448  0.00  0.00    +0.000 S 
ATOM     23  O   UNL     1       5.863   6.601  17.965  0.00  0.00    +0.000 OA
ATOM     24  O   UNL     1       6.866   4.744  19.312  0.00  0.00    +0.000 OA
BRANCH  22  25
ATOM     25  N   UNL     1       5.779   4.207  17.093  0.00  0.00    +0.000 NA
ATOM     26  C   UNL     1       7.030   4.057  16.313  0.00  0.00    +0.000 C 
ATOM     27  C   UNL     1       6.859   4.996  15.136  0.00  0.00    +0.000 C 
ATOM     28  C   UNL     1       5.389   4.853  14.792  0.00  0.00    +0.000 C 
ATOM     29  C   UNL     1       4.697   4.540  16.115  0.00  0.00    +0.000 C 
ENDBRANCH  22  25
ENDBRANCH   6  22
TORSDOF 4
ENDMDL
MODEL 2
REMARK VINA RESULT:      -8.2      1.432      1.746
REMARK  Name = 
REMARK  4 active torsions:
REMARK  status: ('A' for Active; 'I' for Inactive)
REMARK    1  A    between atoms: C_2  and  C_19
REMARK    2  A    between atoms: N_3  and  C_4
REMARK    3  A    between atoms: C_9  and  S_10
REMARK    4  A    between atoms: S_10  and  N_13
REMARK                            x       y       z     vdW  Elec       q    Type
REMARK                         _______ _______ _______ _____ _____    ______ ____
ROOT
ATOM      1  C   UNL     1       2.013   5.416  20.647  0.00  0.00    +0.000 A 
ATOM      2  C   UNL     1       1.803   4.199  21.296  0.00  0.00    +0.000 A 
ATOM      3  C   UNL     1       2.591   3.089  21.010  0.00  0.00    +0.000 A 
ATOM      4  C   UNL     1       3.544   3.152  20.000  0.00  0.00    +0.000 A 
ATOM      5 CL   UNL     1       4.660   1.843  19.912  0.00  0.00    +0.000 Cl
ATOM      6  C   UNL     1       3.584   4.282  19.186  0.00  0.00    +0.000 A 
ATOM      7  C   UNL     1       2.830   5.431  19.514  0.00  0.00    +0.000 A 
ENDROOT
BRANCH   1  10
ATOM      8  O   UNL     1       2.121   8.010  19.399  0.00  0.00    +0.000 OA
ATOM      9  C   UNL     1       1.551   7.827  20.471  0.00  0.00    +0.000 C 
ATOM     10  N   UNL     1       1.468   6.615  21.158  0.00  0.00    +0.000 N 
ATOM     11  H   UNL     1       0.790   6.579  21.916  0.00  0.00    +0.000 HD
BRANCH   9  12
ATOM     12  C   UNL     1       0.845   8.982  21.069  0.00  0.00    +0.000 A 
ATOM     13  C   UNL     1       0.905   9.155  22.444  0.00  0.00    +0.000 A 
ATOM     14  N   UNL     1       0.246  10.149  23.077  0.00  0.00    +0.000 NA
ATOM     15  C   UNL     1      -0.486  10.960  22.295  0.00  0.00    +0.000 A 
ATOM     16  C   UNL     1      -1.223  11.972  22.890  0.00  0.00    +0.000 A 
ATOM     17  C   UNL     1      -2.019  12.826  22.127  0.00  0.00    +0.000 A 
ATOM     18  C   UNL     1      -2.067  12.670  20.749  0.00  0.00    +0.000 A 
ATOM     19  C   UNL     1      -1.322  11.660  20.136  0.00  0.00    +0.000 A 
ATOM     20  C   UNL     1      -0.534  10.792  20.881  0.00  0.00    +0.000 A 
ATOM     21  N   UNL     1       0.143   9.808  20.252  0.00  0.00    +0.000 NA
ENDBRANCH   9  12
ENDBRANCH   1  10
BRANCH   6  22
ATOM     22  S   UNL     1       4.420   4.238  17.630  0.00  0.00    +0.000 S 
ATOM     23  O   UNL     1       4.192   2.923  17.062  0.00  0.00    +0.000 OA
ATOM     24  O   UNL     1       4.030   5.417  16.893  0.00  0.00    +0.000 OA
BRANCH  22  25
ATOM     25  N   UNL     1       6.086   4.385  17.944  0.00  0.00    +0.000 NA
ATOM     26  C   UNL     1       6.500   5.349  18.991  0.00  0.00    +0.000 C 
ATOM     27  C   UNL     1       6.917   6.587  18.224  0.00  0.00    +0.000 C 
ATOM     28  C   UNL     1       7.602   6.019  16.997  0.00  0.00    +0.000 C 
ATOM     29  C   UNL     1       6.903   4.689  16.729  0.00  0.00    +0.000 C 
ENDBRANCH  22  25
ENDBRANCH   6  22
TORSDOF 4
ENDMDL
MODEL 3
REMARK VINA RESULT:      -8.2      2.138      2.748
REMARK  Name = 
REMARK  4 active torsions:
REMARK  status: ('A' for Active; 'I' for Inactive)
REMARK    1  A    between atoms: C_2  and  C_19
REMARK    2  A    between atoms: N_3  and  C_4
REMARK    3  A    between atoms: C_9  and  S_10
REMARK    4  A    between atoms: S_10  and  N_13
REMARK                            x       y       z     vdW  Elec       q    Type
REMARK                         _______ _______ _______ _____ _____    ______ ____
ROOT
ATOM      1  C   UNL     1       2.665   6.615  18.372  0.00  0.00    +0.000 A 
ATOM      2  C   UNL     1       2.123   5.351  18.613  0.00  0.00    +0.000 A 
ATOM      3  C   UNL     1       2.785   4.198  18.205  0.00  0.00    +0.000 A 
ATOM      4  C   UNL     1       3.957   4.292  17.464  0.00  0.00    +0.000 A 
ATOM      5 CL   UNL     1       4.855   2.837  17.255  0.00  0.00    +0.000 Cl
ATOM      6  C   UNL     1       4.364   5.545  17.010  0.00  0.00    +0.000 A 
ATOM      7  C   UNL     1       3.731   6.719  17.476  0.00  0.00    +0.000 A 
ENDROOT
BRANCH   1  10
ATOM      8  O   UNL     1       1.853   9.116  17.197  0.00  0.00    +0.000 OA
ATOM      9  C   UNL     1       1.800   8.919  18.408  0.00  0.00    +0.000 C 
ATOM     10  N   UNL     1       2.192   7.751  19.066  0.00  0.00    +0.000 N 
ATOM     11  H   UNL     1       1.892   7.664  20.033  0.00  0.00    +0.000 HD
BRANCH   9  12
ATOM     12  C   UNL     1       1.224   9.993  19.245  0.00  0.00    +0.000 A 
ATOM     13  C   UNL     1       1.507  11.311  18.917  0.00  0.00    +0.000 A 
ATOM     14  N   UNL     1       1.067  12.351  19.658  0.00  0.00    +0.000 NA
ATOM     15  C   UNL     1       0.344  12.034  20.746  0.00  0.00    +0.000 A 
ATOM     16  C   UNL     1      -0.097  13.056  21.573  0.00  0.00    +0.000 A 
ATOM     17  C   UNL     1      -0.830  12.780  22.727  0.00  0.00    +0.000 A 
ATOM     18  C   UNL     1      -1.133  11.465  23.049  0.00  0.00    +0.000 A 
ATOM     19  C   UNL     1      -0.702  10.428  22.219  0.00  0.00    +0.000 A 
ATOM     20  C   UNL     1       0.040  10.681  21.073  0.00  0.00    +0.000 A 
ATOM     21  N   UNL     1       0.466   9.647  20.317  0.00  0.00    +0.000 NA
ENDBRANCH   9  12
ENDBRANCH   1  10
BRANCH   6  22
ATOM     22  S   UNL     1       5.544   5.685  15.704  0.00  0.00    +0.000 S 
ATOM     23  O   UNL     1       5.475   4.459  14.934  0.00  0.00    +0.000 OA
ATOM     24  O   UNL     1       5.324   6.956  15.053  0.00  0.00    +0.000 OA
BRANCH  22  25
ATOM     25  N   UNL     1       7.087   5.762  16.418  0.00  0.00    +0.000 NA
ATOM     26  C   UNL     1       7.461   4.674  17.353  0.00  0.00    +0.000 C 
ATOM     27  C   UNL     1       7.208   5.252  18.730  0.00  0.00    +0.000 C 
ATOM     28  C   UNL     1       7.640   6.698  18.582  0.00  0.00    +0.000 C 
ATOM     29  C   UNL     1       7.361   7.052  17.124  0.00  0.00    +0.000 C 
ENDBRANCH  22  25
ENDBRANCH   6  22
TORSDOF 4
ENDMDL
MODEL 4
REMARK VINA RESULT:      -8.2      1.269      1.538
REMARK  Name = 
REMARK  4 active torsions:
REMARK  status: ('A' for Active; 'I' for Inactive)
REMARK    1  A    between atoms: C_2  and  C_19
REMARK    2  A    between atoms: N_3  and  C_4
REMARK    3  A    between atoms: C_9  and  S_10
REMARK    4  A    between atoms: S_10  and  N_13
REMARK                            x       y       z     vdW  Elec       q    Type
REMARK                         _______ _______ _______ _____ _____    ______ ____
ROOT
ATOM      1  C   UNL     1       1.946   5.588  20.416  0.00  0.00    +0.000 A 
ATOM      2  C   UNL     1       1.303   4.365  20.614  0.00  0.00    +0.000 A 
ATOM      3  C   UNL     1       1.958   3.164  20.364  0.00  0.00    +0.000 A 
ATOM      4  C   UNL     1       3.238   3.166  19.821  0.00  0.00    +0.000 A 
ATOM      5 CL   UNL     1       4.076   1.661  19.818  0.00  0.00    +0.000 Cl
ATOM      6  C   UNL     1       3.781   4.375  19.392  0.00  0.00    +0.000 A 
ATOM      7  C   UNL     1       3.146   5.599  19.702  0.00  0.00    +0.000 A 
ENDROOT
BRANCH   1  10
ATOM      8  O   UNL     1       1.931   8.193  19.186  0.00  0.00    +0.000 OA
ATOM      9  C   UNL     1       1.449   7.996  20.298  0.00  0.00    +0.000 C 
ATOM     10  N   UNL     1       1.431   6.777  20.979  0.00  0.00    +0.000 N 
ATOM     11  H   UNL     1       0.815   6.729  21.787  0.00  0.00    +0.000 HD
BRANCH   9  12
ATOM     12  C   UNL     1       0.781   9.138  20.958  0.00  0.00    +0.000 A 
ATOM     13  C   UNL     1       0.854   9.239  22.340  0.00  0.00    +0.000 A 
ATOM     14  N   UNL     1       0.229  10.219  23.028  0.00  0.00    +0.000 NA
ATOM     15  C   UNL     1      -0.483  11.090  22.293  0.00  0.00    +0.000 A 
ATOM     16  C   UNL     1      -1.187  12.092  22.945  0.00  0.00    +0.000 A 
ATOM     17  C   UNL     1      -1.961  13.007  22.232  0.00  0.00    +0.000 A 
ATOM     18  C   UNL     1      -2.022  12.923  20.849  0.00  0.00    +0.000 A 
ATOM     19  C   UNL     1      -1.311  11.924  20.180  0.00  0.00    +0.000 A 
ATOM     20  C   UNL     1      -0.545  10.996  20.873  0.00  0.00    +0.000 A 
ATOM     21  N   UNL     1       0.099  10.026  20.190  0.00  0.00    +0.000 NA
ENDBRANCH   9  12
ENDBRANCH   1  10
BRANCH   6  22
ATOM     22  S   UNL     1       5.162   4.397  18.291  0.00  0.00    +0.000 S 
ATOM     23  O   UNL     1       6.336   4.069  19.075  0.00  0.00    +0.000 OA
ATOM     24  O   UNL     1       4.816   3.593  17.143  0.00  0.00    +0.000 OA
BRANCH  22  25
ATOM     25  N   UNL     1       5.341   5.995  17.733  0.00  0.00    +0.000 NA
ATOM     26  C   UNL     1       5.303   6.214  16.268  0.00  0.00    +0.000 C 
ATOM     27  C   UNL     1       6.759   6.307  15.859  0.00  0.00    +0.000 C 
ATOM     28  C   UNL     1       7.394   7.059  17.012  0.00  0.00    +0.000 C 
ATOM     29  C   UNL     1       6.573   6.676  18.240  0.00  0.00    +0.000 C 
ENDBRANCH  22  25
ENDBRANCH   6  22
TORSDOF 4
ENDMDL
MODEL 5
REMARK VINA RESULT:      -8.1      2.494      3.036
REMARK  Name = 
REMARK  4 active torsions:
REMARK  status: ('A' for Active; 'I' for Inactive)
REMARK    1  A    between atoms: C_2  and  C_19
REMARK    2  A    between atoms: N_3  and  C_4
REMARK    3  A    between atoms: C_9  and  S_10
REMARK    4  A    between atoms: S_10  and  N_13
REMARK                            x       y       z     vdW  Elec       q    Type
REMARK                         _______ _______ _______ _____ _____    ______ ____
ROOT
ATOM      1  C   UNL     1       2.122   6.759  19.821  0.00  0.00    +0.000 A 
ATOM      2  C   UNL     1       1.238   5.915  20.497  0.00  0.00    +0.000 A 
ATOM      3  C   UNL     1       1.579   4.597  20.776  0.00  0.00    +0.000 A 
ATOM      4  C   UNL     1       2.775   4.069  20.300  0.00  0.00    +0.000 A 
ATOM      5 CL   UNL     1       3.247   2.538  20.932  0.00  0.00    +0.000 Cl
ATOM      6  C   UNL     1       3.539   4.830  19.418  0.00  0.00    +0.000 A 
ATOM      7  C   UNL     1       3.227   6.189  19.185  0.00  0.00    +0.000 A 
ENDROOT
BRANCH   1  10
ATOM      8  O   UNL     1       1.481   8.418  17.555  0.00  0.00    +0.000 OA
ATOM      9  C   UNL     1       1.611   8.882  18.685  0.00  0.00    +0.000 C 
ATOM     10  N   UNL     1       1.940   8.160  19.834  0.00  0.00    +0.000 N 
ATOM     11  H   UNL     1       1.802   8.643  20.718  0.00  0.00    +0.000 HD
BRANCH   9  12
ATOM     12  C   UNL     1       1.344  10.326  18.859  0.00  0.00    +0.000 A 
ATOM     13  C   UNL     1       0.122  10.714  19.390  0.00  0.00    +0.000 A 
ATOM     14  N   UNL     1      -0.224  12.012  19.533  0.00  0.00    +0.000 NA
ATOM     15  C   UNL     1       0.682  12.912  19.118  0.00  0.00    +0.000 A 
ATOM     16  C   UNL     1       0.366  14.260  19.195  0.00  0.00    +0.000 A 
ATOM     17  C   UNL     1       1.261  15.234  18.755  0.00  0.00    +0.000 A 
ATOM     18  C   UNL     1       2.493  14.852  18.241  0.00  0.00    +0.000 A 
ATOM     19  C   UNL     1       2.826  13.498  18.166  0.00  0.00    +0.000 A 
ATOM     20  C   UNL     1       1.943  12.513  18.588  0.00  0.00    +0.000 A 
ATOM     21  N   UNL     1       2.292  11.214  18.466  0.00  0.00    +0.000 NA
ENDBRANCH   9  12
ENDBRANCH   1  10
BRANCH   6  22
ATOM     22  S   UNL     1       4.788   4.071  18.428  0.00  0.00    +0.000 S 
ATOM     23  O   UNL     1       5.982   3.981  19.246  0.00  0.00    +0.000 OA
ATOM     24  O   UNL     1       4.220   2.875  17.852  0.00  0.00    +0.000 OA
BRANCH  22  25
ATOM     25  N   UNL     1       5.123   5.125  17.135  0.00  0.00    +0.000 NA
ATOM     26  C   UNL     1       4.885   4.619  15.763  0.00  0.00    +0.000 C 
ATOM     27  C   UNL     1       6.252   4.189  15.273  0.00  0.00    +0.000 C 
ATOM     28  C   UNL     1       7.174   5.244  15.853  0.00  0.00    +0.000 C 
ATOM     29  C   UNL     1       6.512   5.682  17.155  0.00  0.00    +0.000 C 
ENDBRANCH  22  25
ENDBRANCH   6  22
TORSDOF 4
ENDMDL
MODEL 6
REMARK VINA RESULT:      -8.0      1.922      2.392
REMARK  Name = 
REMARK  4 active torsions:
REMARK  status: ('A' for Active; 'I' for Inactive)
REMARK    1  A    between atoms: C_2  and  C_19
REMARK    2  A    between atoms: N_3  and  C_4
REMARK    3  A    between atoms: C_9  and  S_10
REMARK    4  A    between atoms: S_10  and  N_13
REMARK                            x       y       z     vdW  Elec       q    Type
REMARK                         _______ _______ _______ _____ _____    ______ ____
ROOT
ATOM      1  C   UNL     1       2.743   5.852  18.448  0.00  0.00    +0.000 A 
ATOM      2  C   UNL     1       2.290   4.533  18.379  0.00  0.00    +0.000 A 
ATOM      3  C   UNL     1       3.022   3.558  17.712  0.00  0.00    +0.000 A 
ATOM      4  C   UNL     1       4.177   3.904  17.019  0.00  0.00    +0.000 A 
ATOM      5 CL   UNL     1       5.167   2.605  16.474  0.00  0.00    +0.000 Cl
ATOM      6  C   UNL     1       4.493   5.253  16.877  0.00  0.00    +0.000 A 
ATOM      7  C   UNL     1       3.788   6.238  17.605  0.00  0.00    +0.000 A 
ENDROOT
BRANCH   1  10
ATOM      8  O   UNL     1       1.893   8.554  17.926  0.00  0.00    +0.000 OA
ATOM      9  C   UNL     1       1.799   8.046  19.041  0.00  0.00    +0.000 C 
ATOM     10  N   UNL     1       2.204   6.756  19.390  0.00  0.00    +0.000 N 
ATOM     11  H   UNL     1       1.869   6.412  20.286  0.00  0.00    +0.000 HD
BRANCH   9  12
ATOM     12  C   UNL     1       1.153   8.851  20.100  0.00  0.00    +0.000 A 
ATOM     13  C   UNL     1       1.309   8.455  21.420  0.00  0.00    +0.000 A 
ATOM     14  N   UNL     1       0.710   9.100  22.444  0.00  0.00    +0.000 NA
ATOM     15  C   UNL     1      -0.061  10.148  22.109  0.00  0.00    +0.000 A 
ATOM     16  C   UNL     1      -0.741  10.823  23.111  0.00  0.00    +0.000 A 
ATOM     17  C   UNL     1      -1.573  11.902  22.814  0.00  0.00    +0.000 A 
ATOM     18  C   UNL     1      -1.717  12.315  21.497  0.00  0.00    +0.000 A 
ATOM     19  C   UNL     1      -1.031  11.648  20.479  0.00  0.00    +0.000 A 
ATOM     20  C   UNL     1      -0.208  10.564  20.754  0.00  0.00    +0.000 A 
ATOM     21  N   UNL     1       0.410   9.927  19.737  0.00  0.00    +0.000 NA
ENDBRANCH   9  12
ENDBRANCH   1  10
BRANCH   6  22
ATOM     22  S   UNL     1       5.645   5.780  15.646  0.00  0.00    +0.000 S 
ATOM     23  O   UNL     1       5.668   4.756  14.619  0.00  0.00    +0.000 OA
ATOM     24  O   UNL     1       5.315   7.142  15.295  0.00  0.00    +0.000 OA
BRANCH  22  25
ATOM     25  N   UNL     1       7.183   5.820  16.372  0.00  0.00    +0.000 NA
ATOM     26  C   UNL     1       7.572   4.662  17.212  0.00  0.00    +0.000 C 
ATOM     27  C   UNL     1       7.303   5.115  18.632  0.00  0.00    +0.000 C 
ATOM     28  C   UNL     1       7.711   6.575  18.612  0.00  0.00    +0.000 C 
ATOM     29  C   UNL     1       7.432   7.049  17.189  0.00  0.00    +0.000 C 
ENDBRANCH  22  25
ENDBRANCH   6  22
TORSDOF 4
ENDMDL
MODEL 7
REMARK VINA RESULT:      -8.0      1.843      2.154
REMARK  Name = 
REMARK  4 active torsions:
REMARK  status: ('A' for Active; 'I' for Inactive)
REMARK    1  A    between atoms: C_2  and  C_19
REMARK    2  A    between atoms: N_3  and  C_4
REMARK    3  A    between atoms: C_9  and  S_10
REMARK    4  A    between atoms: S_10  and  N_13
REMARK                            x       y       z     vdW  Elec       q    Type
REMARK                         _______ _______ _______ _____ _____    ______ ____
ROOT
ATOM      1  C   UNL     1       2.039   6.529  20.218  0.00  0.00    +0.000 A 
ATOM      2  C   UNL     1       1.215   5.526  20.733  0.00  0.00    +0.000 A 
ATOM      3  C   UNL     1       1.645   4.205  20.788  0.00  0.00    +0.000 A 
ATOM      4  C   UNL     1       2.872   3.847  20.242  0.00  0.00    +0.000 A 
ATOM      5 CL   UNL     1       3.447   2.265  20.610  0.00  0.00    +0.000 Cl
ATOM      6  C   UNL     1       3.581   4.795  19.508  0.00  0.00    +0.000 A 
ATOM      7  C   UNL     1       3.179   6.150  19.505  0.00  0.00    +0.000 A 
ENDROOT
BRANCH   1  10
ATOM      8  O   UNL     1       1.449   8.539  18.241  0.00  0.00    +0.000 OA
ATOM      9  C   UNL     1       1.468   8.794  19.442  0.00  0.00    +0.000 C 
ATOM     10  N   UNL     1       1.764   7.892  20.466  0.00  0.00    +0.000 N 
ATOM     11  H   UNL     1       1.532   8.198  21.408  0.00  0.00    +0.000 HD
BRANCH   9  12
ATOM     12  C   UNL     1       1.094  10.166  19.849  0.00  0.00    +0.000 A 
ATOM     13  C   UNL     1       0.883  10.422  21.196  0.00  0.00    +0.000 A 
ATOM     14  N   UNL     1       0.487  11.631  21.649  0.00  0.00    +0.000 NA
ATOM     15  C   UNL     1       0.295  12.576  20.712  0.00  0.00    +0.000 A 
ATOM     16  C   UNL     1      -0.156  13.825  21.109  0.00  0.00    +0.000 A 
ATOM     17  C   UNL     1      -0.394  14.833  20.176  0.00  0.00    +0.000 A 
ATOM     18  C   UNL     1      -0.166  14.588  18.829  0.00  0.00    +0.000 A 
ATOM     19  C   UNL     1       0.297  13.337  18.417  0.00  0.00    +0.000 A 
ATOM     20  C   UNL     1       0.528  12.316  19.331  0.00  0.00    +0.000 A 
ATOM     21  N   UNL     1       0.943  11.111  18.887  0.00  0.00    +0.000 NA
ENDBRANCH   9  12
ENDBRANCH   1  10
BRANCH   6  22
ATOM     22  S   UNL     1       4.877   4.299  18.415  0.00  0.00    +0.000 S 
ATOM     23  O   UNL     1       6.053   4.063  19.229  0.00  0.00    +0.000 OA
ATOM     24  O   UNL     1       4.359   3.243  17.578  0.00  0.00    +0.000 OA
BRANCH  22  25
ATOM     25  N   UNL     1       5.211   5.617  17.391  0.00  0.00    +0.000 NA
ATOM     26  C   UNL     1       5.329   5.340  15.940  0.00  0.00    +0.000 C 
ATOM     27  C   UNL     1       6.821   5.252  15.690  0.00  0.00    +0.000 C 
ATOM     28  C   UNL     1       7.387   6.324  16.600  0.00  0.00    +0.000 C 
ATOM     29  C   UNL     1       6.428   6.392  17.785  0.00  0.00    +0.000 C 
ENDBRANCH  22  25
ENDBRANCH   6  22
TORSDOF 4
ENDMDL
MODEL 8
REMARK VINA RESULT:      -7.9      1.512      2.060
REMARK  Name = 
REMARK  4 active torsions:
REMARK  status: ('A' for Active; 'I' for Inactive)
REMARK    1  A    between atoms: C_2  and  C_19
REMARK    2  A    between atoms: N_3  and  C_4
REMARK    3  A    between atoms: C_9  and  S_10
REMARK    4  A    between atoms: S_10  and  N_13
REMARK                            x       y       z     vdW  Elec       q    Type
REMARK                         _______ _______ _______ _____ _____    ______ ____
ROOT
ATOM      1  C   UNL     1       2.013   6.250  20.280  0.00  0.00    +0.000 A 
ATOM      2  C   UNL     1       1.323   5.158  20.810  0.00  0.00    +0.000 A 
ATOM      3  C   UNL     1       1.895   3.891  20.832  0.00  0.00    +0.000 A 
ATOM      4  C   UNL     1       3.133   3.674  20.237  0.00  0.00    +0.000 A 
ATOM      5 CL   UNL     1       3.890   2.161  20.562  0.00  0.00    +0.000 Cl
ATOM      6  C   UNL     1       3.707   4.701  19.492  0.00  0.00    +0.000 A 
ATOM      7  C   UNL     1       3.160   6.004  19.522  0.00  0.00    +0.000 A 
ENDROOT
BRANCH   1  10
ATOM      8  O   UNL     1       1.736   8.387  18.369  0.00  0.00    +0.000 OA
ATOM      9  C   UNL     1       1.476   8.541  19.559  0.00  0.00    +0.000 C 
ATOM     10  N   UNL     1       1.601   7.572  20.557  0.00  0.00    +0.000 N 
ATOM     11  H   UNL     1       1.150   7.786  21.443  0.00  0.00    +0.000 HD
BRANCH   9  12
ATOM     12  C   UNL     1       0.932   9.854  19.969  0.00  0.00    +0.000 A 
ATOM     13  C   UNL     1       1.181  10.954  19.162  0.00  0.00    +0.000 A 
ATOM     14  N   UNL     1       0.768  12.198  19.488  0.00  0.00    +0.000 NA
ATOM     15  C   UNL     1       0.109  12.313  20.653  0.00  0.00    +0.000 A 
ATOM     16  C   UNL     1      -0.299  13.572  21.066  0.00  0.00    +0.000 A 
ATOM     17  C   UNL     1      -0.965  13.749  22.278  0.00  0.00    +0.000 A 
ATOM     18  C   UNL     1      -1.234  12.649  23.081  0.00  0.00    +0.000 A 
ATOM     19  C   UNL     1      -0.835  11.375  22.672  0.00  0.00    +0.000 A 
ATOM     20  C   UNL     1      -0.160  11.180  21.474  0.00  0.00    +0.000 A 
ATOM     21  N   UNL     1       0.238   9.935  21.133  0.00  0.00    +0.000 NA
ENDBRANCH   9  12
ENDBRANCH   1  10
BRANCH   6  22
ATOM     22  S   UNL     1       5.008   4.360  18.347  0.00  0.00    +0.000 S 
ATOM     23  O   UNL     1       6.209   4.129  19.125  0.00  0.00    +0.000 OA
ATOM     24  O   UNL     1       4.533   3.344  17.439  0.00  0.00    +0.000 OA
BRANCH  22  25
ATOM     25  N   UNL     1       5.253   5.768  17.421  0.00  0.00    +0.000 NA
ATOM     26  C   UNL     1       5.345   5.610  15.951  0.00  0.00    +0.000 C 
ATOM     27  C   UNL     1       6.832   5.614  15.661  0.00  0.00    +0.000 C 
ATOM     28  C   UNL     1       7.372   6.640  16.638  0.00  0.00    +0.000 C 
ATOM     29  C   UNL     1       6.442   6.569  17.846  0.00  0.00    +0.000 C 
ENDBRANCH  22  25
ENDBRANCH   6  22
TORSDOF 4
ENDMDL
MODEL 9
REMARK VINA RESULT:      -7.9      2.049      2.675
REMARK  Name = 
REMARK  4 active torsions:
REMARK  status: ('A' for Active; 'I' for Inactive)
REMARK    1  A    between atoms: C_2  and  C_19
REMARK    2  A    between atoms: N_3  and  C_4
REMARK    3  A    between atoms: C_9  and  S_10
REMARK    4  A    between atoms: S_10  and  N_13
REMARK                            x       y       z     vdW  Elec       q    Type
REMARK                         _______ _______ _______ _____ _____    ______ ____
ROOT
ATOM      1  C   UNL     1       2.123   6.787  19.796  0.00  0.00    +0.000 A 
ATOM      2  C   UNL     1       1.257   5.971  20.527  0.00  0.00    +0.000 A 
ATOM      3  C   UNL     1       1.611   4.669  20.860  0.00  0.00    +0.000 A 
ATOM      4  C   UNL     1       2.800   4.126  20.387  0.00  0.00    +0.000 A 
ATOM      5 CL   UNL     1       3.293   2.628  21.080  0.00  0.00    +0.000 Cl
ATOM      6  C   UNL     1       3.543   4.849  19.456  0.00  0.00    +0.000 A 
ATOM      7  C   UNL     1       3.219   6.194  19.167  0.00  0.00    +0.000 A 
ENDROOT
BRANCH   1  10
ATOM      8  O   UNL     1       1.630   8.363  17.436  0.00  0.00    +0.000 OA
ATOM      9  C   UNL     1       1.679   8.866  18.556  0.00  0.00    +0.000 C 
ATOM     10  N   UNL     1       1.933   8.186  19.748  0.00  0.00    +0.000 N 
ATOM     11  H   UNL     1       1.732   8.698  20.603  0.00  0.00    +0.000 HD
BRANCH   9  12
ATOM     12  C   UNL     1       1.393  10.313  18.661  0.00  0.00    +0.000 A 
ATOM     13  C   UNL     1       2.324  11.209  18.156  0.00  0.00    +0.000 A 
ATOM     14  N   UNL     1       2.169  12.547  18.258  0.00  0.00    +0.000 NA
ATOM     15  C   UNL     1       1.060  12.964  18.892  0.00  0.00    +0.000 A 
ATOM     16  C   UNL     1       0.866  14.325  19.071  0.00  0.00    +0.000 A 
ATOM     17  C   UNL     1      -0.255  14.809  19.743  0.00  0.00    +0.000 A 
ATOM     18  C   UNL     1      -1.199  13.918  20.233  0.00  0.00    +0.000 A 
ATOM     19  C   UNL     1      -1.020  12.544  20.052  0.00  0.00    +0.000 A 
ATOM     20  C   UNL     1       0.097  12.043  19.396  0.00  0.00    +0.000 A 
ATOM     21  N   UNL     1       0.248  10.707  19.273  0.00  0.00    +0.000 NA
ENDBRANCH   9  12
ENDBRANCH   1  10
BRANCH   6  22
ATOM     22  S   UNL     1       4.778   4.051  18.478  0.00  0.00    +0.000 S 
ATOM     23  O   UNL     1       5.990   4.013  19.272  0.00  0.00    +0.000 OA
ATOM     24  O   UNL     1       4.209   2.822  17.977  0.00  0.00    +0.000 OA
BRANCH  22  25
ATOM     25  N   UNL     1       5.074   5.040  17.126  0.00  0.00    +0.000 NA
ATOM     26  C   UNL     1       4.842   4.452  15.786  0.00  0.00    +0.000 C 
ATOM     27  C   UNL     1       6.218   4.034  15.310  0.00  0.00    +0.000 C 
ATOM     28  C   UNL     1       7.112   5.146  15.823  0.00  0.00    +0.000 C 
ATOM     29  C   UNL     1       6.446   5.637  17.105  0.00  0.00    +0.000 C 
ENDBRANCH  22  25
ENDBRANCH   6  22
TORSDOF 4
ENDMDL
