MODEL 1
REMARK VINA RESULT:      -8.1      0.000      0.000
REMARK  Name = 
REMARK  8 active torsions:
REMARK  status: ('A' for Active; 'I' for Inactive)
REMARK    1  A    between atoms: C_1  and  C_2
REMARK    2  A    between atoms: C_2  and  C_10
REMARK    3  A    between atoms: C_3  and  C_4
REMARK    4  A    between atoms: N_8  and  C_9
REMARK    5  A    between atoms: C_14  and  N_15
REMARK    6  A    between atoms: C_16  and  C_18
REMARK    7  A    between atoms: C_22  and  C_23
REMARK    8  A    between atoms: C_23  and  C_24
REMARK                            x       y       z     vdW  Elec       q    Type
REMARK                         _______ _______ _______ _____ _____    ______ ____
ROOT
ATOM      1  C   UNL     1      -0.154  10.054  19.762  0.00  0.00    +0.000 A 
ATOM      2  C   UNL     1      -0.500  10.348  21.088  0.00  0.00    +0.000 A 
ATOM      3  C   UNL     1       0.169   9.732  22.136  0.00  0.00    +0.000 A 
ATOM      4  C   UNL     1       1.160   8.791  21.869  0.00  0.00    +0.000 A 
ATOM      5  C   UNL     1       1.495   8.437  20.557  0.00  0.00    +0.000 A 
ATOM      6  C   UNL     1       0.859   9.108  19.500  0.00  0.00    +0.000 A 
ENDROOT
BRANCH   5   7
ATOM      7  N   UNL     1       2.426   7.404  20.275  0.00  0.00    +0.000 N 
ATOM      8  C   UNL     1       2.139   6.041  20.291  0.00  0.00    +0.000 C 
ATOM      9  O   UNL     1       1.058   5.533  20.580  0.00  0.00    +0.000 OA
ATOM     10  H   UNL     1       3.335   7.655  19.896  0.00  0.00    +0.000 HD
BRANCH   8  11
ATOM     11  C   UNL     1       3.246   5.127  19.868  0.00  0.00    +0.000 A 
ATOM     12  C   UNL     1       3.010   3.754  19.863  0.00  0.00    +0.000 A 
ATOM     13  C   UNL     1       4.025   2.903  19.455  0.00  0.00    +0.000 A 
ATOM     14  C   UNL     1       5.244   3.449  19.067  0.00  0.00    +0.000 A 
ATOM     15  C   UNL     1       5.421   4.835  19.101  0.00  0.00    +0.000 A 
ATOM     16  N   UNL     1       4.426   5.690  19.494  0.00  0.00    +0.000 NA
BRANCH  15  17
ATOM     17  C   UNL     1       6.758   5.419  18.665  0.00  0.00    +0.000 C 
ATOM     18  C   UNL     1       7.412   4.556  17.600  0.00  0.00    +0.000 C 
ATOM     19  F   UNL     1       6.643   6.683  18.148  0.00  0.00    +0.000 F 
ATOM     20  F   UNL     1       7.631   5.544  19.708  0.00  0.00    +0.000 F 
ENDBRANCH  15  17
ENDBRANCH   8  11
ENDBRANCH   5   7
BRANCH   1  22
ATOM     21  C   UNL     1      -0.689  12.223  18.612  0.00  0.00    +0.000 C 
ATOM     22  C   UNL     1      -0.921  10.735  18.693  0.00  0.00    +0.000 C 
ATOM     23  C   UNL     1      -1.831  10.011  18.010  0.00  0.00    +0.000 C 
BRANCH  23  24
ATOM     24  C   UNL     1      -2.685  10.560  17.016  0.00  0.00    +0.000 A 
ATOM     25  N   UNL     1      -2.581  10.577  15.699  0.00  0.00    +0.000 NA
ATOM     26  N   UNL     1      -3.670  11.231  15.173  0.00  0.00    +0.000 NA
ATOM     27  C   UNL     1      -4.427  11.601  16.176  0.00  0.00    +0.000 A 
ATOM     28  N   UNL     1      -3.854  11.210  17.348  0.00  0.00    +0.000 N 
ATOM     29  C   UNL     1      -4.383  11.502  18.655  0.00  0.00    +0.000 C 
ENDBRANCH  23  24
ENDBRANCH   1  22
TORSDOF 5
ENDMDL
MODEL 2
REMARK VINA RESULT:      -8.1      2.663      3.535
REMARK  Name = 
REMARK  8 active torsions:
REMARK  status: ('A' for Active; 'I' for Inactive)
REMARK    1  A    between atoms: C_1  and  C_2
REMARK    2  A    between atoms: C_2  and  C_10
REMARK    3  A    between atoms: C_3  and  C_4
REMARK    4  A    between atoms: N_8  and  C_9
REMARK    5  A    between atoms: C_14  and  N_15
REMARK    6  A    between atoms: C_16  and  C_18
REMARK    7  A    between atoms: C_22  and  C_23
REMARK    8  A    between atoms: C_23  and  C_24
REMARK                            x       y       z     vdW  Elec       q    Type
REMARK                         _______ _______ _______ _____ _____    ______ ____
ROOT
ATOM      1  C   UNL     1      -1.277  10.780  18.245  0.00  0.00    +0.000 A 
ATOM      2  C   UNL     1      -0.702  11.915  18.832  0.00  0.00    +0.000 A 
ATOM      3  C   UNL     1       0.673  11.990  19.006  0.00  0.00    +0.000 A 
ATOM      4  C   UNL     1       1.479  10.919  18.630  0.00  0.00    +0.000 A 
ATOM      5  C   UNL     1       0.933   9.751  18.087  0.00  0.00    +0.000 A 
ATOM      6  C   UNL     1      -0.452   9.704  17.856  0.00  0.00    +0.000 A 
ENDROOT
BRANCH   5   7
ATOM      7  N   UNL     1       1.732   8.614  17.800  0.00  0.00    +0.000 N 
ATOM      8  C   UNL     1       2.218   7.717  18.748  0.00  0.00    +0.000 C 
ATOM      9  O   UNL     1       2.056   7.791  19.964  0.00  0.00    +0.000 OA
ATOM     10  H   UNL     1       1.855   8.335  16.830  0.00  0.00    +0.000 HD
BRANCH   8  11
ATOM     11  C   UNL     1       2.961   6.531  18.217  0.00  0.00    +0.000 A 
ATOM     12  C   UNL     1       4.061   6.752  17.391  0.00  0.00    +0.000 A 
ATOM     13  C   UNL     1       4.766   5.659  16.909  0.00  0.00    +0.000 A 
ATOM     14  C   UNL     1       4.348   4.381  17.266  0.00  0.00    +0.000 A 
ATOM     15  C   UNL     1       3.232   4.226  18.092  0.00  0.00    +0.000 A 
ATOM     16  N   UNL     1       2.530   5.295  18.582  0.00  0.00    +0.000 NA
BRANCH  15  17
ATOM     17  C   UNL     1       2.791   2.821  18.481  0.00  0.00    +0.000 C 
ATOM     18  C   UNL     1       1.277   2.717  18.537  0.00  0.00    +0.000 C 
ATOM     19  F   UNL     1       3.231   1.864  17.604  0.00  0.00    +0.000 F 
ATOM     20  F   UNL     1       3.290   2.442  19.694  0.00  0.00    +0.000 F 
ENDBRANCH  15  17
ENDBRANCH   8  11
ENDBRANCH   5   7
BRANCH   1  22
ATOM     21  C   UNL     1      -3.287   9.590  17.321  0.00  0.00    +0.000 C 
ATOM     22  C   UNL     1      -2.751  10.760  18.107  0.00  0.00    +0.000 C 
ATOM     23  C   UNL     1      -3.442  11.828  18.557  0.00  0.00    +0.000 C 
BRANCH  23  24
ATOM     24  C   UNL     1      -4.849  11.970  18.416  0.00  0.00    +0.000 A 
ATOM     25  N   UNL     1      -5.625  11.884  17.350  0.00  0.00    +0.000 NA
ATOM     26  N   UNL     1      -6.929  12.098  17.729  0.00  0.00    +0.000 NA
ATOM     27  C   UNL     1      -6.932  12.309  19.022  0.00  0.00    +0.000 A 
ATOM     28  N   UNL     1      -5.657  12.244  19.498  0.00  0.00    +0.000 N 
ATOM     29  C   UNL     1      -5.281  12.484  20.866  0.00  0.00    +0.000 C 
ENDBRANCH  23  24
ENDBRANCH   1  22
TORSDOF 5
ENDMDL
MODEL 3
REMARK VINA RESULT:      -8.0      2.343      2.898
REMARK  Name = 
REMARK  8 active torsions:
REMARK  status: ('A' for Active; 'I' for Inactive)
REMARK    1  A    between atoms: C_1  and  C_2
REMARK    2  A    between atoms: C_2  and  C_10
REMARK    3  A    between atoms: C_3  and  C_4
REMARK    4  A    between atoms: N_8  and  C_9
REMARK    5  A    between atoms: C_14  and  N_15
REMARK    6  A    between atoms: C_16  and  C_18
REMARK    7  A    between atoms: C_22  and  C_23
REMARK    8  A    between atoms: C_23  and  C_24
REMARK                            x       y       z     vdW  Elec       q    Type
REMARK                         _______ _______ _______ _____ _____    ______ ____
ROOT
ATOM      1  C   UNL     1      -1.219  10.682  18.239  0.00  0.00    +0.000 A 
ATOM      2  C   UNL     1      -0.616  11.817  18.797  0.00  0.00    +0.000 A 
ATOM      3  C   UNL     1       0.765  11.881  18.927  0.00  0.00    +0.000 A 
ATOM      4  C   UNL     1       1.549  10.798  18.536  0.00  0.00    +0.000 A 
ATOM      5  C   UNL     1       0.974   9.631  18.021  0.00  0.00    +0.000 A 
ATOM      6  C   UNL     1      -0.417   9.595  17.834  0.00  0.00    +0.000 A 
ENDROOT
BRANCH   5   7
ATOM      7  N   UNL     1       1.754   8.483  17.720  0.00  0.00    +0.000 N 
ATOM      8  C   UNL     1       2.238   7.576  18.659  0.00  0.00    +0.000 C 
ATOM      9  O   UNL     1       2.093   7.648  19.877  0.00  0.00    +0.000 OA
ATOM     10  H   UNL     1       1.860   8.207  16.748  0.00  0.00    +0.000 HD
BRANCH   8  11
ATOM     11  C   UNL     1       2.958   6.382  18.113  0.00  0.00    +0.000 A 
ATOM     12  C   UNL     1       2.292   5.159  18.087  0.00  0.00    +0.000 A 
ATOM     13  C   UNL     1       2.945   4.052  17.567  0.00  0.00    +0.000 A 
ATOM     14  C   UNL     1       4.244   4.202  17.092  0.00  0.00    +0.000 A 
ATOM     15  C   UNL     1       4.860   5.454  17.153  0.00  0.00    +0.000 A 
ATOM     16  N   UNL     1       4.226   6.558  17.657  0.00  0.00    +0.000 NA
BRANCH  15  17
ATOM     17  C   UNL     1       6.280   5.605  16.621  0.00  0.00    +0.000 C 
ATOM     18  C   UNL     1       7.044   6.668  17.392  0.00  0.00    +0.000 C 
ATOM     19  F   UNL     1       7.005   4.445  16.704  0.00  0.00    +0.000 F 
ATOM     20  F   UNL     1       6.302   5.939  15.298  0.00  0.00    +0.000 F 
ENDBRANCH  15  17
ENDBRANCH   8  11
ENDBRANCH   5   7
BRANCH   1  22
ATOM     21  C   UNL     1      -3.275   9.442  17.500  0.00  0.00    +0.000 C 
ATOM     22  C   UNL     1      -2.697  10.676  18.146  0.00  0.00    +0.000 C 
ATOM     23  C   UNL     1      -3.357  11.797  18.505  0.00  0.00    +0.000 C 
BRANCH  23  24
ATOM     24  C   UNL     1      -4.765  11.950  18.392  0.00  0.00    +0.000 A 
ATOM     25  N   UNL     1      -5.562  11.875  17.341  0.00  0.00    +0.000 NA
ATOM     26  N   UNL     1      -6.857  12.096  17.746  0.00  0.00    +0.000 NA
ATOM     27  C   UNL     1      -6.834  12.301  19.039  0.00  0.00    +0.000 A 
ATOM     28  N   UNL     1      -5.551  12.224  19.490  0.00  0.00    +0.000 N 
ATOM     29  C   UNL     1      -5.146  12.455  20.852  0.00  0.00    +0.000 C 
ENDBRANCH  23  24
ENDBRANCH   1  22
TORSDOF 5
ENDMDL
MODEL 4
REMARK VINA RESULT:      -7.9      0.784      1.241
REMARK  Name = 
REMARK  8 active torsions:
REMARK  status: ('A' for Active; 'I' for Inactive)
REMARK    1  A    between atoms: C_1  and  C_2
REMARK    2  A    between atoms: C_2  and  C_10
REMARK    3  A    between atoms: C_3  and  C_4
REMARK    4  A    between atoms: N_8  and  C_9
REMARK    5  A    between atoms: C_14  and  N_15
REMARK    6  A    between atoms: C_16  and  C_18
REMARK    7  A    between atoms: C_22  and  C_23
REMARK    8  A    between atoms: C_23  and  C_24
REMARK                            x       y       z     vdW  Elec       q    Type
REMARK                         _______ _______ _______ _____ _____    ______ ____
ROOT
ATOM      1  C   UNL     1      -0.339  10.159  20.210  0.00  0.00    +0.000 A 
ATOM      2  C   UNL     1      -0.475  10.301  21.598  0.00  0.00    +0.000 A 
ATOM      3  C   UNL     1       0.361   9.601  22.457  0.00  0.00    +0.000 A 
ATOM      4  C   UNL     1       1.313   8.726  21.938  0.00  0.00    +0.000 A 
ATOM      5  C   UNL     1       1.442   8.524  20.560  0.00  0.00    +0.000 A 
ATOM      6  C   UNL     1       0.636   9.280  19.693  0.00  0.00    +0.000 A 
ENDROOT
BRANCH   5   7
ATOM      7  N   UNL     1       2.334   7.557  20.026  0.00  0.00    +0.000 N 
ATOM      8  C   UNL     1       2.153   6.178  20.092  0.00  0.00    +0.000 C 
ATOM      9  O   UNL     1       1.222   5.596  20.644  0.00  0.00    +0.000 OA
ATOM     10  H   UNL     1       3.093   7.871  19.427  0.00  0.00    +0.000 HD
BRANCH   8  11
ATOM     11  C   UNL     1       3.170   5.343  19.378  0.00  0.00    +0.000 A 
ATOM     12  C   UNL     1       2.755   4.153  18.785  0.00  0.00    +0.000 A 
ATOM     13  C   UNL     1       3.687   3.383  18.107  0.00  0.00    +0.000 A 
ATOM     14  C   UNL     1       5.004   3.825  18.044  0.00  0.00    +0.000 A 
ATOM     15  C   UNL     1       5.359   5.025  18.666  0.00  0.00    +0.000 A 
ATOM     16  N   UNL     1       4.449   5.801  19.333  0.00  0.00    +0.000 NA
BRANCH  15  17
ATOM     17  C   UNL     1       6.804   5.501  18.582  0.00  0.00    +0.000 C 
ATOM     18  C   UNL     1       7.629   4.593  17.686  0.00  0.00    +0.000 C 
ATOM     19  F   UNL     1       6.917   6.772  18.084  0.00  0.00    +0.000 F 
ATOM     20  F   UNL     1       7.403   5.549  19.808  0.00  0.00    +0.000 F 
ENDBRANCH  15  17
ENDBRANCH   8  11
ENDBRANCH   5   7
BRANCH   1  22
ATOM     21  C   UNL     1      -1.073  12.416  19.388  0.00  0.00    +0.000 C 
ATOM     22  C   UNL     1      -1.276  10.922  19.354  0.00  0.00    +0.000 C 
ATOM     23  C   UNL     1      -2.279  10.246  18.757  0.00  0.00    +0.000 C 
BRANCH  23  24
ATOM     24  C   UNL     1      -3.289  10.868  17.975  0.00  0.00    +0.000 A 
ATOM     25  N   UNL     1      -4.289  11.658  18.322  0.00  0.00    +0.000 NA
ATOM     26  N   UNL     1      -4.995  12.006  17.195  0.00  0.00    +0.000 NA
ATOM     27  C   UNL     1      -4.415  11.427  16.174  0.00  0.00    +0.000 A 
ATOM     28  N   UNL     1      -3.346  10.701  16.608  0.00  0.00    +0.000 N 
ATOM     29  C   UNL     1      -2.512   9.886  15.764  0.00  0.00    +0.000 C 
ENDBRANCH  23  24
ENDBRANCH   1  22
TORSDOF 5
ENDMDL
MODEL 5
REMARK VINA RESULT:      -7.9      5.913      8.636
REMARK  Name = 
REMARK  8 active torsions:
REMARK  status: ('A' for Active; 'I' for Inactive)
REMARK    1  A    between atoms: C_1  and  C_2
REMARK    2  A    between atoms: C_2  and  C_10
REMARK    3  A    between atoms: C_3  and  C_4
REMARK    4  A    between atoms: N_8  and  C_9
REMARK    5  A    between atoms: C_14  and  N_15
REMARK    6  A    between atoms: C_16  and  C_18
REMARK    7  A    between atoms: C_22  and  C_23
REMARK    8  A    between atoms: C_23  and  C_24
REMARK                            x       y       z     vdW  Elec       q    Type
REMARK                         _______ _______ _______ _____ _____    ______ ____
ROOT
ATOM      1  C   UNL     1       5.393   4.884  17.459  0.00  0.00    +0.000 A 
ATOM      2  C   UNL     1       5.822   4.219  16.303  0.00  0.00    +0.000 A 
ATOM      3  C   UNL     1       6.787   4.792  15.485  0.00  0.00    +0.000 A 
ATOM      4  C   UNL     1       7.302   6.048  15.796  0.00  0.00    +0.000 A 
ATOM      5  C   UNL     1       6.859   6.761  16.916  0.00  0.00    +0.000 A 
ATOM      6  C   UNL     1       5.929   6.151  17.773  0.00  0.00    +0.000 A 
ENDROOT
BRANCH   5   7
ATOM      7  N   UNL     1       7.298   8.084  17.182  0.00  0.00    +0.000 N 
ATOM      8  C   UNL     1       8.197   8.442  18.184  0.00  0.00    +0.000 C 
ATOM      9  O   UNL     1       8.715   7.681  18.998  0.00  0.00    +0.000 OA
ATOM     10  H   UNL     1       7.063   8.819  16.522  0.00  0.00    +0.000 HD
BRANCH   8  11
ATOM     11  C   UNL     1       8.598   9.884  18.228  0.00  0.00    +0.000 A 
ATOM     12  C   UNL     1       7.891  10.794  17.445  0.00  0.00    +0.000 A 
ATOM     13  C   UNL     1       8.245  12.134  17.494  0.00  0.00    +0.000 A 
ATOM     14  C   UNL     1       9.293  12.522  18.322  0.00  0.00    +0.000 A 
ATOM     15  C   UNL     1       9.967  11.559  19.077  0.00  0.00    +0.000 A 
ATOM     16  N   UNL     1       9.626  10.233  19.046  0.00  0.00    +0.000 NA
BRANCH  15  17
ATOM     17  C   UNL     1      11.108  12.000  19.986  0.00  0.00    +0.000 C 
ATOM     18  C   UNL     1      11.440  13.467  19.775  0.00  0.00    +0.000 C 
ATOM     19  F   UNL     1      10.822  11.836  21.316  0.00  0.00    +0.000 F 
ATOM     20  F   UNL     1      12.243  11.271  19.777  0.00  0.00    +0.000 F 
ENDBRANCH  15  17
ENDBRANCH   8  11
ENDBRANCH   5   7
BRANCH   1  22
ATOM     21  C   UNL     1       4.884   3.366  19.395  0.00  0.00    +0.000 C 
ATOM     22  C   UNL     1       4.349   4.223  18.275  0.00  0.00    +0.000 C 
ATOM     23  C   UNL     1       3.068   4.329  17.867  0.00  0.00    +0.000 C 
BRANCH  23  24
ATOM     24  C   UNL     1       1.981   3.680  18.513  0.00  0.00    +0.000 A 
ATOM     25  N   UNL     1       1.264   2.629  18.156  0.00  0.00    +0.000 NA
ATOM     26  N   UNL     1       0.319   2.384  19.124  0.00  0.00    +0.000 NA
ATOM     27  C   UNL     1       0.473   3.286  20.060  0.00  0.00    +0.000 A 
ATOM     28  N   UNL     1       1.495   4.122  19.724  0.00  0.00    +0.000 N 
ATOM     29  C   UNL     1       1.904   5.267  20.496  0.00  0.00    +0.000 C 
ENDBRANCH  23  24
ENDBRANCH   1  22
TORSDOF 5
ENDMDL
MODEL 6
REMARK VINA RESULT:      -7.9      5.844      8.891
REMARK  Name = 
REMARK  8 active torsions:
REMARK  status: ('A' for Active; 'I' for Inactive)
REMARK    1  A    between atoms: C_1  and  C_2
REMARK    2  A    between atoms: C_2  and  C_10
REMARK    3  A    between atoms: C_3  and  C_4
REMARK    4  A    between atoms: N_8  and  C_9
REMARK    5  A    between atoms: C_14  and  N_15
REMARK    6  A    between atoms: C_16  and  C_18
REMARK    7  A    between atoms: C_22  and  C_23
REMARK    8  A    between atoms: C_23  and  C_24
REMARK                            x       y       z     vdW  Elec       q    Type
REMARK                         _______ _______ _______ _____ _____    ______ ____
ROOT
ATOM      1  C   UNL     1       5.355   4.686  17.354  0.00  0.00    +0.000 A 
ATOM      2  C   UNL     1       5.818   4.036  16.202  0.00  0.00    +0.000 A 
ATOM      3  C   UNL     1       6.788   4.630  15.407  0.00  0.00    +0.000 A 
ATOM      4  C   UNL     1       7.276   5.893  15.735  0.00  0.00    +0.000 A 
ATOM      5  C   UNL     1       6.799   6.591  16.850  0.00  0.00    +0.000 A 
ATOM      6  C   UNL     1       5.863   5.960  17.685  0.00  0.00    +0.000 A 
ENDROOT
BRANCH   5   7
ATOM      7  N   UNL     1       7.210   7.920  17.133  0.00  0.00    +0.000 N 
ATOM      8  C   UNL     1       8.108   8.284  18.133  0.00  0.00    +0.000 C 
ATOM      9  O   UNL     1       8.649   7.522  18.932  0.00  0.00    +0.000 OA
ATOM     10  H   UNL     1       6.953   8.659  16.485  0.00  0.00    +0.000 HD
BRANCH   8  11
ATOM     11  C   UNL     1       8.476   9.733  18.196  0.00  0.00    +0.000 A 
ATOM     12  C   UNL     1       7.793  10.628  17.375  0.00  0.00    +0.000 A 
ATOM     13  C   UNL     1       8.116  11.975  17.440  0.00  0.00    +0.000 A 
ATOM     14  C   UNL     1       9.111  12.385  18.321  0.00  0.00    +0.000 A 
ATOM     15  C   UNL     1       9.764  11.436  19.113  0.00  0.00    +0.000 A 
ATOM     16  N   UNL     1       9.452  10.104  19.066  0.00  0.00    +0.000 NA
BRANCH  15  17
ATOM     17  C   UNL     1      10.846  11.901  20.080  0.00  0.00    +0.000 C 
ATOM     18  C   UNL     1      11.045  13.405  19.998  0.00  0.00    +0.000 C 
ATOM     19  F   UNL     1      10.558  11.601  21.385  0.00  0.00    +0.000 F 
ATOM     20  F   UNL     1      12.047  11.298  19.837  0.00  0.00    +0.000 F 
ENDBRANCH  15  17
ENDBRANCH   8  11
ENDBRANCH   5   7
BRANCH   1  22
ATOM     21  C   UNL     1       3.216   3.369  17.318  0.00  0.00    +0.000 C 
ATOM     22  C   UNL     1       4.307   4.001  18.145  0.00  0.00    +0.000 C 
ATOM     23  C   UNL     1       4.348   4.126  19.487  0.00  0.00    +0.000 C 
BRANCH  23  24
ATOM     24  C   UNL     1       3.362   3.585  20.357  0.00  0.00    +0.000 A 
ATOM     25  N   UNL     1       3.261   2.392  20.915  0.00  0.00    +0.000 NA
ATOM     26  N   UNL     1       2.121   2.353  21.682  0.00  0.00    +0.000 NA
ATOM     27  C   UNL     1       1.542   3.524  21.584  0.00  0.00    +0.000 A 
ATOM     28  N   UNL     1       2.276   4.328  20.764  0.00  0.00    +0.000 N 
ATOM     29  C   UNL     1       1.904   5.666  20.384  0.00  0.00    +0.000 C 
ENDBRANCH  23  24
ENDBRANCH   1  22
TORSDOF 5
ENDMDL
MODEL 7
REMARK VINA RESULT:      -7.9      0.932      1.045
REMARK  Name = 
REMARK  8 active torsions:
REMARK  status: ('A' for Active; 'I' for Inactive)
REMARK    1  A    between atoms: C_1  and  C_2
REMARK    2  A    between atoms: C_2  and  C_10
REMARK    3  A    between atoms: C_3  and  C_4
REMARK    4  A    between atoms: N_8  and  C_9
REMARK    5  A    between atoms: C_14  and  N_15
REMARK    6  A    between atoms: C_16  and  C_18
REMARK    7  A    between atoms: C_22  and  C_23
REMARK    8  A    between atoms: C_23  and  C_24
REMARK                            x       y       z     vdW  Elec       q    Type
REMARK                         _______ _______ _______ _____ _____    ______ ____
ROOT
ATOM      1  C   UNL     1      -0.228  10.159  19.889  0.00  0.00    +0.000 A 
ATOM      2  C   UNL     1      -0.506  10.563  21.202  0.00  0.00    +0.000 A 
ATOM      3  C   UNL     1       0.160   9.976  22.269  0.00  0.00    +0.000 A 
ATOM      4  C   UNL     1       1.080   8.957  22.036  0.00  0.00    +0.000 A 
ATOM      5  C   UNL     1       1.344   8.496  20.742  0.00  0.00    +0.000 A 
ATOM      6  C   UNL     1       0.714   9.135  19.661  0.00  0.00    +0.000 A 
ENDROOT
BRANCH   5   7
ATOM      7  N   UNL     1       2.199   7.388  20.502  0.00  0.00    +0.000 N 
ATOM      8  C   UNL     1       2.580   6.929  19.243  0.00  0.00    +0.000 C 
ATOM      9  O   UNL     1       2.213   7.388  18.164  0.00  0.00    +0.000 OA
ATOM     10  H   UNL     1       2.691   6.971  21.287  0.00  0.00    +0.000 HD
BRANCH   8  11
ATOM     11  C   UNL     1       3.566   5.803  19.221  0.00  0.00    +0.000 A 
ATOM     12  C   UNL     1       3.119   4.521  19.533  0.00  0.00    +0.000 A 
ATOM     13  C   UNL     1       4.022   3.470  19.498  0.00  0.00    +0.000 A 
ATOM     14  C   UNL     1       5.344   3.733  19.153  0.00  0.00    +0.000 A 
ATOM     15  C   UNL     1       5.732   5.043  18.858  0.00  0.00    +0.000 A 
ATOM     16  N   UNL     1       4.850   6.090  18.881  0.00  0.00    +0.000 NA
BRANCH  15  17
ATOM     17  C   UNL     1       7.181   5.314  18.475  0.00  0.00    +0.000 C 
ATOM     18  C   UNL     1       7.288   6.520  17.556  0.00  0.00    +0.000 C 
ATOM     19  F   UNL     1       7.981   5.560  19.560  0.00  0.00    +0.000 F 
ATOM     20  F   UNL     1       7.757   4.247  17.847  0.00  0.00    +0.000 F 
ENDBRANCH  15  17
ENDBRANCH   8  11
ENDBRANCH   5   7
BRANCH   1  22
ATOM     21  C   UNL     1      -0.840  12.316  18.756  0.00  0.00    +0.000 C 
ATOM     22  C   UNL     1      -0.988  10.816  18.801  0.00  0.00    +0.000 C 
ATOM     23  C   UNL     1      -1.826  10.054  18.067  0.00  0.00    +0.000 C 
BRANCH  23  24
ATOM     24  C   UNL     1      -2.668  10.572  17.047  0.00  0.00    +0.000 A 
ATOM     25  N   UNL     1      -2.520  10.603  15.735  0.00  0.00    +0.000 NA
ATOM     26  N   UNL     1      -3.618  11.212  15.175  0.00  0.00    +0.000 NA
ATOM     27  C   UNL     1      -4.424  11.544  16.154  0.00  0.00    +0.000 A 
ATOM     28  N   UNL     1      -3.874  11.170  17.343  0.00  0.00    +0.000 N 
ATOM     29  C   UNL     1      -4.459  11.430  18.633  0.00  0.00    +0.000 C 
ENDBRANCH  23  24
ENDBRANCH   1  22
TORSDOF 5
ENDMDL
MODEL 8
REMARK VINA RESULT:      -7.9      1.747      2.125
REMARK  Name = 
REMARK  8 active torsions:
REMARK  status: ('A' for Active; 'I' for Inactive)
REMARK    1  A    between atoms: C_1  and  C_2
REMARK    2  A    between atoms: C_2  and  C_10
REMARK    3  A    between atoms: C_3  and  C_4
REMARK    4  A    between atoms: N_8  and  C_9
REMARK    5  A    between atoms: C_14  and  N_15
REMARK    6  A    between atoms: C_16  and  C_18
REMARK    7  A    between atoms: C_22  and  C_23
REMARK    8  A    between atoms: C_23  and  C_24
REMARK                            x       y       z     vdW  Elec       q    Type
REMARK                         _______ _______ _______ _____ _____    ______ ____
ROOT
ATOM      1  C   UNL     1      -0.337  10.195  20.089  0.00  0.00    +0.000 A 
ATOM      2  C   UNL     1      -0.246  10.393  21.474  0.00  0.00    +0.000 A 
ATOM      3  C   UNL     1       0.664   9.663  22.225  0.00  0.00    +0.000 A 
ATOM      4  C   UNL     1       1.464   8.705  21.607  0.00  0.00    +0.000 A 
ATOM      5  C   UNL     1       1.363   8.447  20.235  0.00  0.00    +0.000 A 
ATOM      6  C   UNL     1       0.485   9.231  19.469  0.00  0.00    +0.000 A 
ENDROOT
BRANCH   5   7
ATOM      7  N   UNL     1       2.095   7.401  19.615  0.00  0.00    +0.000 N 
ATOM      8  C   UNL     1       2.691   7.478  18.358  0.00  0.00    +0.000 C 
ATOM      9  O   UNL     1       2.647   8.439  17.594  0.00  0.00    +0.000 OA
ATOM     10  H   UNL     1       2.333   6.579  20.163  0.00  0.00    +0.000 HD
BRANCH   8  11
ATOM     11  C   UNL     1       3.498   6.289  17.936  0.00  0.00    +0.000 A 
ATOM     12  C   UNL     1       2.857   5.057  17.824  0.00  0.00    +0.000 A 
ATOM     13  C   UNL     1       3.594   3.956  17.416  0.00  0.00    +0.000 A 
ATOM     14  C   UNL     1       4.946   4.119  17.135  0.00  0.00    +0.000 A 
ATOM     15  C   UNL     1       5.532   5.381  17.273  0.00  0.00    +0.000 A 
ATOM     16  N   UNL     1       4.817   6.480  17.668  0.00  0.00    +0.000 NA
BRANCH  15  17
ATOM     17  C   UNL     1       7.012   5.546  16.954  0.00  0.00    +0.000 C 
ATOM     18  C   UNL     1       7.544   6.864  17.490  0.00  0.00    +0.000 C 
ATOM     19  F   UNL     1       7.786   4.550  17.487  0.00  0.00    +0.000 F 
ATOM     20  F   UNL     1       7.257   5.502  15.611  0.00  0.00    +0.000 F 
ENDBRANCH  15  17
ENDBRANCH   8  11
ENDBRANCH   5   7
BRANCH   1  22
ATOM     21  C   UNL     1      -1.247  12.482  19.589  0.00  0.00    +0.000 C 
ATOM     22  C   UNL     1      -1.342  10.996  19.353  0.00  0.00    +0.000 C 
ATOM     23  C   UNL     1      -2.305  10.334  18.679  0.00  0.00    +0.000 C 
BRANCH  23  24
ATOM     24  C   UNL     1      -3.371  10.979  17.997  0.00  0.00    +0.000 A 
ATOM     25  N   UNL     1      -4.394  11.679  18.455  0.00  0.00    +0.000 NA
ATOM     26  N   UNL     1      -5.157  12.102  17.393  0.00  0.00    +0.000 NA
ATOM     27  C   UNL     1      -4.589  11.658  16.300  0.00  0.00    +0.000 A 
ATOM     28  N   UNL     1      -3.472  10.947  16.623  0.00  0.00    +0.000 N 
ATOM     29  C   UNL     1      -2.633  10.264  15.673  0.00  0.00    +0.000 C 
ENDBRANCH  23  24
ENDBRANCH   1  22
TORSDOF 5
ENDMDL
MODEL 9
REMARK VINA RESULT:      -7.8      1.111      1.250
REMARK  Name = 
REMARK  8 active torsions:
REMARK  status: ('A' for Active; 'I' for Inactive)
REMARK    1  A    between atoms: C_1  and  C_2
REMARK    2  A    between atoms: C_2  and  C_10
REMARK    3  A    between atoms: C_3  and  C_4
REMARK    4  A    between atoms: N_8  and  C_9
REMARK    5  A    between atoms: C_14  and  N_15
REMARK    6  A    between atoms: C_16  and  C_18
REMARK    7  A    between atoms: C_22  and  C_23
REMARK    8  A    between atoms: C_23  and  C_24
REMARK                            x       y       z     vdW  Elec       q    Type
REMARK                         _______ _______ _______ _____ _____    ______ ____
ROOT
ATOM      1  C   UNL     1      -0.340  10.153  19.785  0.00  0.00    +0.000 A 
ATOM      2  C   UNL     1      -0.504  10.217  21.175  0.00  0.00    +0.000 A 
ATOM      3  C   UNL     1       0.337   9.497  22.012  0.00  0.00    +0.000 A 
ATOM      4  C   UNL     1       1.323   8.678  21.466  0.00  0.00    +0.000 A 
ATOM      5  C   UNL     1       1.481   8.553  20.082  0.00  0.00    +0.000 A 
ATOM      6  C   UNL     1       0.669   9.331  19.241  0.00  0.00    +0.000 A 
ENDROOT
BRANCH   5   7
ATOM      7  N   UNL     1       2.411   7.642  19.515  0.00  0.00    +0.000 N 
ATOM      8  C   UNL     1       2.404   6.263  19.715  0.00  0.00    +0.000 C 
ATOM      9  O   UNL     1       1.622   5.639  20.429  0.00  0.00    +0.000 OA
ATOM     10  H   UNL     1       3.049   7.977  18.799  0.00  0.00    +0.000 HD
BRANCH   8  11
ATOM     11  C   UNL     1       3.418   5.478  18.943  0.00  0.00    +0.000 A 
ATOM     12  C   UNL     1       2.972   4.470  18.092  0.00  0.00    +0.000 A 
ATOM     13  C   UNL     1       3.904   3.750  17.361  0.00  0.00    +0.000 A 
ATOM     14  C   UNL     1       5.253   4.060  17.503  0.00  0.00    +0.000 A 
ATOM     15  C   UNL     1       5.637   5.079  18.379  0.00  0.00    +0.000 A 
ATOM     16  N   UNL     1       4.728   5.804  19.103  0.00  0.00    +0.000 NA
BRANCH  15  17
ATOM     17  C   UNL     1       7.117   5.413  18.519  0.00  0.00    +0.000 C 
ATOM     18  C   UNL     1       7.454   6.717  17.816  0.00  0.00    +0.000 C 
ATOM     19  F   UNL     1       7.512   5.542  19.824  0.00  0.00    +0.000 F 
ATOM     20  F   UNL     1       7.917   4.433  18.004  0.00  0.00    +0.000 F 
ENDBRANCH  15  17
ENDBRANCH   8  11
ENDBRANCH   5   7
BRANCH   1  22
ATOM     21  C   UNL     1      -0.903  12.383  18.774  0.00  0.00    +0.000 C 
ATOM     22  C   UNL     1      -1.283  10.934  18.953  0.00  0.00    +0.000 C 
ATOM     23  C   UNL     1      -2.428  10.335  18.566  0.00  0.00    +0.000 C 
BRANCH  23  24
ATOM     24  C   UNL     1      -3.451  10.995  17.832  0.00  0.00    +0.000 A 
ATOM     25  N   UNL     1      -3.715  11.010  16.538  0.00  0.00    +0.000 NA
ATOM     26  N   UNL     1      -4.819  11.799  16.316  0.00  0.00    +0.000 NA
ATOM     27  C   UNL     1      -5.215  12.254  17.479  0.00  0.00    +0.000 A 
ATOM     28  N   UNL     1      -4.392  11.784  18.458  0.00  0.00    +0.000 N 
ATOM     29  C   UNL     1      -4.496  12.129  19.851  0.00  0.00    +0.000 C 
ENDBRANCH  23  24
ENDBRANCH   1  22
TORSDOF 5
ENDMDL
