MODEL 1
REMARK VINA RESULT:      -8.7      0.000      0.000
REMARK  Name = 
REMARK  6 active torsions:
REMARK  status: ('A' for Active; 'I' for Inactive)
REMARK    1  A    between atoms: C_2  and  C_18
REMARK    2  A    between atoms: N_3  and  C_4
REMARK    3  A    between atoms: C_4  and  C_5
REMARK    4  A    between atoms: C_7  and  O_8
REMARK    5  A    between atoms: N_10  and  C_11
REMARK    6  A    between atoms: C_11  and  C_12
REMARK                            x       y       z     vdW  Elec       q    Type
REMARK                         _______ _______ _______ _____ _____    ______ ____
ROOT
ATOM      1  C   UNL     1       1.443   3.821  18.100  0.00  0.00    +0.000 C 
ENDROOT
BRANCH   1   2
ATOM      2  C   UNL     1       1.117   4.039  19.604  0.00  0.00    +0.000 C 
ATOM      3  C   UNL     1       1.239   2.705  20.365  0.00  0.00    +0.000 C 
ATOM      4  C   UNL     1       2.489   2.860  21.202  0.00  0.00    +0.000 C 
ATOM      5  C   UNL     1       2.453   4.330  21.588  0.00  0.00    +0.000 C 
ATOM      6  N   UNL     1       1.891   5.021  20.413  0.00  0.00    +0.000 NA
BRANCH   4   7
ATOM      7  O   UNL     1       3.642   2.548  20.418  0.00  0.00    +0.000 OA
ATOM      8  H   UNL     1       4.374   3.097  20.747  0.00  0.00    +0.000 HD
ENDBRANCH   4   7
BRANCH   6   9
ATOM      9  C   UNL     1       2.805   5.938  19.736  0.00  0.00    +0.000 C 
BRANCH   9  10
ATOM     10  C   UNL     1       2.206   7.315  19.467  0.00  0.00    +0.000 A 
ATOM     11  C   UNL     1       2.302   7.923  18.197  0.00  0.00    +0.000 A 
ATOM     12  C   UNL     1       1.743   9.176  17.952  0.00  0.00    +0.000 A 
ATOM     13  C   UNL     1       1.066   9.847  18.975  0.00  0.00    +0.000 A 
ATOM     14  C   UNL     1       0.957   9.264  20.241  0.00  0.00    +0.000 A 
ATOM     15  C   UNL     1       1.534   8.009  20.496  0.00  0.00    +0.000 A 
ENDBRANCH   9  10
ENDBRANCH   6   9
ENDBRANCH   1   2
BRANCH   1  18
ATOM     16  O   UNL     1       3.657   2.173  17.538  0.00  0.00    +0.000 OA
ATOM     17  C   UNL     1       3.806   3.387  17.434  0.00  0.00    +0.000 C 
ATOM     18  N   UNL     1       2.781   4.282  17.713  0.00  0.00    +0.000 N 
ATOM     19  H   UNL     1       2.918   5.267  17.514  0.00  0.00    +0.000 HD
BRANCH  17  20
ATOM     20  C   UNL     1       5.077   3.930  16.867  0.00  0.00    +0.000 A 
ATOM     21  C   UNL     1       5.371   3.654  15.515  0.00  0.00    +0.000 A 
ATOM     22  C   UNL     1       6.460   4.241  14.867  0.00  0.00    +0.000 A 
ATOM     23  C   UNL     1       7.231   5.208  15.508  0.00  0.00    +0.000 A 
ATOM     24  C   UNL     1       6.971   5.426  16.863  0.00  0.00    +0.000 A 
ATOM     25  N   UNL     1       7.535   6.322  17.742  0.00  0.00    +0.000 N 
ATOM     26  C   UNL     1       7.355   5.852  19.014  0.00  0.00    +0.000 A 
ATOM     27  C   UNL     1       6.315   4.951  18.962  0.00  0.00    +0.000 A 
ATOM     28  C   UNL     1       6.000   4.722  17.586  0.00  0.00    +0.000 A 
ATOM     29  H   UNL     1       8.093   7.123  17.478  0.00  0.00    +0.000 HD
ENDBRANCH  17  20
ENDBRANCH   1  18
TORSDOF 6
ENDMDL
MODEL 2
REMARK VINA RESULT:      -8.7      2.359      6.825
REMARK  Name = 
REMARK  6 active torsions:
REMARK  status: ('A' for Active; 'I' for Inactive)
REMARK    1  A    between atoms: C_2  and  C_18
REMARK    2  A    between atoms: N_3  and  C_4
REMARK    3  A    between atoms: C_4  and  C_5
REMARK    4  A    between atoms: C_7  and  O_8
REMARK    5  A    between atoms: N_10  and  C_11
REMARK    6  A    between atoms: C_11  and  C_12
REMARK                            x       y       z     vdW  Elec       q    Type
REMARK                         _______ _______ _______ _____ _____    ______ ____
ROOT
ATOM      1  C   UNL     1       5.361   7.050  17.315  0.00  0.00    +0.000 C 
ENDROOT
BRANCH   1   2
ATOM      2  C   UNL     1       6.860   6.681  17.129  0.00  0.00    +0.000 C 
ATOM      3  C   UNL     1       7.577   6.704  18.493  0.00  0.00    +0.000 C 
ATOM      4  C   UNL     1       7.848   5.249  18.802  0.00  0.00    +0.000 C 
ATOM      5  C   UNL     1       8.143   4.664  17.429  0.00  0.00    +0.000 C 
ATOM      6  N   UNL     1       7.250   5.386  16.505  0.00  0.00    +0.000 NA
BRANCH   4   7
ATOM      7  O   UNL     1       6.691   4.653  19.392  0.00  0.00    +0.000 OA
ATOM      8  H   UNL     1       6.991   3.881  19.903  0.00  0.00    +0.000 HD
ENDBRANCH   4   7
BRANCH   6   9
ATOM      9  C   UNL     1       6.224   4.567  15.866  0.00  0.00    +0.000 C 
BRANCH   9  10
ATOM     10  C   UNL     1       6.446   4.359  14.371  0.00  0.00    +0.000 A 
ATOM     11  C   UNL     1       5.636   3.479  13.622  0.00  0.00    +0.000 A 
ATOM     12  C   UNL     1       5.835   3.301  12.254  0.00  0.00    +0.000 A 
ATOM     13  C   UNL     1       6.847   4.011  11.601  0.00  0.00    +0.000 A 
ATOM     14  C   UNL     1       7.661   4.891  12.321  0.00  0.00    +0.000 A 
ATOM     15  C   UNL     1       7.474   5.059  13.704  0.00  0.00    +0.000 A 
ENDBRANCH   9  10
ENDBRANCH   6   9
ENDBRANCH   1   2
BRANCH   1  18
ATOM     16  O   UNL     1       2.573   7.032  17.715  0.00  0.00    +0.000 OA
ATOM     17  C   UNL     1       3.237   6.160  18.268  0.00  0.00    +0.000 C 
ATOM     18  N   UNL     1       4.619   6.100  18.151  0.00  0.00    +0.000 N 
ATOM     19  H   UNL     1       5.113   5.304  18.539  0.00  0.00    +0.000 HD
BRANCH  17  20
ATOM     20  C   UNL     1       2.543   5.047  18.984  0.00  0.00    +0.000 A 
ATOM     21  C   UNL     1       1.620   5.383  19.997  0.00  0.00    +0.000 A 
ATOM     22  C   UNL     1       0.824   4.415  20.613  0.00  0.00    +0.000 A 
ATOM     23  C   UNL     1       0.836   3.095  20.167  0.00  0.00    +0.000 A 
ATOM     24  C   UNL     1       1.797   2.762  19.209  0.00  0.00    +0.000 A 
ATOM     25  N   UNL     1       2.030   1.569  18.564  0.00  0.00    +0.000 N 
ATOM     26  C   UNL     1       3.326   1.561  18.125  0.00  0.00    +0.000 A 
ATOM     27  C   UNL     1       3.738   2.875  18.077  0.00  0.00    +0.000 A 
ATOM     28  C   UNL     1       2.729   3.675  18.701  0.00  0.00    +0.000 A 
ATOM     29  H   UNL     1       1.389   0.788  18.536  0.00  0.00    +0.000 HD
ENDBRANCH  17  20
ENDBRANCH   1  18
TORSDOF 6
ENDMDL
MODEL 3
REMARK VINA RESULT:      -8.5      2.661      7.296
REMARK  Name = 
REMARK  6 active torsions:
REMARK  status: ('A' for Active; 'I' for Inactive)
REMARK    1  A    between atoms: C_2  and  C_18
REMARK    2  A    between atoms: N_3  and  C_4
REMARK    3  A    between atoms: C_4  and  C_5
REMARK    4  A    between atoms: C_7  and  O_8
REMARK    5  A    between atoms: N_10  and  C_11
REMARK    6  A    between atoms: C_11  and  C_12
REMARK                            x       y       z     vdW  Elec       q    Type
REMARK                         _______ _______ _______ _____ _____    ______ ____
ROOT
ATOM      1  C   UNL     1       2.594   6.174  19.481  0.00  0.00    +0.000 C 
ENDROOT
BRANCH   1   2
ATOM      2  C   UNL     1       3.170   4.913  20.184  0.00  0.00    +0.000 C 
ATOM      3  C   UNL     1       2.212   4.454  21.300  0.00  0.00    +0.000 C 
ATOM      4  C   UNL     1       1.600   3.176  20.769  0.00  0.00    +0.000 C 
ATOM      5  C   UNL     1       2.751   2.548  20.000  0.00  0.00    +0.000 C 
ATOM      6  N   UNL     1       3.478   3.683  19.402  0.00  0.00    +0.000 NA
BRANCH   4   7
ATOM      7  O   UNL     1       0.497   3.483  19.914  0.00  0.00    +0.000 OA
ATOM      8  H   UNL     1       0.008   4.217  20.323  0.00  0.00    +0.000 HD
ENDBRANCH   4   7
BRANCH   6   9
ATOM      9  C   UNL     1       3.448   3.741  17.944  0.00  0.00    +0.000 C 
BRANCH   9  10
ATOM     10  C   UNL     1       4.796   4.080  17.314  0.00  0.00    +0.000 A 
ATOM     11  C   UNL     1       4.965   4.120  15.914  0.00  0.00    +0.000 A 
ATOM     12  C   UNL     1       6.195   4.441  15.343  0.00  0.00    +0.000 A 
ATOM     13  C   UNL     1       7.286   4.740  16.165  0.00  0.00    +0.000 A 
ATOM     14  C   UNL     1       7.143   4.709  17.556  0.00  0.00    +0.000 A 
ATOM     15  C   UNL     1       5.908   4.368  18.135  0.00  0.00    +0.000 A 
ENDBRANCH   9  10
ENDBRANCH   6   9
ENDBRANCH   1   2
BRANCH   1  18
ATOM     16  O   UNL     1       1.858   8.837  18.928  0.00  0.00    +0.000 OA
ATOM     17  C   UNL     1       1.519   8.361  20.008  0.00  0.00    +0.000 C 
ATOM     18  N   UNL     1       1.855   7.067  20.381  0.00  0.00    +0.000 N 
ATOM     19  H   UNL     1       1.465   6.682  21.235  0.00  0.00    +0.000 HD
BRANCH  17  20
ATOM     20  C   UNL     1       0.607   9.136  20.902  0.00  0.00    +0.000 A 
ATOM     21  C   UNL     1       0.638   8.856  22.284  0.00  0.00    +0.000 A 
ATOM     22  C   UNL     1      -0.072   9.630  23.205  0.00  0.00    +0.000 A 
ATOM     23  C   UNL     1      -0.748  10.778  22.798  0.00  0.00    +0.000 A 
ATOM     24  C   UNL     1      -0.824  11.009  21.422  0.00  0.00    +0.000 A 
ATOM     25  N   UNL     1      -1.387  12.056  20.728  0.00  0.00    +0.000 N 
ATOM     26  C   UNL     1      -1.672  11.631  19.460  0.00  0.00    +0.000 A 
ATOM     27  C   UNL     1      -0.889  10.521  19.227  0.00  0.00    +0.000 A 
ATOM     28  C   UNL     1      -0.272  10.152  20.462  0.00  0.00    +0.000 A 
ATOM     29  H   UNL     1      -1.656  12.943  21.132  0.00  0.00    +0.000 HD
ENDBRANCH  17  20
ENDBRANCH   1  18
TORSDOF 6
ENDMDL
MODEL 4
REMARK VINA RESULT:      -8.5      2.787      7.320
REMARK  Name = 
REMARK  6 active torsions:
REMARK  status: ('A' for Active; 'I' for Inactive)
REMARK    1  A    between atoms: C_2  and  C_18
REMARK    2  A    between atoms: N_3  and  C_4
REMARK    3  A    between atoms: C_4  and  C_5
REMARK    4  A    between atoms: C_7  and  O_8
REMARK    5  A    between atoms: N_10  and  C_11
REMARK    6  A    between atoms: C_11  and  C_12
REMARK                            x       y       z     vdW  Elec       q    Type
REMARK                         _______ _______ _______ _____ _____    ______ ____
ROOT
ATOM      1  C   UNL     1       2.789   6.624  19.049  0.00  0.00    +0.000 C 
ENDROOT
BRANCH   1   2
ATOM      2  C   UNL     1       3.030   5.140  19.444  0.00  0.00    +0.000 C 
ATOM      3  C   UNL     1       1.679   4.430  19.660  0.00  0.00    +0.000 C 
ATOM      4  C   UNL     1       1.549   3.498  18.476  0.00  0.00    +0.000 C 
ATOM      5  C   UNL     1       2.984   3.052  18.242  0.00  0.00    +0.000 C 
ATOM      6  N   UNL     1       3.808   4.234  18.553  0.00  0.00    +0.000 NA
BRANCH   4   7
ATOM      7  O   UNL     1       1.026   4.207  17.352  0.00  0.00    +0.000 OA
ATOM      8  H   UNL     1       0.407   4.875  17.693  0.00  0.00    +0.000 HD
ENDBRANCH   4   7
BRANCH   6   9
ATOM      9  C   UNL     1       4.533   4.802  17.420  0.00  0.00    +0.000 C 
BRANCH   9  10
ATOM     10  C   UNL     1       5.789   5.571  17.816  0.00  0.00    +0.000 A 
ATOM     11  C   UNL     1       6.600   5.152  18.891  0.00  0.00    +0.000 A 
ATOM     12  C   UNL     1       7.754   5.851  19.242  0.00  0.00    +0.000 A 
ATOM     13  C   UNL     1       8.127   6.985  18.515  0.00  0.00    +0.000 A 
ATOM     14  C   UNL     1       7.340   7.420  17.444  0.00  0.00    +0.000 A 
ATOM     15  C   UNL     1       6.168   6.727  17.099  0.00  0.00    +0.000 A 
ENDBRANCH   9  10
ENDBRANCH   6   9
ENDBRANCH   1   2
BRANCH   1  18
ATOM     16  O   UNL     1       1.707   9.200  18.696  0.00  0.00    +0.000 OA
ATOM     17  C   UNL     1       1.533   8.650  19.779  0.00  0.00    +0.000 C 
ATOM     18  N   UNL     1       2.049   7.391  20.057  0.00  0.00    +0.000 N 
ATOM     19  H   UNL     1       1.792   6.933  20.925  0.00  0.00    +0.000 HD
BRANCH  17  20
ATOM     20  C   UNL     1       0.635   9.280  20.792  0.00  0.00    +0.000 A 
ATOM     21  C   UNL     1       0.755   8.866  22.135  0.00  0.00    +0.000 A 
ATOM     22  C   UNL     1       0.060   9.504  23.165  0.00  0.00    +0.000 A 
ATOM     23  C   UNL     1      -0.694  10.648  22.911  0.00  0.00    +0.000 A 
ATOM     24  C   UNL     1      -0.858  11.010  21.571  0.00  0.00    +0.000 A 
ATOM     25  N   UNL     1      -1.509  12.088  21.018  0.00  0.00    +0.000 N 
ATOM     26  C   UNL     1      -1.842  11.776  19.728  0.00  0.00    +0.000 A 
ATOM     27  C   UNL     1      -1.019  10.740  19.344  0.00  0.00    +0.000 A 
ATOM     28  C   UNL     1      -0.317  10.284  20.503  0.00  0.00    +0.000 A 
ATOM     29  H   UNL     1      -1.800  12.915  21.522  0.00  0.00    +0.000 HD
ENDBRANCH  17  20
ENDBRANCH   1  18
TORSDOF 6
ENDMDL
MODEL 5
REMARK VINA RESULT:      -8.4      2.189      6.620
REMARK  Name = 
REMARK  6 active torsions:
REMARK  status: ('A' for Active; 'I' for Inactive)
REMARK    1  A    between atoms: C_2  and  C_18
REMARK    2  A    between atoms: N_3  and  C_4
REMARK    3  A    between atoms: C_4  and  C_5
REMARK    4  A    between atoms: C_7  and  O_8
REMARK    5  A    between atoms: N_10  and  C_11
REMARK    6  A    between atoms: C_11  and  C_12
REMARK                            x       y       z     vdW  Elec       q    Type
REMARK                         _______ _______ _______ _____ _____    ______ ____
ROOT
ATOM      1  C   UNL     1       4.672   6.618  17.800  0.00  0.00    +0.000 C 
ENDROOT
BRANCH   1   2
ATOM      2  C   UNL     1       4.508   5.643  16.600  0.00  0.00    +0.000 C 
ATOM      3  C   UNL     1       5.491   6.026  15.477  0.00  0.00    +0.000 C 
ATOM      4  C   UNL     1       6.528   4.926  15.490  0.00  0.00    +0.000 C 
ATOM      5  C   UNL     1       5.706   3.695  15.841  0.00  0.00    +0.000 C 
ATOM      6  N   UNL     1       4.681   4.175  16.786  0.00  0.00    +0.000 NA
BRANCH   4   7
ATOM      7  O   UNL     1       7.517   5.201  16.484  0.00  0.00    +0.000 OA
ATOM      8  H   UNL     1       7.661   6.163  16.491  0.00  0.00    +0.000 HD
ENDBRANCH   4   7
BRANCH   6   9
ATOM      9  C   UNL     1       4.783   3.637  18.139  0.00  0.00    +0.000 C 
BRANCH   9  10
ATOM     10  C   UNL     1       3.435   3.326  18.781  0.00  0.00    +0.000 A 
ATOM     11  C   UNL     1       2.246   3.301  18.021  0.00  0.00    +0.000 A 
ATOM     12  C   UNL     1       1.018   3.005  18.609  0.00  0.00    +0.000 A 
ATOM     13  C   UNL     1       0.954   2.717  19.976  0.00  0.00    +0.000 A 
ATOM     14  C   UNL     1       2.118   2.734  20.750  0.00  0.00    +0.000 A 
ATOM     15  C   UNL     1       3.355   3.049  20.163  0.00  0.00    +0.000 A 
ENDBRANCH   9  10
ENDBRANCH   6   9
ENDBRANCH   1   2
BRANCH   1  18
ATOM     16  O   UNL     1       2.617   6.450  19.719  0.00  0.00    +0.000 OA
ATOM     17  C   UNL     1       2.603   7.404  18.947  0.00  0.00    +0.000 C 
ATOM     18  N   UNL     1       3.559   7.561  17.951  0.00  0.00    +0.000 N 
ATOM     19  H   UNL     1       3.567   8.416  17.406  0.00  0.00    +0.000 HD
BRANCH  17  20
ATOM     20  C   UNL     1       1.615   8.505  19.152  0.00  0.00    +0.000 A 
ATOM     21  C   UNL     1       1.157   9.206  18.016  0.00  0.00    +0.000 A 
ATOM     22  C   UNL     1       0.129  10.147  18.101  0.00  0.00    +0.000 A 
ATOM     23  C   UNL     1      -0.557  10.345  19.297  0.00  0.00    +0.000 A 
ATOM     24  C   UNL     1      -0.054   9.694  20.427  0.00  0.00    +0.000 A 
ATOM     25  N   UNL     1      -0.526   9.670  21.720  0.00  0.00    +0.000 N 
ATOM     26  C   UNL     1       0.512   9.352  22.552  0.00  0.00    +0.000 A 
ATOM     27  C   UNL     1       1.472   8.741  21.777  0.00  0.00    +0.000 A 
ATOM     28  C   UNL     1       1.085   8.881  20.407  0.00  0.00    +0.000 A 
ATOM     29  H   UNL     1      -1.451   9.961  22.007  0.00  0.00    +0.000 HD
ENDBRANCH  17  20
ENDBRANCH   1  18
TORSDOF 6
ENDMDL
MODEL 6
REMARK VINA RESULT:      -8.4      3.053      7.336
REMARK  Name = 
REMARK  6 active torsions:
REMARK  status: ('A' for Active; 'I' for Inactive)
REMARK    1  A    between atoms: C_2  and  C_18
REMARK    2  A    between atoms: N_3  and  C_4
REMARK    3  A    between atoms: C_4  and  C_5
REMARK    4  A    between atoms: C_7  and  O_8
REMARK    5  A    between atoms: N_10  and  C_11
REMARK    6  A    between atoms: C_11  and  C_12
REMARK                            x       y       z     vdW  Elec       q    Type
REMARK                         _______ _______ _______ _____ _____    ______ ____
ROOT
ATOM      1  C   UNL     1       2.584   7.076  18.417  0.00  0.00    +0.000 C 
ENDROOT
BRANCH   1   2
ATOM      2  C   UNL     1       2.858   5.842  19.322  0.00  0.00    +0.000 C 
ATOM      3  C   UNL     1       1.531   5.135  19.658  0.00  0.00    +0.000 C 
ATOM      4  C   UNL     1       1.577   3.847  18.867  0.00  0.00    +0.000 C 
ATOM      5  C   UNL     1       3.050   3.474  18.922  0.00  0.00    +0.000 C 
ATOM      6  N   UNL     1       3.774   4.758  18.870  0.00  0.00    +0.000 NA
BRANCH   4   7
ATOM      7  O   UNL     1       1.142   4.083  17.526  0.00  0.00    +0.000 OA
ATOM      8  H   UNL     1       1.016   3.215  17.106  0.00  0.00    +0.000 HD
ENDBRANCH   4   7
BRANCH   6   9
ATOM      9  C   UNL     1       4.586   4.965  17.674  0.00  0.00    +0.000 C 
BRANCH   9  10
ATOM     10  C   UNL     1       5.863   5.759  17.928  0.00  0.00    +0.000 A 
ATOM     11  C   UNL     1       6.164   6.924  17.192  0.00  0.00    +0.000 A 
ATOM     12  C   UNL     1       7.326   7.653  17.435  0.00  0.00    +0.000 A 
ATOM     13  C   UNL     1       8.213   7.235  18.432  0.00  0.00    +0.000 A 
ATOM     14  C   UNL     1       7.936   6.084  19.177  0.00  0.00    +0.000 A 
ATOM     15  C   UNL     1       6.773   5.338  18.922  0.00  0.00    +0.000 A 
ENDBRANCH   9  10
ENDBRANCH   6   9
ENDBRANCH   1   2
BRANCH   1  18
ATOM     16  O   UNL     1       1.983   9.618  17.363  0.00  0.00    +0.000 OA
ATOM     17  C   UNL     1       1.446   9.293  18.418  0.00  0.00    +0.000 C 
ATOM     18  N   UNL     1       1.697   8.072  19.028  0.00  0.00    +0.000 N 
ATOM     19  H   UNL     1       1.153   7.804  19.841  0.00  0.00    +0.000 HD
BRANCH  17  20
ATOM     20  C   UNL     1       0.389  10.169  19.009  0.00  0.00    +0.000 A 
ATOM     21  C   UNL     1       0.591  10.664  20.314  0.00  0.00    +0.000 A 
ATOM     22  C   UNL     1      -0.272  11.602  20.884  0.00  0.00    +0.000 A 
ATOM     23  C   UNL     1      -1.304  12.166  20.136  0.00  0.00    +0.000 A 
ATOM     24  C   UNL     1      -1.532  11.623  18.869  0.00  0.00    +0.000 A 
ATOM     25  N   UNL     1      -2.442  11.983  17.901  0.00  0.00    +0.000 N 
ATOM     26  C   UNL     1      -2.651  10.907  17.083  0.00  0.00    +0.000 A 
ATOM     27  C   UNL     1      -1.570  10.069  17.243  0.00  0.00    +0.000 A 
ATOM     28  C   UNL     1      -0.794  10.558  18.340  0.00  0.00    +0.000 A 
ATOM     29  H   UNL     1      -2.956  12.854  17.881  0.00  0.00    +0.000 HD
ENDBRANCH  17  20
ENDBRANCH   1  18
TORSDOF 6
ENDMDL
MODEL 7
REMARK VINA RESULT:      -8.2      1.069      1.988
REMARK  Name = 
REMARK  6 active torsions:
REMARK  status: ('A' for Active; 'I' for Inactive)
REMARK    1  A    between atoms: C_2  and  C_18
REMARK    2  A    between atoms: N_3  and  C_4
REMARK    3  A    between atoms: C_4  and  C_5
REMARK    4  A    between atoms: C_7  and  O_8
REMARK    5  A    between atoms: N_10  and  C_11
REMARK    6  A    between atoms: C_11  and  C_12
REMARK                            x       y       z     vdW  Elec       q    Type
REMARK                         _______ _______ _______ _____ _____    ______ ____
ROOT
ATOM      1  C   UNL     1       1.499   3.953  18.072  0.00  0.00    +0.000 C 
ENDROOT
BRANCH   1   2
ATOM      2  C   UNL     1       1.063   3.958  19.565  0.00  0.00    +0.000 C 
ATOM      3  C   UNL     1       1.248   2.552  20.167  0.00  0.00    +0.000 C 
ATOM      4  C   UNL     1       2.427   2.694  21.104  0.00  0.00    +0.000 C 
ATOM      5  C   UNL     1       2.246   4.098  21.659  0.00  0.00    +0.000 C 
ATOM      6  N   UNL     1       1.703   4.887  20.538  0.00  0.00    +0.000 NA
BRANCH   4   7
ATOM      7  O   UNL     1       3.648   2.568  20.374  0.00  0.00    +0.000 OA
ATOM      8  H   UNL     1       4.351   2.968  20.913  0.00  0.00    +0.000 HD
ENDBRANCH   4   7
BRANCH   6   9
ATOM      9  C   UNL     1       2.578   5.945  20.042  0.00  0.00    +0.000 C 
BRANCH   9  10
ATOM     10  C   UNL     1       1.911   7.316  19.982  0.00  0.00    +0.000 A 
ATOM     11  C   UNL     1       1.990   8.122  18.826  0.00  0.00    +0.000 A 
ATOM     12  C   UNL     1       1.370   9.369  18.771  0.00  0.00    +0.000 A 
ATOM     13  C   UNL     1       0.646   9.834  19.873  0.00  0.00    +0.000 A 
ATOM     14  C   UNL     1       0.552   9.053  21.029  0.00  0.00    +0.000 A 
ATOM     15  C   UNL     1       1.191   7.803  21.094  0.00  0.00    +0.000 A 
ENDBRANCH   9  10
ENDBRANCH   6   9
ENDBRANCH   1   2
BRANCH   1  18
ATOM     16  O   UNL     1       4.030   2.906  17.413  0.00  0.00    +0.000 OA
ATOM     17  C   UNL     1       3.912   4.127  17.468  0.00  0.00    +0.000 C 
ATOM     18  N   UNL     1       2.712   4.737  17.809  0.00  0.00    +0.000 N 
ATOM     19  H   UNL     1       2.634   5.746  17.740  0.00  0.00    +0.000 HD
BRANCH  17  20
ATOM     20  C   UNL     1       5.044   4.999  17.033  0.00  0.00    +0.000 A 
ATOM     21  C   UNL     1       5.451   6.038  17.897  0.00  0.00    +0.000 A 
ATOM     22  C   UNL     1       6.589   6.804  17.637  0.00  0.00    +0.000 A 
ATOM     23  C   UNL     1       7.427   6.492  16.568  0.00  0.00    +0.000 A 
ATOM     24  C   UNL     1       6.981   5.505  15.685  0.00  0.00    +0.000 A 
ATOM     25  N   UNL     1       7.591   4.967  14.575  0.00  0.00    +0.000 N 
ATOM     26  C   UNL     1       6.625   4.437  13.765  0.00  0.00    +0.000 A 
ATOM     27  C   UNL     1       5.514   4.229  14.553  0.00  0.00    +0.000 A 
ATOM     28  C   UNL     1       5.756   4.842  15.823  0.00  0.00    +0.000 A 
ATOM     29  H   UNL     1       8.571   5.063  14.345  0.00  0.00    +0.000 HD
ENDBRANCH  17  20
ENDBRANCH   1  18
TORSDOF 6
ENDMDL
MODEL 8
REMARK VINA RESULT:      -8.1      2.827      7.345
REMARK  Name = 
REMARK  6 active torsions:
REMARK  status: ('A' for Active; 'I' for Inactive)
REMARK    1  A    between atoms: C_2  and  C_18
REMARK    2  A    between atoms: N_3  and  C_4
REMARK    3  A    between atoms: C_4  and  C_5
REMARK    4  A    between atoms: C_7  and  O_8
REMARK    5  A    between atoms: N_10  and  C_11
REMARK    6  A    between atoms: C_11  and  C_12
REMARK                            x       y       z     vdW  Elec       q    Type
REMARK                         _______ _______ _______ _____ _____    ______ ____
ROOT
ATOM      1  C   UNL     1       2.567   6.678  18.613  0.00  0.00    +0.000 C 
ENDROOT
BRANCH   1   2
ATOM      2  C   UNL     1       3.246   5.732  19.644  0.00  0.00    +0.000 C 
ATOM      3  C   UNL     1       2.327   5.544  20.866  0.00  0.00    +0.000 C 
ATOM      4  C   UNL     1       1.828   4.121  20.748  0.00  0.00    +0.000 C 
ATOM      5  C   UNL     1       3.031   3.391  20.172  0.00  0.00    +0.000 C 
ATOM      6  N   UNL     1       3.660   4.355  19.251  0.00  0.00    +0.000 NA
BRANCH   4   7
ATOM      7  O   UNL     1       0.705   4.070  19.865  0.00  0.00    +0.000 OA
ATOM      8  H   UNL     1      -0.022   4.553  20.293  0.00  0.00    +0.000 HD
ENDBRANCH   4   7
BRANCH   6   9
ATOM      9  C   UNL     1       3.630   3.978  17.841  0.00  0.00    +0.000 C 
BRANCH   9  10
ATOM     10  C   UNL     1       4.934   4.260  17.102  0.00  0.00    +0.000 A 
ATOM     11  C   UNL     1       6.144   4.468  17.797  0.00  0.00    +0.000 A 
ATOM     12  C   UNL     1       7.336   4.714  17.116  0.00  0.00    +0.000 A 
ATOM     13  C   UNL     1       7.344   4.747  15.719  0.00  0.00    +0.000 A 
ATOM     14  C   UNL     1       6.157   4.541  15.007  0.00  0.00    +0.000 A 
ATOM     15  C   UNL     1       4.952   4.311  15.691  0.00  0.00    +0.000 A 
ENDBRANCH   9  10
ENDBRANCH   6   9
ENDBRANCH   1   2
BRANCH   1  18
ATOM     16  O   UNL     1       1.996   9.172  17.437  0.00  0.00    +0.000 OA
ATOM     17  C   UNL     1       1.545   8.950  18.557  0.00  0.00    +0.000 C 
ATOM     18  N   UNL     1       1.792   7.761  19.229  0.00  0.00    +0.000 N 
ATOM     19  H   UNL     1       1.313   7.580  20.105  0.00  0.00    +0.000 HD
BRANCH  17  20
ATOM     20  C   UNL     1       0.593   9.922  19.175  0.00  0.00    +0.000 A 
ATOM     21  C   UNL     1       0.854  10.362  20.489  0.00  0.00    +0.000 A 
ATOM     22  C   UNL     1       0.101  11.375  21.087  0.00  0.00    +0.000 A 
ATOM     23  C   UNL     1      -0.867  12.064  20.360  0.00  0.00    +0.000 A 
ATOM     24  C   UNL     1      -1.160  11.579  19.083  0.00  0.00    +0.000 A 
ATOM     25  N   UNL     1      -2.030  12.058  18.130  0.00  0.00    +0.000 N 
ATOM     26  C   UNL     1      -2.360  11.030  17.290  0.00  0.00    +0.000 A 
ATOM     27  C   UNL     1      -1.375  10.075  17.423  0.00  0.00    +0.000 A 
ATOM     28  C   UNL     1      -0.544  10.452  18.524  0.00  0.00    +0.000 A 
ATOM     29  H   UNL     1      -2.447  12.979  18.133  0.00  0.00    +0.000 HD
ENDBRANCH  17  20
ENDBRANCH   1  18
TORSDOF 6
ENDMDL
MODEL 9
REMARK VINA RESULT:      -8.1      2.574      6.964
REMARK  Name = 
REMARK  6 active torsions:
REMARK  status: ('A' for Active; 'I' for Inactive)
REMARK    1  A    between atoms: C_2  and  C_18
REMARK    2  A    between atoms: N_3  and  C_4
REMARK    3  A    between atoms: C_4  and  C_5
REMARK    4  A    between atoms: C_7  and  O_8
REMARK    5  A    between atoms: N_10  and  C_11
REMARK    6  A    between atoms: C_11  and  C_12
REMARK                            x       y       z     vdW  Elec       q    Type
REMARK                         _______ _______ _______ _____ _____    ______ ____
ROOT
ATOM      1  C   UNL     1       2.701   6.842  18.520  0.00  0.00    +0.000 C 
ENDROOT
BRANCH   1   2
ATOM      2  C   UNL     1       2.936   5.527  19.315  0.00  0.00    +0.000 C 
ATOM      3  C   UNL     1       1.587   4.834  19.589  0.00  0.00    +0.000 C 
ATOM      4  C   UNL     1       1.597   3.619  18.689  0.00  0.00    +0.000 C 
ATOM      5  C   UNL     1       3.058   3.198  18.711  0.00  0.00    +0.000 C 
ATOM      6  N   UNL     1       3.820   4.459  18.770  0.00  0.00    +0.000 NA
BRANCH   4   7
ATOM      7  O   UNL     1       1.172   3.982  17.375  0.00  0.00    +0.000 OA
ATOM      8  H   UNL     1       0.800   4.879  17.428  0.00  0.00    +0.000 HD
ENDBRANCH   4   7
BRANCH   6   9
ATOM      9  C   UNL     1       4.640   4.744  17.596  0.00  0.00    +0.000 C 
BRANCH   9  10
ATOM     10  C   UNL     1       5.867   5.599  17.896  0.00  0.00    +0.000 A 
ATOM     11  C   UNL     1       6.778   5.247  18.914  0.00  0.00    +0.000 A 
ATOM     12  C   UNL     1       7.905   6.025  19.177  0.00  0.00    +0.000 A 
ATOM     13  C   UNL     1       8.149   7.173  18.418  0.00  0.00    +0.000 A 
ATOM     14  C   UNL     1       7.261   7.542  17.402  0.00  0.00    +0.000 A 
ATOM     15  C   UNL     1       6.116   6.769  17.146  0.00  0.00    +0.000 A 
ENDBRANCH   9  10
ENDBRANCH   6   9
ENDBRANCH   1   2
BRANCH   1  18
ATOM     16  O   UNL     1       1.924   9.371  17.553  0.00  0.00    +0.000 OA
ATOM     17  C   UNL     1       1.654   9.096  18.718  0.00  0.00    +0.000 C 
ATOM     18  N   UNL     1       2.017   7.885  19.293  0.00  0.00    +0.000 N 
ATOM     19  H   UNL     1       1.682   7.661  20.223  0.00  0.00    +0.000 HD
BRANCH  17  20
ATOM     20  C   UNL     1       0.798  10.024  19.516  0.00  0.00    +0.000 A 
ATOM     21  C   UNL     1       0.199  11.113  18.848  0.00  0.00    +0.000 A 
ATOM     22  C   UNL     1      -0.730  11.941  19.483  0.00  0.00    +0.000 A 
ATOM     23  C   UNL     1      -1.179  11.651  20.770  0.00  0.00    +0.000 A 
ATOM     24  C   UNL     1      -0.533  10.610  21.443  0.00  0.00    +0.000 A 
ATOM     25  N   UNL     1      -0.771  10.078  22.689  0.00  0.00    +0.000 N 
ATOM     26  C   UNL     1       0.372   9.463  23.122  0.00  0.00    +0.000 A 
ATOM     27  C   UNL     1       1.135   9.209  22.003  0.00  0.00    +0.000 A 
ATOM     28  C   UNL     1       0.525   9.875  20.895  0.00  0.00    +0.000 A 
ATOM     29  H   UNL     1      -1.607  10.230  23.237  0.00  0.00    +0.000 HD
ENDBRANCH  17  20
ENDBRANCH   1  18
TORSDOF 6
ENDMDL
