MODEL 1
REMARK VINA RESULT:      -8.6      0.000      0.000
REMARK  Name = 
REMARK  6 active torsions:
REMARK  status: ('A' for Active; 'I' for Inactive)
REMARK    1  A    between atoms: C_1  and  C_2
REMARK    2  A    between atoms: C_6  and  C_7
REMARK    3  A    between atoms: C_7  and  O_8
REMARK    4  A    between atoms: O_8  and  C_9
REMARK    5  A    between atoms: C_9  and  C_11
REMARK    6  A    between atoms: C_13  and  C_14
REMARK                            x       y       z     vdW  Elec       q    Type
REMARK                         _______ _______ _______ _____ _____    ______ ____
ROOT
ATOM      1  C   UNL     1       4.524   5.016  18.002  0.00  0.00    +0.000 A 
ATOM      2  C   UNL     1       4.065   6.329  18.161  0.00  0.00    +0.000 A 
ATOM      3  C   UNL     1       2.770   6.541  18.599  0.00  0.00    +0.000 A 
ATOM      4  N   UNL     1       1.945   5.507  18.880  0.00  0.00    +0.000 NA
ATOM      5  C   UNL     1       2.374   4.243  18.721  0.00  0.00    +0.000 A 
ATOM      6  C   UNL     1       1.484   3.219  19.014  0.00  0.00    +0.000 A 
ATOM      7  C   UNL     1       1.834   1.873  18.890  0.00  0.00    +0.000 A 
ATOM      8  C   UNL     1       3.111   1.535  18.473  0.00  0.00    +0.000 A 
ATOM      9  C   UNL     1       4.024   2.547  18.176  0.00  0.00    +0.000 A 
ATOM     10  C   UNL     1       3.672   3.918  18.281  0.00  0.00    +0.000 A 
ENDROOT
BRANCH   3  11
ATOM     11  C   UNL     1       2.203   7.889  18.793  0.00  0.00    +0.000 A 
ATOM     12  C   UNL     1       1.583   8.271  19.991  0.00  0.00    +0.000 A 
ATOM     13  C   UNL     1       1.067   9.552  20.113  0.00  0.00    +0.000 A 
ATOM     14  N   UNL     1       1.122  10.479  19.137  0.00  0.00    +0.000 NA
ATOM     15  C   UNL     1       1.730  10.109  17.991  0.00  0.00    +0.000 A 
ATOM     16  C   UNL     1       2.273   8.853  17.778  0.00  0.00    +0.000 A 
ENDBRANCH   3  11
BRANCH   1  17
ATOM     17  C   UNL     1       5.936   4.812  17.579  0.00  0.00    +0.000 C 
ATOM     18  O   UNL     1       6.864   4.509  18.308  0.00  0.00    +0.000 OA
BRANCH  17  19
ATOM     19  O   UNL     1       6.038   5.141  16.267  0.00  0.00    +0.000 OA
BRANCH  19  20
ATOM     20  C   UNL     1       5.861   4.049  15.358  0.00  0.00    +0.000 C 
BRANCH  20  26
ATOM     21  C   UNL     1       5.616   3.058  12.156  0.00  0.00    +0.000 C 
ATOM     22  C   UNL     1       6.518   4.035  12.801  0.00  0.00    +0.000 A 
ATOM     23  N   UNL     1       7.503   4.678  12.085  0.00  0.00    +0.000 NA
ATOM     24  C   UNL     1       8.109   5.420  12.985  0.00  0.00    +0.000 A 
ATOM     25  O   UNL     1       7.597   5.336  14.241  0.00  0.00    +0.000 OA
ATOM     26  C   UNL     1       6.574   4.433  14.120  0.00  0.00    +0.000 A 
ENDBRANCH  20  26
ENDBRANCH  19  20
ENDBRANCH  17  19
ENDBRANCH   1  17
TORSDOF 5
ENDMDL
MODEL 2
REMARK VINA RESULT:      -8.2      2.836      5.573
REMARK  Name = 
REMARK  6 active torsions:
REMARK  status: ('A' for Active; 'I' for Inactive)
REMARK    1  A    between atoms: C_1  and  C_2
REMARK    2  A    between atoms: C_6  and  C_7
REMARK    3  A    between atoms: C_7  and  O_8
REMARK    4  A    between atoms: O_8  and  C_9
REMARK    5  A    between atoms: C_9  and  C_11
REMARK    6  A    between atoms: C_13  and  C_14
REMARK                            x       y       z     vdW  Elec       q    Type
REMARK                         _______ _______ _______ _____ _____    ______ ____
ROOT
ATOM      1  C   UNL     1       2.972   4.833  17.458  0.00  0.00    +0.000 A 
ATOM      2  C   UNL     1       2.201   5.866  18.004  0.00  0.00    +0.000 A 
ATOM      3  C   UNL     1       2.779   7.108  18.194  0.00  0.00    +0.000 A 
ATOM      4  N   UNL     1       4.068   7.343  17.859  0.00  0.00    +0.000 NA
ATOM      5  C   UNL     1       4.819   6.354  17.344  0.00  0.00    +0.000 A 
ATOM      6  C   UNL     1       6.139   6.644  17.027  0.00  0.00    +0.000 A 
ATOM      7  C   UNL     1       6.998   5.690  16.480  0.00  0.00    +0.000 A 
ATOM      8  C   UNL     1       6.528   4.411  16.230  0.00  0.00    +0.000 A 
ATOM      9  C   UNL     1       5.206   4.096  16.537  0.00  0.00    +0.000 A 
ATOM     10  C   UNL     1       4.328   5.054  17.111  0.00  0.00    +0.000 A 
ENDROOT
BRANCH   3  11
ATOM     11  C   UNL     1       2.043   8.254  18.763  0.00  0.00    +0.000 A 
ATOM     12  C   UNL     1       1.604   8.270  20.094  0.00  0.00    +0.000 A 
ATOM     13  C   UNL     1       0.916   9.376  20.570  0.00  0.00    +0.000 A 
ATOM     14  N   UNL     1       0.633  10.462  19.825  0.00  0.00    +0.000 NA
ATOM     15  C   UNL     1       1.069  10.445  18.549  0.00  0.00    +0.000 A 
ATOM     16  C   UNL     1       1.762   9.386  17.986  0.00  0.00    +0.000 A 
ENDBRANCH   3  11
BRANCH   1  17
ATOM     17  C   UNL     1       2.315   3.520  17.216  0.00  0.00    +0.000 C 
ATOM     18  O   UNL     1       2.665   2.685  16.400  0.00  0.00    +0.000 OA
BRANCH  17  19
ATOM     19  O   UNL     1       1.190   3.462  17.971  0.00  0.00    +0.000 OA
BRANCH  19  20
ATOM     20  C   UNL     1       1.026   2.249  18.714  0.00  0.00    +0.000 C 
BRANCH  20  26
ATOM     21  C   UNL     1       4.205   2.148  19.803  0.00  0.00    +0.000 C 
ATOM     22  C   UNL     1       2.945   2.440  20.518  0.00  0.00    +0.000 A 
ATOM     23  N   UNL     1       2.933   2.676  21.875  0.00  0.00    +0.000 NA
ATOM     24  C   UNL     1       1.660   2.852  22.150  0.00  0.00    +0.000 A 
ATOM     25  O   UNL     1       0.822   2.769  21.082  0.00  0.00    +0.000 OA
ATOM     26  C   UNL     1       1.656   2.493  20.031  0.00  0.00    +0.000 A 
ENDBRANCH  20  26
ENDBRANCH  19  20
ENDBRANCH  17  19
ENDBRANCH   1  17
TORSDOF 5
ENDMDL
MODEL 3
REMARK VINA RESULT:      -8.2      1.079      1.412
REMARK  Name = 
REMARK  6 active torsions:
REMARK  status: ('A' for Active; 'I' for Inactive)
REMARK    1  A    between atoms: C_1  and  C_2
REMARK    2  A    between atoms: C_6  and  C_7
REMARK    3  A    between atoms: C_7  and  O_8
REMARK    4  A    between atoms: O_8  and  C_9
REMARK    5  A    between atoms: C_9  and  C_11
REMARK    6  A    between atoms: C_13  and  C_14
REMARK                            x       y       z     vdW  Elec       q    Type
REMARK                         _______ _______ _______ _____ _____    ______ ____
ROOT
ATOM      1  C   UNL     1       4.447   5.816  18.026  0.00  0.00    +0.000 A 
ATOM      2  C   UNL     1       3.711   7.007  18.060  0.00  0.00    +0.000 A 
ATOM      3  C   UNL     1       2.631   7.106  18.918  0.00  0.00    +0.000 A 
ATOM      4  N   UNL     1       2.277   6.080  19.724  0.00  0.00    +0.000 NA
ATOM      5  C   UNL     1       2.971   4.929  19.691  0.00  0.00    +0.000 A 
ATOM      6  C   UNL     1       2.560   3.903  20.531  0.00  0.00    +0.000 A 
ATOM      7  C   UNL     1       3.218   2.673  20.578  0.00  0.00    +0.000 A 
ATOM      8  C   UNL     1       4.326   2.460  19.773  0.00  0.00    +0.000 A 
ATOM      9  C   UNL     1       4.759   3.477  18.923  0.00  0.00    +0.000 A 
ATOM     10  C   UNL     1       4.086   4.725  18.854  0.00  0.00    +0.000 A 
ENDROOT
BRANCH   3  11
ATOM     11  C   UNL     1       1.799   8.321  19.020  0.00  0.00    +0.000 A 
ATOM     12  C   UNL     1       1.496   9.112  17.904  0.00  0.00    +0.000 A 
ATOM     13  C   UNL     1       0.710  10.243  18.064  0.00  0.00    +0.000 A 
ATOM     14  N   UNL     1       0.205  10.645  19.247  0.00  0.00    +0.000 NA
ATOM     15  C   UNL     1       0.490   9.873  20.315  0.00  0.00    +0.000 A 
ATOM     16  C   UNL     1       1.266   8.727  20.252  0.00  0.00    +0.000 A 
ENDBRANCH   3  11
BRANCH   1  17
ATOM     17  C   UNL     1       5.635   5.751  17.132  0.00  0.00    +0.000 C 
ATOM     18  O   UNL     1       6.760   6.124  17.412  0.00  0.00    +0.000 OA
BRANCH  17  19
ATOM     19  O   UNL     1       5.226   5.321  15.913  0.00  0.00    +0.000 OA
BRANCH  19  20
ATOM     20  C   UNL     1       5.850   4.113  15.462  0.00  0.00    +0.000 C 
BRANCH  20  26
ATOM     21  C   UNL     1       5.476   3.126  12.270  0.00  0.00    +0.000 C 
ATOM     22  C   UNL     1       6.436   4.064  12.888  0.00  0.00    +0.000 A 
ATOM     23  N   UNL     1       7.429   4.662  12.144  0.00  0.00    +0.000 NA
ATOM     24  C   UNL     1       8.091   5.378  13.024  0.00  0.00    +0.000 A 
ATOM     25  O   UNL     1       7.610   5.320  14.294  0.00  0.00    +0.000 OA
ATOM     26  C   UNL     1       6.546   4.462  14.204  0.00  0.00    +0.000 A 
ENDBRANCH  20  26
ENDBRANCH  19  20
ENDBRANCH  17  19
ENDBRANCH   1  17
TORSDOF 5
ENDMDL
MODEL 4
REMARK VINA RESULT:      -8.2      2.487      3.336
REMARK  Name = 
REMARK  6 active torsions:
REMARK  status: ('A' for Active; 'I' for Inactive)
REMARK    1  A    between atoms: C_1  and  C_2
REMARK    2  A    between atoms: C_6  and  C_7
REMARK    3  A    between atoms: C_7  and  O_8
REMARK    4  A    between atoms: O_8  and  C_9
REMARK    5  A    between atoms: C_9  and  C_11
REMARK    6  A    between atoms: C_13  and  C_14
REMARK                            x       y       z     vdW  Elec       q    Type
REMARK                         _______ _______ _______ _____ _____    ______ ____
ROOT
ATOM      1  C   UNL     1       3.713   4.967  18.208  0.00  0.00    +0.000 A 
ATOM      2  C   UNL     1       3.297   6.299  18.088  0.00  0.00    +0.000 A 
ATOM      3  C   UNL     1       2.487   6.842  19.070  0.00  0.00    +0.000 A 
ATOM      4  N   UNL     1       2.096   6.114  20.140  0.00  0.00    +0.000 NA
ATOM      5  C   UNL     1       2.482   4.832  20.258  0.00  0.00    +0.000 A 
ATOM      6  C   UNL     1       2.044   4.127  21.371  0.00  0.00    +0.000 A 
ATOM      7  C   UNL     1       2.395   2.794  21.591  0.00  0.00    +0.000 A 
ATOM      8  C   UNL     1       3.217   2.145  20.682  0.00  0.00    +0.000 A 
ATOM      9  C   UNL     1       3.671   2.834  19.559  0.00  0.00    +0.000 A 
ATOM     10  C   UNL     1       3.305   4.184  19.316  0.00  0.00    +0.000 A 
ENDROOT
BRANCH   3  11
ATOM     11  C   UNL     1       2.001   8.234  19.025  0.00  0.00    +0.000 A 
ATOM     12  C   UNL     1       2.241   9.073  17.928  0.00  0.00    +0.000 A 
ATOM     13  C   UNL     1       1.760  10.373  17.946  0.00  0.00    +0.000 A 
ATOM     14  N   UNL     1       1.059  10.899  18.970  0.00  0.00    +0.000 NA
ATOM     15  C   UNL     1       0.821  10.084  20.017  0.00  0.00    +0.000 A 
ATOM     16  C   UNL     1       1.263   8.773  20.088  0.00  0.00    +0.000 A 
ENDBRANCH   3  11
BRANCH   1  17
ATOM     17  C   UNL     1       4.624   4.421  17.167  0.00  0.00    +0.000 C 
ATOM     18  O   UNL     1       4.298   4.060  16.050  0.00  0.00    +0.000 OA
BRANCH  17  19
ATOM     19  O   UNL     1       5.857   4.279  17.714  0.00  0.00    +0.000 OA
BRANCH  19  20
ATOM     20  C   UNL     1       6.940   4.681  16.867  0.00  0.00    +0.000 C 
BRANCH  20  26
ATOM     21  C   UNL     1       8.160   5.578  19.868  0.00  0.00    +0.000 C 
ATOM     22  C   UNL     1       7.916   6.371  18.645  0.00  0.00    +0.000 A 
ATOM     23  N   UNL     1       8.139   7.730  18.620  0.00  0.00    +0.000 NA
ATOM     24  C   UNL     1       7.782   8.082  17.405  0.00  0.00    +0.000 A 
ATOM     25  O   UNL     1       7.353   7.065  16.612  0.00  0.00    +0.000 OA
ATOM     26  C   UNL     1       7.433   5.962  17.420  0.00  0.00    +0.000 A 
ENDBRANCH  20  26
ENDBRANCH  19  20
ENDBRANCH  17  19
ENDBRANCH   1  17
TORSDOF 5
ENDMDL
MODEL 5
REMARK VINA RESULT:      -8.0      1.065      1.065
REMARK  Name = 
REMARK  6 active torsions:
REMARK  status: ('A' for Active; 'I' for Inactive)
REMARK    1  A    between atoms: C_1  and  C_2
REMARK    2  A    between atoms: C_6  and  C_7
REMARK    3  A    between atoms: C_7  and  O_8
REMARK    4  A    between atoms: O_8  and  C_9
REMARK    5  A    between atoms: C_9  and  C_11
REMARK    6  A    between atoms: C_13  and  C_14
REMARK                            x       y       z     vdW  Elec       q    Type
REMARK                         _______ _______ _______ _____ _____    ______ ____
ROOT
ATOM      1  C   UNL     1       4.477   5.089  18.545  0.00  0.00    +0.000 A 
ATOM      2  C   UNL     1       3.915   6.359  18.371  0.00  0.00    +0.000 A 
ATOM      3  C   UNL     1       2.809   6.714  19.122  0.00  0.00    +0.000 A 
ATOM      4  N   UNL     1       2.266   5.862  20.021  0.00  0.00    +0.000 NA
ATOM      5  C   UNL     1       2.792   4.636  20.187  0.00  0.00    +0.000 A 
ATOM      6  C   UNL     1       2.191   3.796  21.114  0.00  0.00    +0.000 A 
ATOM      7  C   UNL     1       2.666   2.508  21.367  0.00  0.00    +0.000 A 
ATOM      8  C   UNL     1       3.780   2.045  20.686  0.00  0.00    +0.000 A 
ATOM      9  C   UNL     1       4.403   2.871  19.752  0.00  0.00    +0.000 A 
ATOM     10  C   UNL     1       3.917   4.176  19.473  0.00  0.00    +0.000 A 
ENDROOT
BRANCH   3  11
ATOM     11  C   UNL     1       2.152   8.030  19.005  0.00  0.00    +0.000 A 
ATOM     12  C   UNL     1       1.370   8.567  20.037  0.00  0.00    +0.000 A 
ATOM     13  C   UNL     1       0.777   9.809  19.866  0.00  0.00    +0.000 A 
ATOM     14  N   UNL     1       0.902  10.553  18.750  0.00  0.00    +0.000 NA
ATOM     15  C   UNL     1       1.664  10.036  17.766  0.00  0.00    +0.000 A 
ATOM     16  C   UNL     1       2.295   8.806  17.846  0.00  0.00    +0.000 A 
ENDBRANCH   3  11
BRANCH   1  17
ATOM     17  C   UNL     1       5.697   4.748  17.764  0.00  0.00    +0.000 C 
ATOM     18  O   UNL     1       6.794   4.494  18.228  0.00  0.00    +0.000 OA
BRANCH  17  19
ATOM     19  O   UNL     1       5.410   4.888  16.446  0.00  0.00    +0.000 OA
BRANCH  19  20
ATOM     20  C   UNL     1       5.727   3.750  15.637  0.00  0.00    +0.000 C 
BRANCH  20  26
ATOM     21  C   UNL     1       5.493   3.140  12.340  0.00  0.00    +0.000 C 
ATOM     22  C   UNL     1       6.388   4.039  13.097  0.00  0.00    +0.000 A 
ATOM     23  N   UNL     1       7.371   4.766  12.464  0.00  0.00    +0.000 NA
ATOM     24  C   UNL     1       7.972   5.400  13.446  0.00  0.00    +0.000 A 
ATOM     25  O   UNL     1       7.459   5.167  14.683  0.00  0.00    +0.000 OA
ATOM     26  C   UNL     1       6.440   4.280  14.454  0.00  0.00    +0.000 A 
ENDBRANCH  20  26
ENDBRANCH  19  20
ENDBRANCH  17  19
ENDBRANCH   1  17
TORSDOF 5
ENDMDL
MODEL 6
REMARK VINA RESULT:      -8.0      1.243      1.795
REMARK  Name = 
REMARK  6 active torsions:
REMARK  status: ('A' for Active; 'I' for Inactive)
REMARK    1  A    between atoms: C_1  and  C_2
REMARK    2  A    between atoms: C_6  and  C_7
REMARK    3  A    between atoms: C_7  and  O_8
REMARK    4  A    between atoms: O_8  and  C_9
REMARK    5  A    between atoms: C_9  and  C_11
REMARK    6  A    between atoms: C_13  and  C_14
REMARK                            x       y       z     vdW  Elec       q    Type
REMARK                         _______ _______ _______ _____ _____    ______ ____
ROOT
ATOM      1  C   UNL     1       4.649   5.050  19.088  0.00  0.00    +0.000 A 
ATOM      2  C   UNL     1       4.118   6.342  19.175  0.00  0.00    +0.000 A 
ATOM      3  C   UNL     1       2.748   6.514  19.092  0.00  0.00    +0.000 A 
ATOM      4  N   UNL     1       1.916   5.460  18.934  0.00  0.00    +0.000 NA
ATOM      5  C   UNL     1       2.418   4.217  18.839  0.00  0.00    +0.000 A 
ATOM      6  C   UNL     1       1.521   3.171  18.667  0.00  0.00    +0.000 A 
ATOM      7  C   UNL     1       1.940   1.843  18.567  0.00  0.00    +0.000 A 
ATOM      8  C   UNL     1       3.290   1.544  18.651  0.00  0.00    +0.000 A 
ATOM      9  C   UNL     1       4.209   2.577  18.826  0.00  0.00    +0.000 A 
ATOM     10  C   UNL     1       3.796   3.933  18.911  0.00  0.00    +0.000 A 
ENDROOT
BRANCH   3  11
ATOM     11  C   UNL     1       2.102   7.838  19.173  0.00  0.00    +0.000 A 
ATOM     12  C   UNL     1       1.483   8.295  20.345  0.00  0.00    +0.000 A 
ATOM     13  C   UNL     1       0.891   9.549  20.358  0.00  0.00    +0.000 A 
ATOM     14  N   UNL     1       0.869  10.379  19.298  0.00  0.00    +0.000 NA
ATOM     15  C   UNL     1       1.476   9.939  18.177  0.00  0.00    +0.000 A 
ATOM     16  C   UNL     1       2.092   8.703  18.069  0.00  0.00    +0.000 A 
ENDBRANCH   3  11
BRANCH   1  17
ATOM     17  C   UNL     1       6.121   4.886  19.231  0.00  0.00    +0.000 C 
ATOM     18  O   UNL     1       6.822   5.422  20.071  0.00  0.00    +0.000 OA
BRANCH  17  19
ATOM     19  O   UNL     1       6.567   4.135  18.194  0.00  0.00    +0.000 OA
BRANCH  19  20
ATOM     20  C   UNL     1       7.393   4.835  17.256  0.00  0.00    +0.000 C 
BRANCH  20  26
ATOM     21  C   UNL     1       4.984   6.719  15.860  0.00  0.00    +0.000 C 
ATOM     22  C   UNL     1       5.674   5.510  15.368  0.00  0.00    +0.000 A 
ATOM     23  N   UNL     1       5.326   4.927  14.169  0.00  0.00    +0.000 NA
ATOM     24  C   UNL     1       6.113   3.878  14.091  0.00  0.00    +0.000 A 
ATOM     25  O   UNL     1       6.970   3.721  15.135  0.00  0.00    +0.000 OA
ATOM     26  C   UNL     1       6.678   4.773  15.962  0.00  0.00    +0.000 A 
ENDBRANCH  20  26
ENDBRANCH  19  20
ENDBRANCH  17  19
ENDBRANCH   1  17
TORSDOF 5
ENDMDL
MODEL 7
REMARK VINA RESULT:      -8.0      2.509      3.081
REMARK  Name = 
REMARK  6 active torsions:
REMARK  status: ('A' for Active; 'I' for Inactive)
REMARK    1  A    between atoms: C_1  and  C_2
REMARK    2  A    between atoms: C_6  and  C_7
REMARK    3  A    between atoms: C_7  and  O_8
REMARK    4  A    between atoms: O_8  and  C_9
REMARK    5  A    between atoms: C_9  and  C_11
REMARK    6  A    between atoms: C_13  and  C_14
REMARK                            x       y       z     vdW  Elec       q    Type
REMARK                         _______ _______ _______ _____ _____    ______ ____
ROOT
ATOM      1  C   UNL     1       3.425   5.328  18.222  0.00  0.00    +0.000 A 
ATOM      2  C   UNL     1       2.944   6.642  18.271  0.00  0.00    +0.000 A 
ATOM      3  C   UNL     1       2.205   7.047  19.368  0.00  0.00    +0.000 A 
ATOM      4  N   UNL     1       1.945   6.203  20.391  0.00  0.00    +0.000 NA
ATOM      5  C   UNL     1       2.395   4.937  20.348  0.00  0.00    +0.000 A 
ATOM      6  C   UNL     1       2.092   4.108  21.420  0.00  0.00    +0.000 A 
ATOM      7  C   UNL     1       2.519   2.780  21.476  0.00  0.00    +0.000 A 
ATOM      8  C   UNL     1       3.280   2.264  20.440  0.00  0.00    +0.000 A 
ATOM      9  C   UNL     1       3.600   3.078  19.354  0.00  0.00    +0.000 A 
ATOM     10  C   UNL     1       3.155   4.424  19.278  0.00  0.00    +0.000 A 
ENDROOT
BRANCH   3  11
ATOM     11  C   UNL     1       1.658   8.411  19.504  0.00  0.00    +0.000 A 
ATOM     12  C   UNL     1       1.150   8.892  20.718  0.00  0.00    +0.000 A 
ATOM     13  C   UNL     1       0.648  10.183  20.783  0.00  0.00    +0.000 A 
ATOM     14  N   UNL     1       0.613  11.028  19.734  0.00  0.00    +0.000 NA
ATOM     15  C   UNL     1       1.114  10.563  18.571  0.00  0.00    +0.000 A 
ATOM     16  C   UNL     1       1.635   9.290  18.412  0.00  0.00    +0.000 A 
ENDBRANCH   3  11
BRANCH   1  17
ATOM     17  C   UNL     1       4.260   4.930  17.056  0.00  0.00    +0.000 C 
ATOM     18  O   UNL     1       4.561   3.790  16.749  0.00  0.00    +0.000 OA
BRANCH  17  19
ATOM     19  O   UNL     1       4.729   6.057  16.465  0.00  0.00    +0.000 OA
BRANCH  19  20
ATOM     20  C   UNL     1       6.051   5.947  15.926  0.00  0.00    +0.000 C 
BRANCH  20  26
ATOM     21  C   UNL     1       7.638   4.775  18.647  0.00  0.00    +0.000 C 
ATOM     22  C   UNL     1       7.596   6.130  18.059  0.00  0.00    +0.000 A 
ATOM     23  N   UNL     1       8.233   7.191  18.664  0.00  0.00    +0.000 NA
ATOM     24  C   UNL     1       7.944   8.212  17.889  0.00  0.00    +0.000 A 
ATOM     25  O   UNL     1       7.179   7.915  16.806  0.00  0.00    +0.000 OA
ATOM     26  C   UNL     1       6.948   6.570  16.924  0.00  0.00    +0.000 A 
ENDBRANCH  20  26
ENDBRANCH  19  20
ENDBRANCH  17  19
ENDBRANCH   1  17
TORSDOF 5
ENDMDL
MODEL 8
REMARK VINA RESULT:      -8.0      0.663      1.505
REMARK  Name = 
REMARK  6 active torsions:
REMARK  status: ('A' for Active; 'I' for Inactive)
REMARK    1  A    between atoms: C_1  and  C_2
REMARK    2  A    between atoms: C_6  and  C_7
REMARK    3  A    between atoms: C_7  and  O_8
REMARK    4  A    between atoms: O_8  and  C_9
REMARK    5  A    between atoms: C_9  and  C_11
REMARK    6  A    between atoms: C_13  and  C_14
REMARK                            x       y       z     vdW  Elec       q    Type
REMARK                         _______ _______ _______ _____ _____    ______ ____
ROOT
ATOM      1  C   UNL     1       4.337   5.015  17.991  0.00  0.00    +0.000 A 
ATOM      2  C   UNL     1       3.915   6.338  18.166  0.00  0.00    +0.000 A 
ATOM      3  C   UNL     1       2.644   6.580  18.655  0.00  0.00    +0.000 A 
ATOM      4  N   UNL     1       1.807   5.565  18.969  0.00  0.00    +0.000 NA
ATOM      5  C   UNL     1       2.200   4.292  18.794  0.00  0.00    +0.000 A 
ATOM      6  C   UNL     1       1.299   3.288  19.122  0.00  0.00    +0.000 A 
ATOM      7  C   UNL     1       1.613   1.935  18.985  0.00  0.00    +0.000 A 
ATOM      8  C   UNL     1       2.865   1.568  18.519  0.00  0.00    +0.000 A 
ATOM      9  C   UNL     1       3.787   2.558  18.185  0.00  0.00    +0.000 A 
ATOM     10  C   UNL     1       3.472   3.938  18.303  0.00  0.00    +0.000 A 
ENDROOT
BRANCH   3  11
ATOM     11  C   UNL     1       2.115   7.941  18.871  0.00  0.00    +0.000 A 
ATOM     12  C   UNL     1       2.142   8.918  17.866  0.00  0.00    +0.000 A 
ATOM     13  C   UNL     1       1.631  10.180  18.130  0.00  0.00    +0.000 A 
ATOM     14  N   UNL     1       1.096  10.540  19.313  0.00  0.00    +0.000 NA
ATOM     15  C   UNL     1       1.062   9.592  20.271  0.00  0.00    +0.000 A 
ATOM     16  C   UNL     1       1.549   8.306  20.100  0.00  0.00    +0.000 A 
ENDBRANCH   3  11
BRANCH   1  17
ATOM     17  C   UNL     1       5.726   4.780  17.513  0.00  0.00    +0.000 C 
ATOM     18  O   UNL     1       6.690   4.528  18.214  0.00  0.00    +0.000 OA
BRANCH  17  19
ATOM     19  O   UNL     1       5.761   5.013  16.177  0.00  0.00    +0.000 OA
BRANCH  19  20
ATOM     20  C   UNL     1       7.076   5.071  15.611  0.00  0.00    +0.000 C 
BRANCH  20  26
ATOM     21  C   UNL     1       8.576   5.879  12.714  0.00  0.00    +0.000 C 
ATOM     22  C   UNL     1       7.520   4.890  13.015  0.00  0.00    +0.000 A 
ATOM     23  N   UNL     1       6.933   4.146  12.016  0.00  0.00    +0.000 NA
ATOM     24  C   UNL     1       6.036   3.425  12.649  0.00  0.00    +0.000 A 
ATOM     25  O   UNL     1       5.987   3.616  13.994  0.00  0.00    +0.000 OA
ATOM     26  C   UNL     1       6.942   4.570  14.226  0.00  0.00    +0.000 A 
ENDBRANCH  20  26
ENDBRANCH  19  20
ENDBRANCH  17  19
ENDBRANCH   1  17
TORSDOF 5
ENDMDL
MODEL 9
REMARK VINA RESULT:      -8.0      2.522      3.082
REMARK  Name = 
REMARK  6 active torsions:
REMARK  status: ('A' for Active; 'I' for Inactive)
REMARK    1  A    between atoms: C_1  and  C_2
REMARK    2  A    between atoms: C_6  and  C_7
REMARK    3  A    between atoms: C_7  and  O_8
REMARK    4  A    between atoms: O_8  and  C_9
REMARK    5  A    between atoms: C_9  and  C_11
REMARK    6  A    between atoms: C_13  and  C_14
REMARK                            x       y       z     vdW  Elec       q    Type
REMARK                         _______ _______ _______ _____ _____    ______ ____
ROOT
ATOM      1  C   UNL     1       3.933   4.704  18.781  0.00  0.00    +0.000 A 
ATOM      2  C   UNL     1       3.555   6.032  18.553  0.00  0.00    +0.000 A 
ATOM      3  C   UNL     1       2.532   6.580  19.306  0.00  0.00    +0.000 A 
ATOM      4  N   UNL     1       1.897   5.859  20.258  0.00  0.00    +0.000 NA
ATOM      5  C   UNL     1       2.246   4.580  20.477  0.00  0.00    +0.000 A 
ATOM      6  C   UNL     1       1.556   3.882  21.459  0.00  0.00    +0.000 A 
ATOM      7  C   UNL     1       1.848   2.553  21.769  0.00  0.00    +0.000 A 
ATOM      8  C   UNL     1       2.865   1.901  21.090  0.00  0.00    +0.000 A 
ATOM      9  C   UNL     1       3.574   2.582  20.102  0.00  0.00    +0.000 A 
ATOM     10  C   UNL     1       3.273   3.928  19.766  0.00  0.00    +0.000 A 
ENDROOT
BRANCH   3  11
ATOM     11  C   UNL     1       2.067   7.970  19.134  0.00  0.00    +0.000 A 
ATOM     12  C   UNL     1       2.334   8.705  17.971  0.00  0.00    +0.000 A 
ATOM     13  C   UNL     1       1.871  10.009  17.868  0.00  0.00    +0.000 A 
ATOM     14  N   UNL     1       1.166  10.632  18.832  0.00  0.00    +0.000 NA
ATOM     15  C   UNL     1       0.903   9.915  19.943  0.00  0.00    +0.000 A 
ATOM     16  C   UNL     1       1.324   8.610  20.135  0.00  0.00    +0.000 A 
ENDBRANCH   3  11
BRANCH   1  17
ATOM     17  C   UNL     1       5.069   4.153  17.994  0.00  0.00    +0.000 C 
ATOM     18  O   UNL     1       4.981   3.543  16.943  0.00  0.00    +0.000 OA
BRANCH  17  19
ATOM     19  O   UNL     1       6.208   4.339  18.705  0.00  0.00    +0.000 OA
BRANCH  19  20
ATOM     20  C   UNL     1       7.366   4.642  17.919  0.00  0.00    +0.000 C 
BRANCH  20  26
ATOM     21  C   UNL     1       5.776   6.785  15.875  0.00  0.00    +0.000 C 
ATOM     22  C   UNL     1       6.769   7.022  16.943  0.00  0.00    +0.000 A 
ATOM     23  N   UNL     1       7.243   8.287  17.210  0.00  0.00    +0.000 NA
ATOM     24  C   UNL     1       8.117   8.097  18.173  0.00  0.00    +0.000 A 
ATOM     25  O   UNL     1       8.253   6.808  18.582  0.00  0.00    +0.000 OA
ATOM     26  C   UNL     1       7.386   6.115  17.779  0.00  0.00    +0.000 A 
ENDBRANCH  20  26
ENDBRANCH  19  20
ENDBRANCH  17  19
ENDBRANCH   1  17
TORSDOF 5
ENDMDL
