MODEL 1
REMARK VINA RESULT:      -8.8      0.000      0.000
REMARK  Name = 
REMARK  7 active torsions:
REMARK  status: ('A' for Active; 'I' for Inactive)
REMARK    1  A    between atoms: C_1  and  C_2
REMARK    2  A    between atoms: C_2  and  S_3
REMARK    3  A    between atoms: C_2  and  C_10
REMARK    4  A    between atoms: S_3  and  C_4
REMARK    5  A    between atoms: N_8  and  C_9
REMARK    6  A    between atoms: C_14  and  N_15
REMARK    7  A    between atoms: C_16  and  C_18
REMARK                            x       y       z     vdW  Elec       q    Type
REMARK                         _______ _______ _______ _____ _____    ______ ____
ROOT
ATOM      1  C   UNL     1       4.439   5.282  17.394  0.00  0.00    +0.000 A 
ATOM      2  C   UNL     1       3.657   4.112  17.393  0.00  0.00    +0.000 A 
ATOM      3  C   UNL     1       2.375   4.119  17.952  0.00  0.00    +0.000 A 
ATOM      4  C   UNL     1       1.833   5.288  18.483  0.00  0.00    +0.000 A 
ATOM      5  C   UNL     1       2.586   6.463  18.480  0.00  0.00    +0.000 A 
ATOM      6  C   UNL     1       3.874   6.447  17.933  0.00  0.00    +0.000 A 
ENDROOT
BRANCH   5   7
ATOM      7  N   UNL     1       2.141   7.682  19.029  0.00  0.00    +0.000 N 
ATOM      8  C   UNL     1       1.851   8.848  18.365  0.00  0.00    +0.000 C 
ATOM      9  O   UNL     1       2.160   9.108  17.193  0.00  0.00    +0.000 OA
ATOM     10  H   UNL     1       1.984   7.678  20.031  0.00  0.00    +0.000 HD
BRANCH   8  11
ATOM     11  C   UNL     1       1.046   9.860  19.110  0.00  0.00    +0.000 A 
ATOM     12  C   UNL     1       0.179  10.652  18.355  0.00  0.00    +0.000 A 
ATOM     13  C   UNL     1      -0.894  11.346  18.968  0.00  0.00    +0.000 A 
ATOM     14  C   UNL     1      -1.179  11.157  20.312  0.00  0.00    +0.000 A 
ATOM     15  C   UNL     1      -0.320  10.348  21.042  0.00  0.00    +0.000 A 
ATOM     16  C   UNL     1       0.849   9.805  20.485  0.00  0.00    +0.000 A 
ATOM     17  C   UNL     1       1.523   9.042  21.521  0.00  0.00    +0.000 C 
ATOM     18  C   UNL     1       0.651   8.852  22.517  0.00  0.00    +0.000 C 
ATOM     19  C   UNL     1      -0.551   9.744  22.395  0.00  0.00    +0.000 C 
ENDBRANCH   8  11
ENDBRANCH   5   7
BRANCH   1  21
ATOM     20  C   UNL     1       6.944   5.019  17.900  0.00  0.00    +0.000 C 
ATOM     21  C   UNL     1       5.860   5.239  16.831  0.00  0.00    +0.000 C 
BRANCH  21  22
ATOM     22  S   UNL     1       5.972   3.888  15.583  0.00  0.00    +0.000 S 
BRANCH  22  23
ATOM     23  C   UNL     1       6.907   4.624  14.341  0.00  0.00    +0.000 A 
ATOM     24  N   UNL     1       7.848   5.527  14.465  0.00  0.00    +0.000 NA
ATOM     25  N   UNL     1       8.363   5.775  13.209  0.00  0.00    +0.000 NA
ATOM     26  C   UNL     1       7.704   5.027  12.357  0.00  0.00    +0.000 A 
ATOM     27  N   UNL     1       6.775   4.286  13.025  0.00  0.00    +0.000 N 
ATOM     28  C   UNL     1       5.873   3.331  12.444  0.00  0.00    +0.000 C 
ENDBRANCH  22  23
ENDBRANCH  21  22
ENDBRANCH   1  21
TORSDOF 5
ENDMDL
MODEL 2
REMARK VINA RESULT:      -8.7      1.250      1.948
REMARK  Name = 
REMARK  7 active torsions:
REMARK  status: ('A' for Active; 'I' for Inactive)
REMARK    1  A    between atoms: C_1  and  C_2
REMARK    2  A    between atoms: C_2  and  S_3
REMARK    3  A    between atoms: C_2  and  C_10
REMARK    4  A    between atoms: S_3  and  C_4
REMARK    5  A    between atoms: N_8  and  C_9
REMARK    6  A    between atoms: C_14  and  N_15
REMARK    7  A    between atoms: C_16  and  C_18
REMARK                            x       y       z     vdW  Elec       q    Type
REMARK                         _______ _______ _______ _____ _____    ______ ____
ROOT
ATOM      1  C   UNL     1       4.465   5.492  17.345  0.00  0.00    +0.000 A 
ATOM      2  C   UNL     1       3.701   4.310  17.349  0.00  0.00    +0.000 A 
ATOM      3  C   UNL     1       2.435   4.289  17.942  0.00  0.00    +0.000 A 
ATOM      4  C   UNL     1       1.889   5.443  18.502  0.00  0.00    +0.000 A 
ATOM      5  C   UNL     1       2.622   6.629  18.495  0.00  0.00    +0.000 A 
ATOM      6  C   UNL     1       3.896   6.641  17.913  0.00  0.00    +0.000 A 
ENDROOT
BRANCH   5   7
ATOM      7  N   UNL     1       2.173   7.834  19.072  0.00  0.00    +0.000 N 
ATOM      8  C   UNL     1       1.783   8.981  18.427  0.00  0.00    +0.000 C 
ATOM      9  O   UNL     1       1.985   9.244  17.233  0.00  0.00    +0.000 OA
ATOM     10  H   UNL     1       2.097   7.833  20.083  0.00  0.00    +0.000 HD
BRANCH   8  11
ATOM     11  C   UNL     1       0.999   9.966  19.230  0.00  0.00    +0.000 A 
ATOM     12  C   UNL     1       0.223   9.451  20.270  0.00  0.00    +0.000 A 
ATOM     13  C   UNL     1      -0.233  10.287  21.321  0.00  0.00    +0.000 A 
ATOM     14  C   UNL     1       0.182  11.607  21.401  0.00  0.00    +0.000 A 
ATOM     15  C   UNL     1       0.971  12.096  20.370  0.00  0.00    +0.000 A 
ATOM     16  C   UNL     1       1.275  11.328  19.234  0.00  0.00    +0.000 A 
ATOM     17  C   UNL     1       2.088  12.145  18.349  0.00  0.00    +0.000 C 
ATOM     18  C   UNL     1       2.528  13.193  19.055  0.00  0.00    +0.000 C 
ATOM     19  C   UNL     1       1.788  13.354  20.352  0.00  0.00    +0.000 C 
ENDBRANCH   8  11
ENDBRANCH   5   7
BRANCH   1  21
ATOM     20  C   UNL     1       6.993   5.431  17.794  0.00  0.00    +0.000 C 
ATOM     21  C   UNL     1       5.870   5.480  16.743  0.00  0.00    +0.000 C 
BRANCH  21  22
ATOM     22  S   UNL     1       6.034   4.023  15.628  0.00  0.00    +0.000 S 
BRANCH  22  23
ATOM     23  C   UNL     1       6.936   4.675  14.317  0.00  0.00    +0.000 A 
ATOM     24  N   UNL     1       7.924   5.535  14.363  0.00  0.00    +0.000 NA
ATOM     25  N   UNL     1       8.383   5.720  13.075  0.00  0.00    +0.000 NA
ATOM     26  C   UNL     1       7.646   4.980  12.282  0.00  0.00    +0.000 A 
ATOM     27  N   UNL     1       6.719   4.305  13.020  0.00  0.00    +0.000 N 
ATOM     28  C   UNL     1       5.743   3.378  12.517  0.00  0.00    +0.000 C 
ENDBRANCH  22  23
ENDBRANCH  21  22
ENDBRANCH   1  21
TORSDOF 5
ENDMDL
MODEL 3
REMARK VINA RESULT:      -8.7      1.100      2.085
REMARK  Name = 
REMARK  7 active torsions:
REMARK  status: ('A' for Active; 'I' for Inactive)
REMARK    1  A    between atoms: C_1  and  C_2
REMARK    2  A    between atoms: C_2  and  S_3
REMARK    3  A    between atoms: C_2  and  C_10
REMARK    4  A    between atoms: S_3  and  C_4
REMARK    5  A    between atoms: N_8  and  C_9
REMARK    6  A    between atoms: C_14  and  N_15
REMARK    7  A    between atoms: C_16  and  C_18
REMARK                            x       y       z     vdW  Elec       q    Type
REMARK                         _______ _______ _______ _____ _____    ______ ____
ROOT
ATOM      1  C   UNL     1       4.420   5.509  17.359  0.00  0.00    +0.000 A 
ATOM      2  C   UNL     1       3.794   4.256  17.486  0.00  0.00    +0.000 A 
ATOM      3  C   UNL     1       2.571   4.141  18.153  0.00  0.00    +0.000 A 
ATOM      4  C   UNL     1       1.929   5.265  18.668  0.00  0.00    +0.000 A 
ATOM      5  C   UNL     1       2.524   6.521  18.540  0.00  0.00    +0.000 A 
ATOM      6  C   UNL     1       3.757   6.628  17.884  0.00  0.00    +0.000 A 
ENDROOT
BRANCH   5   7
ATOM      7  N   UNL     1       1.974   7.708  19.063  0.00  0.00    +0.000 N 
ATOM      8  C   UNL     1       1.684   8.869  18.389  0.00  0.00    +0.000 C 
ATOM      9  O   UNL     1       2.077   9.162  17.251  0.00  0.00    +0.000 OA
ATOM     10  H   UNL     1       1.733   7.682  20.047  0.00  0.00    +0.000 HD
BRANCH   8  11
ATOM     11  C   UNL     1       0.769   9.829  19.074  0.00  0.00    +0.000 A 
ATOM     12  C   UNL     1       1.335  10.641  20.058  0.00  0.00    +0.000 A 
ATOM     13  C   UNL     1       0.688  11.828  20.484  0.00  0.00    +0.000 A 
ATOM     14  C   UNL     1      -0.461  12.271  19.847  0.00  0.00    +0.000 A 
ATOM     15  C   UNL     1      -0.998  11.462  18.855  0.00  0.00    +0.000 A 
ATOM     16  C   UNL     1      -0.466  10.197  18.555  0.00  0.00    +0.000 A 
ATOM     17  C   UNL     1      -1.276   9.614  17.499  0.00  0.00    +0.000 C 
ATOM     18  C   UNL     1      -2.016  10.593  16.967  0.00  0.00    +0.000 C 
ATOM     19  C   UNL     1      -2.025  11.826  17.825  0.00  0.00    +0.000 C 
ENDBRANCH   8  11
ENDBRANCH   5   7
BRANCH   1  21
ATOM     20  C   UNL     1       6.959   5.757  17.660  0.00  0.00    +0.000 C 
ATOM     21  C   UNL     1       5.785   5.606  16.677  0.00  0.00    +0.000 C 
BRANCH  21  22
ATOM     22  S   UNL     1       6.055   4.096  15.656  0.00  0.00    +0.000 S 
BRANCH  22  23
ATOM     23  C   UNL     1       6.948   4.719  14.324  0.00  0.00    +0.000 A 
ATOM     24  N   UNL     1       7.936   5.579  14.345  0.00  0.00    +0.000 NA
ATOM     25  N   UNL     1       8.385   5.736  13.050  0.00  0.00    +0.000 NA
ATOM     26  C   UNL     1       7.642   4.979  12.278  0.00  0.00    +0.000 A 
ATOM     27  N   UNL     1       6.722   4.321  13.038  0.00  0.00    +0.000 N 
ATOM     28  C   UNL     1       5.742   3.383  12.562  0.00  0.00    +0.000 C 
ENDBRANCH  22  23
ENDBRANCH  21  22
ENDBRANCH   1  21
TORSDOF 5
ENDMDL
MODEL 4
REMARK VINA RESULT:      -8.7      4.237      9.198
REMARK  Name = 
REMARK  7 active torsions:
REMARK  status: ('A' for Active; 'I' for Inactive)
REMARK    1  A    between atoms: C_1  and  C_2
REMARK    2  A    between atoms: C_2  and  S_3
REMARK    3  A    between atoms: C_2  and  C_10
REMARK    4  A    between atoms: S_3  and  C_4
REMARK    5  A    between atoms: N_8  and  C_9
REMARK    6  A    between atoms: C_14  and  N_15
REMARK    7  A    between atoms: C_16  and  C_18
REMARK                            x       y       z     vdW  Elec       q    Type
REMARK                         _______ _______ _______ _____ _____    ______ ____
ROOT
ATOM      1  C   UNL     1      -0.527  10.622  20.867  0.00  0.00    +0.000 A 
ATOM      2  C   UNL     1      -0.452  10.486  22.265  0.00  0.00    +0.000 A 
ATOM      3  C   UNL     1       0.383   9.522  22.838  0.00  0.00    +0.000 A 
ATOM      4  C   UNL     1       1.185   8.707  22.041  0.00  0.00    +0.000 A 
ATOM      5  C   UNL     1       1.139   8.836  20.653  0.00  0.00    +0.000 A 
ATOM      6  C   UNL     1       0.290   9.793  20.084  0.00  0.00    +0.000 A 
ENDROOT
BRANCH   5   7
ATOM      7  N   UNL     1       1.880   8.032  19.764  0.00  0.00    +0.000 N 
ATOM      8  C   UNL     1       2.079   6.675  19.824  0.00  0.00    +0.000 C 
ATOM      9  O   UNL     1       1.842   5.952  20.801  0.00  0.00    +0.000 OA
ATOM     10  H   UNL     1       2.282   8.516  18.969  0.00  0.00    +0.000 HD
BRANCH   8  11
ATOM     11  C   UNL     1       2.570   6.016  18.577  0.00  0.00    +0.000 A 
ATOM     12  C   UNL     1       3.668   6.605  17.947  0.00  0.00    +0.000 A 
ATOM     13  C   UNL     1       4.452   5.876  17.017  0.00  0.00    +0.000 A 
ATOM     14  C   UNL     1       4.218   4.527  16.804  0.00  0.00    +0.000 A 
ATOM     15  C   UNL     1       3.137   3.952  17.457  0.00  0.00    +0.000 A 
ATOM     16  C   UNL     1       2.246   4.709  18.235  0.00  0.00    +0.000 A 
ATOM     17  C   UNL     1       1.225   3.809  18.744  0.00  0.00    +0.000 C 
ATOM     18  C   UNL     1       1.665   2.558  18.574  0.00  0.00    +0.000 C 
ATOM     19  C   UNL     1       2.842   2.493  17.644  0.00  0.00    +0.000 C 
ENDBRANCH   8  11
ENDBRANCH   5   7
BRANCH   1  21
ATOM     20  C   UNL     1      -1.170  13.099  20.639  0.00  0.00    +0.000 C 
ATOM     21  C   UNL     1      -1.489  11.643  20.258  0.00  0.00    +0.000 C 
BRANCH  21  22
ATOM     22  S   UNL     1      -1.450  11.486  18.423  0.00  0.00    +0.000 S 
BRANCH  22  23
ATOM     23  C   UNL     1      -3.120  11.571  18.020  0.00  0.00    +0.000 A 
ATOM     24  N   UNL     1      -4.121  11.918  18.791  0.00  0.00    +0.000 NA
ATOM     25  N   UNL     1      -5.269  11.900  18.026  0.00  0.00    +0.000 NA
ATOM     26  C   UNL     1      -4.932  11.523  16.816  0.00  0.00    +0.000 A 
ATOM     27  N   UNL     1      -3.588  11.302  16.766  0.00  0.00    +0.000 N 
ATOM     28  C   UNL     1      -2.836  10.897  15.610  0.00  0.00    +0.000 C 
ENDBRANCH  22  23
ENDBRANCH  21  22
ENDBRANCH   1  21
TORSDOF 5
ENDMDL
MODEL 5
REMARK VINA RESULT:      -8.5      0.739      1.923
REMARK  Name = 
REMARK  7 active torsions:
REMARK  status: ('A' for Active; 'I' for Inactive)
REMARK    1  A    between atoms: C_1  and  C_2
REMARK    2  A    between atoms: C_2  and  S_3
REMARK    3  A    between atoms: C_2  and  C_10
REMARK    4  A    between atoms: S_3  and  C_4
REMARK    5  A    between atoms: N_8  and  C_9
REMARK    6  A    between atoms: C_14  and  N_15
REMARK    7  A    between atoms: C_16  and  C_18
REMARK                            x       y       z     vdW  Elec       q    Type
REMARK                         _______ _______ _______ _____ _____    ______ ____
ROOT
ATOM      1  C   UNL     1       4.383   5.240  17.208  0.00  0.00    +0.000 A 
ATOM      2  C   UNL     1       3.743   4.016  16.937  0.00  0.00    +0.000 A 
ATOM      3  C   UNL     1       2.540   3.692  17.571  0.00  0.00    +0.000 A 
ATOM      4  C   UNL     1       1.931   4.587  18.449  0.00  0.00    +0.000 A 
ATOM      5  C   UNL     1       2.540   5.812  18.720  0.00  0.00    +0.000 A 
ATOM      6  C   UNL     1       3.753   6.125  18.094  0.00  0.00    +0.000 A 
ENDROOT
BRANCH   5   7
ATOM      7  N   UNL     1       2.023   6.763  19.622  0.00  0.00    +0.000 N 
ATOM      8  C   UNL     1       1.743   8.086  19.382  0.00  0.00    +0.000 C 
ATOM      9  O   UNL     1       2.120   8.737  18.397  0.00  0.00    +0.000 OA
ATOM     10  H   UNL     1       1.801   6.413  20.547  0.00  0.00    +0.000 HD
BRANCH   8  11
ATOM     11  C   UNL     1       0.860   8.773  20.370  0.00  0.00    +0.000 A 
ATOM     12  C   UNL     1       1.194   8.625  21.718  0.00  0.00    +0.000 A 
ATOM     13  C   UNL     1       0.694   9.523  22.695  0.00  0.00    +0.000 A 
ATOM     14  C   UNL     1      -0.040  10.637  22.318  0.00  0.00    +0.000 A 
ATOM     15  C   UNL     1      -0.344  10.780  20.971  0.00  0.00    +0.000 A 
ATOM     16  C   UNL     1      -0.009   9.800  20.022  0.00  0.00    +0.000 A 
ATOM     17  C   UNL     1      -0.493  10.249  18.728  0.00  0.00    +0.000 C 
ATOM     18  C   UNL     1      -0.782  11.551  18.833  0.00  0.00    +0.000 C 
ATOM     19  C   UNL     1      -0.844  12.004  20.264  0.00  0.00    +0.000 C 
ENDBRANCH   8  11
ENDBRANCH   5   7
BRANCH   1  21
ATOM     20  C   UNL     1       6.803   6.037  17.536  0.00  0.00    +0.000 C 
ATOM     21  C   UNL     1       5.727   5.551  16.549  0.00  0.00    +0.000 C 
BRANCH  21  22
ATOM     22  S   UNL     1       6.343   4.039  15.696  0.00  0.00    +0.000 S 
BRANCH  22  23
ATOM     23  C   UNL     1       7.067   4.695  14.281  0.00  0.00    +0.000 A 
ATOM     24  N   UNL     1       8.021   5.588  14.201  0.00  0.00    +0.000 NA
ATOM     25  N   UNL     1       8.325   5.764  12.867  0.00  0.00    +0.000 NA
ATOM     26  C   UNL     1       7.529   4.984  12.174  0.00  0.00    +0.000 A 
ATOM     27  N   UNL     1       6.718   4.293  13.024  0.00  0.00    +0.000 N 
ATOM     28  C   UNL     1       5.725   3.323  12.649  0.00  0.00    +0.000 C 
ENDBRANCH  22  23
ENDBRANCH  21  22
ENDBRANCH   1  21
TORSDOF 5
ENDMDL
MODEL 6
REMARK VINA RESULT:      -8.4      1.744      2.383
REMARK  Name = 
REMARK  7 active torsions:
REMARK  status: ('A' for Active; 'I' for Inactive)
REMARK    1  A    between atoms: C_1  and  C_2
REMARK    2  A    between atoms: C_2  and  S_3
REMARK    3  A    between atoms: C_2  and  C_10
REMARK    4  A    between atoms: S_3  and  C_4
REMARK    5  A    between atoms: N_8  and  C_9
REMARK    6  A    between atoms: C_14  and  N_15
REMARK    7  A    between atoms: C_16  and  C_18
REMARK                            x       y       z     vdW  Elec       q    Type
REMARK                         _______ _______ _______ _____ _____    ______ ____
ROOT
ATOM      1  C   UNL     1       3.482   4.198  19.502  0.00  0.00    +0.000 A 
ATOM      2  C   UNL     1       2.526   3.257  19.926  0.00  0.00    +0.000 A 
ATOM      3  C   UNL     1       1.342   3.678  20.538  0.00  0.00    +0.000 A 
ATOM      4  C   UNL     1       1.067   5.034  20.705  0.00  0.00    +0.000 A 
ATOM      5  C   UNL     1       1.994   5.985  20.279  0.00  0.00    +0.000 A 
ATOM      6  C   UNL     1       3.185   5.557  19.679  0.00  0.00    +0.000 A 
ENDROOT
BRANCH   5   7
ATOM      7  N   UNL     1       1.825   7.375  20.441  0.00  0.00    +0.000 N 
ATOM      8  C   UNL     1       1.654   8.321  19.461  0.00  0.00    +0.000 C 
ATOM      9  O   UNL     1       1.858   8.154  18.251  0.00  0.00    +0.000 OA
ATOM     10  H   UNL     1       1.791   7.702  21.400  0.00  0.00    +0.000 HD
BRANCH   8  11
ATOM     11  C   UNL     1       1.121   9.646  19.897  0.00  0.00    +0.000 A 
ATOM     12  C   UNL     1       0.650  10.494  18.893  0.00  0.00    +0.000 A 
ATOM     13  C   UNL     1      -0.218  11.572  19.199  0.00  0.00    +0.000 A 
ATOM     14  C   UNL     1      -0.714  11.736  20.483  0.00  0.00    +0.000 A 
ATOM     15  C   UNL     1      -0.252  10.869  21.464  0.00  0.00    +0.000 A 
ATOM     16  C   UNL     1       0.747   9.916  21.208  0.00  0.00    +0.000 A 
ATOM     17  C   UNL     1       1.010   9.204  22.447  0.00  0.00    +0.000 C 
ATOM     18  C   UNL     1       0.005   9.469  23.289  0.00  0.00    +0.000 C 
ATOM     19  C   UNL     1      -0.829  10.629  22.827  0.00  0.00    +0.000 C 
ENDBRANCH   8  11
ENDBRANCH   5   7
BRANCH   1  21
ATOM     20  C   UNL     1       4.657   3.223  17.437  0.00  0.00    +0.000 C 
ATOM     21  C   UNL     1       4.796   3.715  18.887  0.00  0.00    +0.000 C 
BRANCH  21  22
ATOM     22  S   UNL     1       6.023   5.089  18.934  0.00  0.00    +0.000 S 
BRANCH  22  23
ATOM     23  C   UNL     1       6.569   5.138  17.304  0.00  0.00    +0.000 A 
ATOM     24  N   UNL     1       7.574   4.490  16.769  0.00  0.00    +0.000 NA
ATOM     25  N   UNL     1       7.599   4.789  15.422  0.00  0.00    +0.000 NA
ATOM     26  C   UNL     1       6.618   5.627  15.184  0.00  0.00    +0.000 A 
ATOM     27  N   UNL     1       5.944   5.878  16.342  0.00  0.00    +0.000 N 
ATOM     28  C   UNL     1       4.794   6.728  16.488  0.00  0.00    +0.000 C 
ENDBRANCH  22  23
ENDBRANCH  21  22
ENDBRANCH   1  21
TORSDOF 5
ENDMDL
MODEL 7
REMARK VINA RESULT:      -8.3      2.600      4.263
REMARK  Name = 
REMARK  7 active torsions:
REMARK  status: ('A' for Active; 'I' for Inactive)
REMARK    1  A    between atoms: C_1  and  C_2
REMARK    2  A    between atoms: C_2  and  S_3
REMARK    3  A    between atoms: C_2  and  C_10
REMARK    4  A    between atoms: S_3  and  C_4
REMARK    5  A    between atoms: N_8  and  C_9
REMARK    6  A    between atoms: C_14  and  N_15
REMARK    7  A    between atoms: C_16  and  C_18
REMARK                            x       y       z     vdW  Elec       q    Type
REMARK                         _______ _______ _______ _____ _____    ______ ____
ROOT
ATOM      1  C   UNL     1       2.728   6.801  19.357  0.00  0.00    +0.000 A 
ATOM      2  C   UNL     1       3.208   7.259  18.116  0.00  0.00    +0.000 A 
ATOM      3  C   UNL     1       2.699   8.432  17.551  0.00  0.00    +0.000 A 
ATOM      4  C   UNL     1       1.739   9.190  18.220  0.00  0.00    +0.000 A 
ATOM      5  C   UNL     1       1.261   8.763  19.458  0.00  0.00    +0.000 A 
ATOM      6  C   UNL     1       1.763   7.579  20.013  0.00  0.00    +0.000 A 
ENDROOT
BRANCH   5   7
ATOM      7  N   UNL     1       0.264   9.438  20.191  0.00  0.00    +0.000 N 
ATOM      8  C   UNL     1       0.435  10.323  21.226  0.00  0.00    +0.000 C 
ATOM      9  O   UNL     1       1.485  10.502  21.859  0.00  0.00    +0.000 OA
ATOM     10  H   UNL     1      -0.689   9.272  19.887  0.00  0.00    +0.000 HD
BRANCH   8  11
ATOM     11  C   UNL     1      -0.738  11.179  21.574  0.00  0.00    +0.000 A 
ATOM     12  C   UNL     1      -1.249  11.047  22.866  0.00  0.00    +0.000 A 
ATOM     13  C   UNL     1      -2.073  12.053  23.430  0.00  0.00    +0.000 A 
ATOM     14  C   UNL     1      -2.290  13.245  22.756  0.00  0.00    +0.000 A 
ATOM     15  C   UNL     1      -1.755  13.369  21.482  0.00  0.00    +0.000 A 
ATOM     16  C   UNL     1      -1.093  12.307  20.844  0.00  0.00    +0.000 A 
ATOM     17  C   UNL     1      -0.689  12.763  19.525  0.00  0.00    +0.000 C 
ATOM     18  C   UNL     1      -0.789  14.096  19.509  0.00  0.00    +0.000 C 
ATOM     19  C   UNL     1      -1.579  14.620  20.674  0.00  0.00    +0.000 C 
ENDBRANCH   8  11
ENDBRANCH   5   7
BRANCH   1  21
ATOM     20  C   UNL     1       2.279   4.798  20.901  0.00  0.00    +0.000 C 
ATOM     21  C   UNL     1       3.255   5.485  19.931  0.00  0.00    +0.000 C 
BRANCH  21  22
ATOM     22  S   UNL     1       3.627   4.331  18.544  0.00  0.00    +0.000 S 
BRANCH  22  23
ATOM     23  C   UNL     1       5.329   4.513  18.373  0.00  0.00    +0.000 A 
ATOM     24  N   UNL     1       6.226   4.652  19.319  0.00  0.00    +0.000 NA
ATOM     25  N   UNL     1       7.467   4.700  18.718  0.00  0.00    +0.000 NA
ATOM     26  C   UNL     1       7.284   4.607  17.423  0.00  0.00    +0.000 A 
ATOM     27  N   UNL     1       5.952   4.490  17.159  0.00  0.00    +0.000 N 
ATOM     28  C   UNL     1       5.353   4.344  15.861  0.00  0.00    +0.000 C 
ENDBRANCH  22  23
ENDBRANCH  21  22
ENDBRANCH   1  21
TORSDOF 5
ENDMDL
MODEL 8
REMARK VINA RESULT:      -8.2      4.112      9.298
REMARK  Name = 
REMARK  7 active torsions:
REMARK  status: ('A' for Active; 'I' for Inactive)
REMARK    1  A    between atoms: C_1  and  C_2
REMARK    2  A    between atoms: C_2  and  S_3
REMARK    3  A    between atoms: C_2  and  C_10
REMARK    4  A    between atoms: S_3  and  C_4
REMARK    5  A    between atoms: N_8  and  C_9
REMARK    6  A    between atoms: C_14  and  N_15
REMARK    7  A    between atoms: C_16  and  C_18
REMARK                            x       y       z     vdW  Elec       q    Type
REMARK                         _______ _______ _______ _____ _____    ______ ____
ROOT
ATOM      1  C   UNL     1      -0.182  10.643  20.385  0.00  0.00    +0.000 A 
ATOM      2  C   UNL     1      -0.293  10.455  21.775  0.00  0.00    +0.000 A 
ATOM      3  C   UNL     1       0.364   9.390  22.399  0.00  0.00    +0.000 A 
ATOM      4  C   UNL     1       1.170   8.521  21.667  0.00  0.00    +0.000 A 
ATOM      5  C   UNL     1       1.306   8.697  20.291  0.00  0.00    +0.000 A 
ATOM      6  C   UNL     1       0.634   9.757  19.668  0.00  0.00    +0.000 A 
ENDROOT
BRANCH   5   7
ATOM      7  N   UNL     1       2.064   7.848  19.461  0.00  0.00    +0.000 N 
ATOM      8  C   UNL     1       2.244   6.492  19.584  0.00  0.00    +0.000 C 
ATOM      9  O   UNL     1       1.968   5.814  20.584  0.00  0.00    +0.000 OA
ATOM     10  H   UNL     1       2.496   8.292  18.658  0.00  0.00    +0.000 HD
BRANCH   8  11
ATOM     11  C   UNL     1       2.765   5.774  18.383  0.00  0.00    +0.000 A 
ATOM     12  C   UNL     1       3.936   6.276  17.812  0.00  0.00    +0.000 A 
ATOM     13  C   UNL     1       4.725   5.476  16.947  0.00  0.00    +0.000 A 
ATOM     14  C   UNL     1       4.415   4.140  16.744  0.00  0.00    +0.000 A 
ATOM     15  C   UNL     1       3.259   3.653  17.338  0.00  0.00    +0.000 A 
ATOM     16  C   UNL     1       2.375   4.484  18.046  0.00  0.00    +0.000 A 
ATOM     17  C   UNL     1       1.267   3.665  18.506  0.00  0.00    +0.000 C 
ATOM     18  C   UNL     1       1.632   2.384  18.386  0.00  0.00    +0.000 C 
ATOM     19  C   UNL     1       2.857   2.221  17.533  0.00  0.00    +0.000 C 
ENDBRANCH   8  11
ENDBRANCH   5   7
BRANCH   1  21
ATOM     20  C   UNL     1      -1.832  12.590  20.682  0.00  0.00    +0.000 C 
ATOM     21  C   UNL     1      -0.955  11.779  19.713  0.00  0.00    +0.000 C 
BRANCH  21  22
ATOM     22  S   UNL     1       0.241  12.918  18.897  0.00  0.00    +0.000 S 
BRANCH  22  23
ATOM     23  C   UNL     1       0.894  13.773  20.239  0.00  0.00    +0.000 A 
ATOM     24  N   UNL     1       1.748  13.341  21.134  0.00  0.00    +0.000 NA
ATOM     25  N   UNL     1       2.034  14.390  21.983  0.00  0.00    +0.000 NA
ATOM     26  C   UNL     1       1.329  15.424  21.588  0.00  0.00    +0.000 A 
ATOM     27  N   UNL     1       0.594  15.080  20.493  0.00  0.00    +0.000 N 
ATOM     28  C   UNL     1      -0.288  15.945  19.758  0.00  0.00    +0.000 C 
ENDBRANCH  22  23
ENDBRANCH  21  22
ENDBRANCH   1  21
TORSDOF 5
ENDMDL
MODEL 9
REMARK VINA RESULT:      -8.2      4.296     10.022
REMARK  Name = 
REMARK  7 active torsions:
REMARK  status: ('A' for Active; 'I' for Inactive)
REMARK    1  A    between atoms: C_1  and  C_2
REMARK    2  A    between atoms: C_2  and  S_3
REMARK    3  A    between atoms: C_2  and  C_10
REMARK    4  A    between atoms: S_3  and  C_4
REMARK    5  A    between atoms: N_8  and  C_9
REMARK    6  A    between atoms: C_14  and  N_15
REMARK    7  A    between atoms: C_16  and  C_18
REMARK                            x       y       z     vdW  Elec       q    Type
REMARK                         _______ _______ _______ _____ _____    ______ ____
ROOT
ATOM      1  C   UNL     1       0.135  10.530  20.631  0.00  0.00    +0.000 A 
ATOM      2  C   UNL     1       0.428  11.739  19.975  0.00  0.00    +0.000 A 
ATOM      3  C   UNL     1       1.243  11.748  18.839  0.00  0.00    +0.000 A 
ATOM      4  C   UNL     1       1.746  10.560  18.312  0.00  0.00    +0.000 A 
ATOM      5  C   UNL     1       1.455   9.347  18.938  0.00  0.00    +0.000 A 
ATOM      6  C   UNL     1       0.651   9.346  20.084  0.00  0.00    +0.000 A 
ENDROOT
BRANCH   5   7
ATOM      7  N   UNL     1       1.950   8.101  18.505  0.00  0.00    +0.000 N 
ATOM      8  C   UNL     1       2.337   7.034  19.279  0.00  0.00    +0.000 C 
ATOM      9  O   UNL     1       2.546   7.065  20.499  0.00  0.00    +0.000 OA
ATOM     10  H   UNL     1       1.988   7.971  17.500  0.00  0.00    +0.000 HD
BRANCH   8  11
ATOM     11  C   UNL     1       2.458   5.716  18.588  0.00  0.00    +0.000 A 
ATOM     12  C   UNL     1       3.450   5.609  17.611  0.00  0.00    +0.000 A 
ATOM     13  C   UNL     1       3.916   4.340  17.183  0.00  0.00    +0.000 A 
ATOM     14  C   UNL     1       3.484   3.182  17.811  0.00  0.00    +0.000 A 
ATOM     15  C   UNL     1       2.514   3.310  18.795  0.00  0.00    +0.000 A 
ATOM     16  C   UNL     1       1.913   4.544  19.097  0.00  0.00    +0.000 A 
ATOM     17  C   UNL     1       0.932   4.317  20.144  0.00  0.00    +0.000 C 
ATOM     18  C   UNL     1       1.173   3.111  20.671  0.00  0.00    +0.000 C 
ATOM     19  C   UNL     1       2.099   2.294  19.817  0.00  0.00    +0.000 C 
ENDBRANCH   8  11
ENDBRANCH   5   7
BRANCH   1  21
ATOM     20  C   UNL     1      -0.119   9.713  23.054  0.00  0.00    +0.000 C 
ATOM     21  C   UNL     1      -0.711  10.548  21.906  0.00  0.00    +0.000 C 
BRANCH  21  22
ATOM     22  S   UNL     1      -0.903  12.290  22.474  0.00  0.00    +0.000 S 
BRANCH  22  23
ATOM     23  C   UNL     1      -2.598  12.394  22.747  0.00  0.00    +0.000 A 
ATOM     24  N   UNL     1      -3.293  11.861  23.721  0.00  0.00    +0.000 NA
ATOM     25  N   UNL     1      -4.605  12.261  23.570  0.00  0.00    +0.000 NA
ATOM     26  C   UNL     1      -4.669  13.010  22.494  0.00  0.00    +0.000 A 
ATOM     27  N   UNL     1      -3.428  13.119  21.942  0.00  0.00    +0.000 N 
ATOM     28  C   UNL     1      -3.085  13.873  20.767  0.00  0.00    +0.000 C 
ENDBRANCH  22  23
ENDBRANCH  21  22
ENDBRANCH   1  21
TORSDOF 5
ENDMDL
