MODEL 1
REMARK VINA RESULT:      -8.2      0.000      0.000
REMARK  Name = 
REMARK  5 active torsions:
REMARK  status: ('A' for Active; 'I' for Inactive)
REMARK    1  A    between atoms: C_2  and  C_3
REMARK    2  A    between atoms: N_6  and  C_7
REMARK    3  A    between atoms: C_7  and  C_8
REMARK    4  A    between atoms: N_18  and  S_19
REMARK    5  A    between atoms: S_19  and  C_22
REMARK                            x       y       z     vdW  Elec       q    Type
REMARK                         _______ _______ _______ _____ _____    ______ ____
ROOT
ATOM      1  O   UNL     1      -1.646   9.903  18.418  0.00  0.00    +0.000 OA
ATOM      2  C   UNL     1      -0.632  10.244  19.006  0.00  0.00    +0.000 C 
ATOM      3  N   UNL     1      -0.613  11.384  19.822  0.00  0.00    +0.000 N 
ATOM      4  C   UNL     1      -1.882  12.054  20.119  0.00  0.00    +0.000 C 
ATOM      5  C   UNL     1      -1.742  13.579  20.224  0.00  0.00    +0.000 C 
ATOM      6  N   UNL     1      -0.615  13.979  21.123  0.00  0.00    +0.000 NA
ATOM      7  C   UNL     1       0.654  13.370  20.637  0.00  0.00    +0.000 C 
ATOM      8  C   UNL     1       0.547  11.841  20.581  0.00  0.00    +0.000 C 
ENDROOT
BRANCH   2   9
ATOM      9  C   UNL     1       0.598   9.517  18.824  0.00  0.00    +0.000 A 
ATOM     10  C   UNL     1       1.577   9.571  17.810  0.00  0.00    +0.000 A 
ATOM     11  N   UNL     1       2.521   8.641  17.955  0.00  0.00    +0.000 NA
ATOM     12  N   UNL     1       2.235   8.081  19.141  0.00  0.00    +0.000 N 
ATOM     13  C   UNL     1       1.117   8.606  19.724  0.00  0.00    +0.000 A 
BRANCH  12  14
ATOM     14  C   UNL     1       3.006   6.940  19.622  0.00  0.00    +0.000 C 
BRANCH  14  15
ATOM     15  C   UNL     1       2.275   5.647  19.392  0.00  0.00    +0.000 A 
ATOM     16  C   UNL     1       2.170   5.105  18.104  0.00  0.00    +0.000 A 
ATOM     17  C   UNL     1       1.464   3.923  17.893  0.00  0.00    +0.000 A 
ATOM     18  C   UNL     1       0.854   3.275  18.964  0.00  0.00    +0.000 A 
ATOM     19  C   UNL     1       0.952   3.805  20.247  0.00  0.00    +0.000 A 
ATOM     20  C   UNL     1       1.652   4.990  20.461  0.00  0.00    +0.000 A 
ENDBRANCH  14  15
ENDBRANCH  12  14
ENDBRANCH   2   9
BRANCH   6  21
ATOM     21  S   UNL     1      -0.861  13.833  22.803  0.00  0.00    +0.000 S 
ATOM     22  O   UNL     1      -0.676  12.453  23.187  0.00  0.00    +0.000 OA
ATOM     23  O   UNL     1      -0.108  14.887  23.449  0.00  0.00    +0.000 OA
BRANCH  21  24
ATOM     24  C   UNL     1      -2.573  14.236  22.993  0.00  0.00    +0.000 A 
ATOM     25  C   UNL     1      -2.966  15.524  22.628  0.00  0.00    +0.000 A 
ATOM     26  C   UNL     1      -4.220  15.976  23.006  0.00  0.00    +0.000 A 
ATOM     27  C   UNL     1      -5.126  15.089  23.597  0.00  0.00    +0.000 A 
ATOM     28  C   UNL     1      -6.387  15.522  23.976  0.00  0.00    +0.000 A 
ATOM     29  C   UNL     1      -7.463  14.663  23.867  0.00  0.00    +0.000 A 
ATOM     30  C   UNL     1      -7.206  13.301  23.872  0.00  0.00    +0.000 A 
ATOM     31  C   UNL     1      -5.886  12.839  23.963  0.00  0.00    +0.000 A 
ATOM     32  C   UNL     1      -4.818  13.727  23.730  0.00  0.00    +0.000 A 
ATOM     33  C   UNL     1      -3.480  13.330  23.561  0.00  0.00    +0.000 A 
ENDBRANCH  21  24
ENDBRANCH   6  21
TORSDOF 5
ENDMDL
MODEL 2
REMARK VINA RESULT:      -8.2      3.420      5.568
REMARK  Name = 
REMARK  5 active torsions:
REMARK  status: ('A' for Active; 'I' for Inactive)
REMARK    1  A    between atoms: C_2  and  C_3
REMARK    2  A    between atoms: N_6  and  C_7
REMARK    3  A    between atoms: C_7  and  C_8
REMARK    4  A    between atoms: N_18  and  S_19
REMARK    5  A    between atoms: S_19  and  C_22
REMARK                            x       y       z     vdW  Elec       q    Type
REMARK                         _______ _______ _______ _____ _____    ______ ____
ROOT
ATOM      1  O   UNL     1       0.519   8.164  21.547  0.00  0.00    +0.000 OA
ATOM      2  C   UNL     1       0.856   8.948  20.674  0.00  0.00    +0.000 C 
ATOM      3  N   UNL     1       0.457  10.291  20.709  0.00  0.00    +0.000 N 
ATOM      4  C   UNL     1      -0.207  10.793  21.915  0.00  0.00    +0.000 C 
ATOM      5  C   UNL     1      -1.287  11.841  21.610  0.00  0.00    +0.000 C 
ATOM      6  N   UNL     1      -0.786  12.915  20.696  0.00  0.00    +0.000 NA
ATOM      7  C   UNL     1      -0.278  12.305  19.436  0.00  0.00    +0.000 C 
ATOM      8  C   UNL     1       0.842  11.296  19.723  0.00  0.00    +0.000 C 
ENDROOT
BRANCH   2   9
ATOM      9  C   UNL     1       1.622   8.495  19.541  0.00  0.00    +0.000 A 
ATOM     10  C   UNL     1       1.861   9.075  18.278  0.00  0.00    +0.000 A 
ATOM     11  N   UNL     1       2.541   8.271  17.461  0.00  0.00    +0.000 NA
ATOM     12  N   UNL     1       2.870   7.229  18.243  0.00  0.00    +0.000 N 
ATOM     13  C   UNL     1       2.381   7.340  19.513  0.00  0.00    +0.000 A 
BRANCH  12  14
ATOM     14  C   UNL     1       3.559   6.074  17.678  0.00  0.00    +0.000 C 
BRANCH  14  15
ATOM     15  C   UNL     1       5.032   6.118  17.970  0.00  0.00    +0.000 A 
ATOM     16  C   UNL     1       5.567   5.406  19.053  0.00  0.00    +0.000 A 
ATOM     17  C   UNL     1       6.929   5.477  19.336  0.00  0.00    +0.000 A 
ATOM     18  C   UNL     1       7.767   6.259  18.545  0.00  0.00    +0.000 A 
ATOM     19  C   UNL     1       7.245   6.969  17.467  0.00  0.00    +0.000 A 
ATOM     20  C   UNL     1       5.883   6.906  17.185  0.00  0.00    +0.000 A 
ENDBRANCH  14  15
ENDBRANCH  12  14
ENDBRANCH   2   9
BRANCH   6  21
ATOM     21  S   UNL     1       0.246  14.096  21.366  0.00  0.00    +0.000 S 
ATOM     22  O   UNL     1      -0.473  14.823  22.386  0.00  0.00    +0.000 OA
ATOM     23  O   UNL     1       1.508  13.454  21.666  0.00  0.00    +0.000 OA
BRANCH  21  24
ATOM     24  C   UNL     1       0.537  15.190  20.006  0.00  0.00    +0.000 A 
ATOM     25  C   UNL     1       1.740  15.036  19.316  0.00  0.00    +0.000 A 
ATOM     26  C   UNL     1       2.137  16.027  18.432  0.00  0.00    +0.000 A 
ATOM     27  C   UNL     1       1.260  17.071  18.124  0.00  0.00    +0.000 A 
ATOM     28  C   UNL     1       1.638  18.068  17.237  0.00  0.00    +0.000 A 
ATOM     29  C   UNL     1       0.693  18.628  16.400  0.00  0.00    +0.000 A 
ATOM     30  C   UNL     1      -0.636  18.563  16.789  0.00  0.00    +0.000 A 
ATOM     31  C   UNL     1      -0.982  17.924  17.988  0.00  0.00    +0.000 A 
ATOM     32  C   UNL     1      -0.050  17.085  18.626  0.00  0.00    +0.000 A 
ATOM     33  C   UNL     1      -0.361  16.217  19.687  0.00  0.00    +0.000 A 
ENDBRANCH  21  24
ENDBRANCH   6  21
TORSDOF 5
ENDMDL
MODEL 3
REMARK VINA RESULT:      -7.8      2.845      4.958
REMARK  Name = 
REMARK  5 active torsions:
REMARK  status: ('A' for Active; 'I' for Inactive)
REMARK    1  A    between atoms: C_2  and  C_3
REMARK    2  A    between atoms: N_6  and  C_7
REMARK    3  A    between atoms: C_7  and  C_8
REMARK    4  A    between atoms: N_18  and  S_19
REMARK    5  A    between atoms: S_19  and  C_22
REMARK                            x       y       z     vdW  Elec       q    Type
REMARK                         _______ _______ _______ _____ _____    ______ ____
ROOT
ATOM      1  O   UNL     1      -0.136   8.588  21.650  0.00  0.00    +0.000 OA
ATOM      2  C   UNL     1       0.212   9.406  20.814  0.00  0.00    +0.000 C 
ATOM      3  N   UNL     1      -0.213  10.740  20.880  0.00  0.00    +0.000 N 
ATOM      4  C   UNL     1      -0.922  11.190  22.081  0.00  0.00    +0.000 C 
ATOM      5  C   UNL     1      -2.012  12.228  21.777  0.00  0.00    +0.000 C 
ATOM      6  N   UNL     1      -1.504  13.340  20.915  0.00  0.00    +0.000 NA
ATOM      7  C   UNL     1      -0.947  12.782  19.652  0.00  0.00    +0.000 C 
ATOM      8  C   UNL     1       0.183  11.784  19.939  0.00  0.00    +0.000 C 
ENDROOT
BRANCH   2   9
ATOM      9  C   UNL     1       1.020   9.004  19.691  0.00  0.00    +0.000 A 
ATOM     10  C   UNL     1       1.122   9.513  18.379  0.00  0.00    +0.000 A 
ATOM     11  N   UNL     1       1.915   8.778  17.601  0.00  0.00    +0.000 NA
ATOM     12  N   UNL     1       2.443   7.877  18.446  0.00  0.00    +0.000 N 
ATOM     13  C   UNL     1       1.972   8.003  19.721  0.00  0.00    +0.000 A 
BRANCH  12  14
ATOM     14  C   UNL     1       3.313   6.820  17.945  0.00  0.00    +0.000 C 
BRANCH  14  15
ATOM     15  C   UNL     1       2.868   5.468  18.428  0.00  0.00    +0.000 A 
ATOM     16  C   UNL     1       3.556   4.817  19.462  0.00  0.00    +0.000 A 
ATOM     17  C   UNL     1       3.157   3.550  19.883  0.00  0.00    +0.000 A 
ATOM     18  C   UNL     1       2.072   2.923  19.275  0.00  0.00    +0.000 A 
ATOM     19  C   UNL     1       1.383   3.561  18.248  0.00  0.00    +0.000 A 
ATOM     20  C   UNL     1       1.783   4.824  17.820  0.00  0.00    +0.000 A 
ENDBRANCH  14  15
ENDBRANCH  12  14
ENDBRANCH   2   9
BRANCH   6  21
ATOM     21  S   UNL     1      -0.515  14.516  21.654  0.00  0.00    +0.000 S 
ATOM     22  O   UNL     1      -1.334  15.357  22.496  0.00  0.00    +0.000 OA
ATOM     23  O   UNL     1       0.645  13.837  22.192  0.00  0.00    +0.000 OA
BRANCH  21  24
ATOM     24  C   UNL     1       0.047  15.485  20.284  0.00  0.00    +0.000 A 
ATOM     25  C   UNL     1       1.335  15.230  19.814  0.00  0.00    +0.000 A 
ATOM     26  C   UNL     1       1.919  16.129  18.936  0.00  0.00    +0.000 A 
ATOM     27  C   UNL     1       1.158  17.179  18.413  0.00  0.00    +0.000 A 
ATOM     28  C   UNL     1       1.725  18.085  17.529  0.00  0.00    +0.000 A 
ATOM     29  C   UNL     1       0.956  18.612  16.510  0.00  0.00    +0.000 A 
ATOM     30  C   UNL     1      -0.419  18.630  16.679  0.00  0.00    +0.000 A 
ATOM     31  C   UNL     1      -0.986  18.104  17.848  0.00  0.00    +0.000 A 
ATOM     32  C   UNL     1      -0.213  17.283  18.691  0.00  0.00    +0.000 A 
ATOM     33  C   UNL     1      -0.735  16.517  19.747  0.00  0.00    +0.000 A 
ENDBRANCH  21  24
ENDBRANCH   6  21
TORSDOF 5
ENDMDL
MODEL 4
REMARK VINA RESULT:      -7.8      0.848      1.195
REMARK  Name = 
REMARK  5 active torsions:
REMARK  status: ('A' for Active; 'I' for Inactive)
REMARK    1  A    between atoms: C_2  and  C_3
REMARK    2  A    between atoms: N_6  and  C_7
REMARK    3  A    between atoms: C_7  and  C_8
REMARK    4  A    between atoms: N_18  and  S_19
REMARK    5  A    between atoms: S_19  and  C_22
REMARK                            x       y       z     vdW  Elec       q    Type
REMARK                         _______ _______ _______ _____ _____    ______ ____
ROOT
ATOM      1  O   UNL     1      -1.100   9.810  17.621  0.00  0.00    +0.000 OA
ATOM      2  C   UNL     1      -0.233  10.036  18.451  0.00  0.00    +0.000 C 
ATOM      3  N   UNL     1      -0.413  11.008  19.445  0.00  0.00    +0.000 N 
ATOM      4  C   UNL     1      -1.737  11.615  19.600  0.00  0.00    +0.000 C 
ATOM      5  C   UNL     1      -1.672  13.095  20.003  0.00  0.00    +0.000 C 
ATOM      6  N   UNL     1      -0.757  13.321  21.164  0.00  0.00    +0.000 NA
ATOM      7  C   UNL     1       0.602  12.808  20.840  0.00  0.00    +0.000 C 
ATOM      8  C   UNL     1       0.560  11.314  20.490  0.00  0.00    +0.000 C 
ENDROOT
BRANCH   2   9
ATOM      9  C   UNL     1       1.032   9.351  18.390  0.00  0.00    +0.000 A 
ATOM     10  C   UNL     1       2.189   9.586  17.617  0.00  0.00    +0.000 A 
ATOM     11  N   UNL     1       3.117   8.643  17.778  0.00  0.00    +0.000 NA
ATOM     12  N   UNL     1       2.623   7.876  18.763  0.00  0.00    +0.000 N 
ATOM     13  C   UNL     1       1.396   8.289  19.196  0.00  0.00    +0.000 A 
BRANCH  12  14
ATOM     14  C   UNL     1       3.323   6.665  19.175  0.00  0.00    +0.000 C 
BRANCH  14  15
ATOM     15  C   UNL     1       2.390   5.489  19.248  0.00  0.00    +0.000 A 
ATOM     16  C   UNL     1       1.882   5.055  20.480  0.00  0.00    +0.000 A 
ATOM     17  C   UNL     1       1.043   3.945  20.543  0.00  0.00    +0.000 A 
ATOM     18  C   UNL     1       0.705   3.259  19.379  0.00  0.00    +0.000 A 
ATOM     19  C   UNL     1       1.204   3.682  18.151  0.00  0.00    +0.000 A 
ATOM     20  C   UNL     1       2.049   4.787  18.085  0.00  0.00    +0.000 A 
ENDBRANCH  14  15
ENDBRANCH  12  14
ENDBRANCH   2   9
BRANCH   6  21
ATOM     21  S   UNL     1      -1.323  12.871  22.708  0.00  0.00    +0.000 S 
ATOM     22  O   UNL     1      -1.474  11.435  22.753  0.00  0.00    +0.000 OA
ATOM     23  O   UNL     1      -0.512  13.560  23.690  0.00  0.00    +0.000 OA
BRANCH  21  24
ATOM     24  C   UNL     1      -2.934  13.599  22.772  0.00  0.00    +0.000 A 
ATOM     25  C   UNL     1      -3.003  14.961  23.068  0.00  0.00    +0.000 A 
ATOM     26  C   UNL     1      -4.230  15.515  23.396  0.00  0.00    +0.000 A 
ATOM     27  C   UNL     1      -5.392  14.748  23.267  0.00  0.00    +0.000 A 
ATOM     28  C   UNL     1      -6.629  15.289  23.584  0.00  0.00    +0.000 A 
ATOM     29  C   UNL     1      -7.741  14.917  22.854  0.00  0.00    +0.000 A 
ATOM     30  C   UNL     1      -7.705  13.699  22.194  0.00  0.00    +0.000 A 
ATOM     31  C   UNL     1      -6.556  12.900  22.265  0.00  0.00    +0.000 A 
ATOM     32  C   UNL     1      -5.346  13.456  22.723  0.00  0.00    +0.000 A 
ATOM     33  C   UNL     1      -4.093  12.828  22.613  0.00  0.00    +0.000 A 
ENDBRANCH  21  24
ENDBRANCH   6  21
TORSDOF 5
ENDMDL
MODEL 5
REMARK VINA RESULT:      -7.7      1.927      3.141
REMARK  Name = 
REMARK  5 active torsions:
REMARK  status: ('A' for Active; 'I' for Inactive)
REMARK    1  A    between atoms: C_2  and  C_3
REMARK    2  A    between atoms: N_6  and  C_7
REMARK    3  A    between atoms: C_7  and  C_8
REMARK    4  A    between atoms: N_18  and  S_19
REMARK    5  A    between atoms: S_19  and  C_22
REMARK                            x       y       z     vdW  Elec       q    Type
REMARK                         _______ _______ _______ _____ _____    ______ ____
ROOT
ATOM      1  O   UNL     1      -0.980   9.934  17.432  0.00  0.00    +0.000 OA
ATOM      2  C   UNL     1      -0.215  10.027  18.379  0.00  0.00    +0.000 C 
ATOM      3  N   UNL     1      -0.453  10.935  19.421  0.00  0.00    +0.000 N 
ATOM      4  C   UNL     1      -1.740  11.633  19.461  0.00  0.00    +0.000 C 
ATOM      5  C   UNL     1      -1.624  13.069  19.990  0.00  0.00    +0.000 C 
ATOM      6  N   UNL     1      -0.853  13.135  21.271  0.00  0.00    +0.000 NA
ATOM      7  C   UNL     1       0.497  12.540  21.075  0.00  0.00    +0.000 C 
ATOM      8  C   UNL     1       0.396  11.084  20.599  0.00  0.00    +0.000 C 
ENDROOT
BRANCH   2   9
ATOM      9  C   UNL     1       0.997   9.250  18.417  0.00  0.00    +0.000 A 
ATOM     10  C   UNL     1       2.149   9.267  17.602  0.00  0.00    +0.000 A 
ATOM     11  N   UNL     1       3.011   8.297  17.907  0.00  0.00    +0.000 NA
ATOM     12  N   UNL     1       2.488   7.743  19.012  0.00  0.00    +0.000 N 
ATOM     13  C   UNL     1       1.304   8.312  19.385  0.00  0.00    +0.000 A 
BRANCH  12  14
ATOM     14  C   UNL     1       3.109   6.568  19.612  0.00  0.00    +0.000 C 
BRANCH  14  15
ATOM     15  C   UNL     1       2.265   5.340  19.415  0.00  0.00    +0.000 A 
ATOM     16  C   UNL     1       1.654   4.710  20.508  0.00  0.00    +0.000 A 
ATOM     17  C   UNL     1       0.900   3.555  20.322  0.00  0.00    +0.000 A 
ATOM     18  C   UNL     1       0.751   3.016  19.046  0.00  0.00    +0.000 A 
ATOM     19  C   UNL     1       1.354   3.634  17.954  0.00  0.00    +0.000 A 
ATOM     20  C   UNL     1       2.115   4.786  18.137  0.00  0.00    +0.000 A 
ENDBRANCH  14  15
ENDBRANCH  12  14
ENDBRANCH   2   9
BRANCH   6  21
ATOM     21  S   UNL     1      -1.644  12.619  22.690  0.00  0.00    +0.000 S 
ATOM     22  O   UNL     1      -2.999  12.241  22.361  0.00  0.00    +0.000 OA
ATOM     23  O   UNL     1      -0.763  11.693  23.370  0.00  0.00    +0.000 OA
BRANCH  21  24
ATOM     24  C   UNL     1      -1.702  14.089  23.673  0.00  0.00    +0.000 A 
ATOM     25  C   UNL     1      -2.791  14.233  24.534  0.00  0.00    +0.000 A 
ATOM     26  C   UNL     1      -3.027  15.468  25.116  0.00  0.00    +0.000 A 
ATOM     27  C   UNL     1      -2.089  16.494  24.965  0.00  0.00    +0.000 A 
ATOM     28  C   UNL     1      -2.306  17.735  25.546  0.00  0.00    +0.000 A 
ATOM     29  C   UNL     1      -1.232  18.455  26.033  0.00  0.00    +0.000 A 
ATOM     30  C   UNL     1       0.021  18.184  25.506  0.00  0.00    +0.000 A 
ATOM     31  C   UNL     1       0.168  17.193  24.527  0.00  0.00    +0.000 A 
ATOM     32  C   UNL     1      -0.870  16.266  24.311  0.00  0.00    +0.000 A 
ATOM     33  C   UNL     1      -0.742  15.100  23.536  0.00  0.00    +0.000 A 
ENDBRANCH  21  24
ENDBRANCH   6  21
TORSDOF 5
ENDMDL
MODEL 6
REMARK VINA RESULT:      -7.7      5.196      7.158
REMARK  Name = 
REMARK  5 active torsions:
REMARK  status: ('A' for Active; 'I' for Inactive)
REMARK    1  A    between atoms: C_2  and  C_3
REMARK    2  A    between atoms: N_6  and  C_7
REMARK    3  A    between atoms: C_7  and  C_8
REMARK    4  A    between atoms: N_18  and  S_19
REMARK    5  A    between atoms: S_19  and  C_22
REMARK                            x       y       z     vdW  Elec       q    Type
REMARK                         _______ _______ _______ _____ _____    ______ ____
ROOT
ATOM      1  O   UNL     1       3.347  15.514  16.927  0.00  0.00    +0.000 OA
ATOM      2  C   UNL     1       3.665  15.068  18.018  0.00  0.00    +0.000 C 
ATOM      3  N   UNL     1       2.721  14.465  18.860  0.00  0.00    +0.000 N 
ATOM      4  C   UNL     1       1.381  14.196  18.331  0.00  0.00    +0.000 C 
ATOM      5  C   UNL     1       0.278  14.365  19.385  0.00  0.00    +0.000 C 
ATOM      6  N   UNL     1       0.593  13.634  20.652  0.00  0.00    +0.000 NA
ATOM      7  C   UNL     1       1.903  14.097  21.187  0.00  0.00    +0.000 C 
ATOM      8  C   UNL     1       3.026  13.882  20.164  0.00  0.00    +0.000 C 
ENDROOT
BRANCH   2   9
ATOM      9  C   UNL     1       5.015  15.212  18.501  0.00  0.00    +0.000 A 
ATOM     10  C   UNL     1       5.563  16.006  19.530  0.00  0.00    +0.000 A 
ATOM     11  N   UNL     1       6.893  15.932  19.585  0.00  0.00    +0.000 NA
ATOM     12  N   UNL     1       7.195  14.978  18.689  0.00  0.00    +0.000 N 
ATOM     13  C   UNL     1       6.097  14.482  18.047  0.00  0.00    +0.000 A 
BRANCH  12  14
ATOM     14  C   UNL     1       8.588  14.662  18.392  0.00  0.00    +0.000 C 
BRANCH  14  15
ATOM     15  C   UNL     1       8.933  13.260  18.808  0.00  0.00    +0.000 A 
ATOM     16  C   UNL     1       9.164  12.952  20.156  0.00  0.00    +0.000 A 
ATOM     17  C   UNL     1       9.515  11.657  20.531  0.00  0.00    +0.000 A 
ATOM     18  C   UNL     1       9.641  10.661  19.565  0.00  0.00    +0.000 A 
ATOM     19  C   UNL     1       9.414  10.958  18.224  0.00  0.00    +0.000 A 
ATOM     20  C   UNL     1       9.070  12.253  17.845  0.00  0.00    +0.000 A 
ENDBRANCH  14  15
ENDBRANCH  12  14
ENDBRANCH   2   9
BRANCH   6  21
ATOM     21  S   UNL     1       0.402  11.939  20.646  0.00  0.00    +0.000 S 
ATOM     22  O   UNL     1       1.458  11.349  19.857  0.00  0.00    +0.000 OA
ATOM     23  O   UNL     1       0.180  11.520  22.015  0.00  0.00    +0.000 OA
BRANCH  21  24
ATOM     24  C   UNL     1      -1.127  11.712  19.786  0.00  0.00    +0.000 A 
ATOM     25  C   UNL     1      -1.097  10.916  18.640  0.00  0.00    +0.000 A 
ATOM     26  C   UNL     1      -2.188  10.926  17.787  0.00  0.00    +0.000 A 
ATOM     27  C   UNL     1      -3.355  11.597  18.165  0.00  0.00    +0.000 A 
ATOM     28  C   UNL     1      -4.460  11.613  17.326  0.00  0.00    +0.000 A 
ATOM     29  C   UNL     1      -5.728  11.590  17.872  0.00  0.00    +0.000 A 
ATOM     30  C   UNL     1      -5.882  12.046  19.172  0.00  0.00    +0.000 A 
ATOM     31  C   UNL     1      -4.766  12.490  19.893  0.00  0.00    +0.000 A 
ATOM     32  C   UNL     1      -3.471  12.183  19.434  0.00  0.00    +0.000 A 
ATOM     33  C   UNL     1      -2.299  12.366  20.188  0.00  0.00    +0.000 A 
ENDBRANCH  21  24
ENDBRANCH   6  21
TORSDOF 5
ENDMDL
MODEL 7
REMARK VINA RESULT:      -7.7      3.780      6.773
REMARK  Name = 
REMARK  5 active torsions:
REMARK  status: ('A' for Active; 'I' for Inactive)
REMARK    1  A    between atoms: C_2  and  C_3
REMARK    2  A    between atoms: N_6  and  C_7
REMARK    3  A    between atoms: C_7  and  C_8
REMARK    4  A    between atoms: N_18  and  S_19
REMARK    5  A    between atoms: S_19  and  C_22
REMARK                            x       y       z     vdW  Elec       q    Type
REMARK                         _______ _______ _______ _____ _____    ______ ____
ROOT
ATOM      1  O   UNL     1      -1.020   9.872  19.376  0.00  0.00    +0.000 OA
ATOM      2  C   UNL     1       0.137  10.224  19.210  0.00  0.00    +0.000 C 
ATOM      3  N   UNL     1       0.508  11.572  19.305  0.00  0.00    +0.000 N 
ATOM      4  C   UNL     1      -0.476  12.535  19.805  0.00  0.00    +0.000 C 
ATOM      5  C   UNL     1      -0.365  13.908  19.127  0.00  0.00    +0.000 C 
ATOM      6  N   UNL     1       1.041  14.419  19.119  0.00  0.00    +0.000 NA
ATOM      7  C   UNL     1       1.930  13.432  18.448  0.00  0.00    +0.000 C 
ATOM      8  C   UNL     1       1.872  12.069  19.150  0.00  0.00    +0.000 C 
ENDROOT
BRANCH   2   9
ATOM      9  C   UNL     1       1.146   9.264  18.841  0.00  0.00    +0.000 A 
ATOM     10  C   UNL     1       1.790   9.005  17.614  0.00  0.00    +0.000 A 
ATOM     11  N   UNL     1       2.594   7.943  17.666  0.00  0.00    +0.000 NA
ATOM     12  N   UNL     1       2.584   7.602  18.965  0.00  0.00    +0.000 N 
ATOM     13  C   UNL     1       1.768   8.396  19.719  0.00  0.00    +0.000 A 
BRANCH  12  14
ATOM     14  C   UNL     1       3.291   6.409  19.419  0.00  0.00    +0.000 C 
BRANCH  14  15
ATOM     15  C   UNL     1       2.401   5.199  19.387  0.00  0.00    +0.000 A 
ATOM     16  C   UNL     1       2.134   4.541  18.178  0.00  0.00    +0.000 A 
ATOM     17  C   UNL     1       1.283   3.438  18.150  0.00  0.00    +0.000 A 
ATOM     18  C   UNL     1       0.689   2.986  19.326  0.00  0.00    +0.000 A 
ATOM     19  C   UNL     1       0.948   3.633  20.531  0.00  0.00    +0.000 A 
ATOM     20  C   UNL     1       1.793   4.740  20.561  0.00  0.00    +0.000 A 
ENDBRANCH  14  15
ENDBRANCH  12  14
ENDBRANCH   2   9
BRANCH   6  21
ATOM     21  S   UNL     1       1.660  15.034  20.583  0.00  0.00    +0.000 S 
ATOM     22  O   UNL     1       0.939  16.236  20.931  0.00  0.00    +0.000 OA
ATOM     23  O   UNL     1       1.751  13.931  21.517  0.00  0.00    +0.000 OA
BRANCH  21  24
ATOM     24  C   UNL     1       3.317  15.485  20.159  0.00  0.00    +0.000 A 
ATOM     25  C   UNL     1       3.476  16.520  19.237  0.00  0.00    +0.000 A 
ATOM     26  C   UNL     1       4.724  16.728  18.670  0.00  0.00    +0.000 A 
ATOM     27  C   UNL     1       5.828  16.015  19.147  0.00  0.00    +0.000 A 
ATOM     28  C   UNL     1       7.084  16.215  18.596  0.00  0.00    +0.000 A 
ATOM     29  C   UNL     1       8.201  16.141  19.405  0.00  0.00    +0.000 A 
ATOM     30  C   UNL     1       8.105  15.404  20.575  0.00  0.00    +0.000 A 
ATOM     31  C   UNL     1       6.895  14.783  20.912  0.00  0.00    +0.000 A 
ATOM     32  C   UNL     1       5.710  15.158  20.252  0.00  0.00    +0.000 A 
ATOM     33  C   UNL     1       4.420  14.783  20.664  0.00  0.00    +0.000 A 
ENDBRANCH  21  24
ENDBRANCH   6  21
TORSDOF 5
ENDMDL
MODEL 8
REMARK VINA RESULT:      -7.6      5.040      8.508
REMARK  Name = 
REMARK  5 active torsions:
REMARK  status: ('A' for Active; 'I' for Inactive)
REMARK    1  A    between atoms: C_2  and  C_3
REMARK    2  A    between atoms: N_6  and  C_7
REMARK    3  A    between atoms: C_7  and  C_8
REMARK    4  A    between atoms: N_18  and  S_19
REMARK    5  A    between atoms: S_19  and  C_22
REMARK                            x       y       z     vdW  Elec       q    Type
REMARK                         _______ _______ _______ _____ _____    ______ ____
ROOT
ATOM      1  O   UNL     1       3.451  17.059  18.734  0.00  0.00    +0.000 OA
ATOM      2  C   UNL     1       3.597  15.868  18.957  0.00  0.00    +0.000 C 
ATOM      3  N   UNL     1       2.512  15.056  19.314  0.00  0.00    +0.000 N 
ATOM      4  C   UNL     1       1.160  15.614  19.223  0.00  0.00    +0.000 C 
ATOM      5  C   UNL     1       0.225  15.098  20.326  0.00  0.00    +0.000 C 
ATOM      6  N   UNL     1       0.264  13.607  20.443  0.00  0.00    +0.000 NA
ATOM      7  C   UNL     1       1.662  13.159  20.691  0.00  0.00    +0.000 C 
ATOM      8  C   UNL     1       2.598  13.620  19.566  0.00  0.00    +0.000 C 
ENDROOT
BRANCH   2   9
ATOM      9  C   UNL     1       4.909  15.274  18.925  0.00  0.00    +0.000 A 
ATOM     10  C   UNL     1       5.879  15.086  19.932  0.00  0.00    +0.000 A 
ATOM     11  N   UNL     1       7.023  14.590  19.461  0.00  0.00    +0.000 NA
ATOM     12  N   UNL     1       6.746  14.320  18.175  0.00  0.00    +0.000 N 
ATOM     13  C   UNL     1       5.475  14.668  17.819  0.00  0.00    +0.000 A 
BRANCH  12  14
ATOM     14  C   UNL     1       7.792  13.834  17.283  0.00  0.00    +0.000 C 
BRANCH  14  15
ATOM     15  C   UNL     1       8.818  13.027  18.028  0.00  0.00    +0.000 A 
ATOM     16  C   UNL     1       8.721  11.630  18.088  0.00  0.00    +0.000 A 
ATOM     17  C   UNL     1       9.657  10.890  18.807  0.00  0.00    +0.000 A 
ATOM     18  C   UNL     1      10.695  11.538  19.474  0.00  0.00    +0.000 A 
ATOM     19  C   UNL     1      10.799  12.925  19.419  0.00  0.00    +0.000 A 
ATOM     20  C   UNL     1       9.861  13.668  18.707  0.00  0.00    +0.000 A 
ENDBRANCH  14  15
ENDBRANCH  12  14
ENDBRANCH   2   9
BRANCH   6  21
ATOM     21  S   UNL     1      -0.558  12.706  19.252  0.00  0.00    +0.000 S 
ATOM     22  O   UNL     1      -1.966  12.678  19.571  0.00  0.00    +0.000 OA
ATOM     23  O   UNL     1      -0.102  13.172  17.959  0.00  0.00    +0.000 OA
BRANCH  21  24
ATOM     24  C   UNL     1       0.091  11.074  19.466  0.00  0.00    +0.000 A 
ATOM     25  C   UNL     1      -0.365  10.350  20.569  0.00  0.00    +0.000 A 
ATOM     26  C   UNL     1       0.302   9.192  20.934  0.00  0.00    +0.000 A 
ATOM     27  C   UNL     1       1.308   8.683  20.107  0.00  0.00    +0.000 A 
ATOM     28  C   UNL     1       1.982   7.522  20.453  0.00  0.00    +0.000 A 
ATOM     29  C   UNL     1       2.387   6.649  19.463  0.00  0.00    +0.000 A 
ATOM     30  C   UNL     1       2.565   7.157  18.186  0.00  0.00    +0.000 A 
ATOM     31  C   UNL     1       2.315   8.512  17.932  0.00  0.00    +0.000 A 
ATOM     32  C   UNL     1       1.590   9.275  18.867  0.00  0.00    +0.000 A 
ATOM     33  C   UNL     1       1.079  10.561  18.615  0.00  0.00    +0.000 A 
ENDBRANCH  21  24
ENDBRANCH   6  21
TORSDOF 5
ENDMDL
MODEL 9
REMARK VINA RESULT:      -7.6      4.291     11.427
REMARK  Name = 
REMARK  5 active torsions:
REMARK  status: ('A' for Active; 'I' for Inactive)
REMARK    1  A    between atoms: C_2  and  C_3
REMARK    2  A    between atoms: N_6  and  C_7
REMARK    3  A    between atoms: C_7  and  C_8
REMARK    4  A    between atoms: N_18  and  S_19
REMARK    5  A    between atoms: S_19  and  C_22
REMARK                            x       y       z     vdW  Elec       q    Type
REMARK                         _______ _______ _______ _____ _____    ______ ____
ROOT
ATOM      1  O   UNL     1       2.060   8.738  18.631  0.00  0.00    +0.000 OA
ATOM      2  C   UNL     1       1.812   8.045  19.605  0.00  0.00    +0.000 C 
ATOM      3  N   UNL     1       1.862   6.646  19.534  0.00  0.00    +0.000 N 
ATOM      4  C   UNL     1       2.409   6.025  18.325  0.00  0.00    +0.000 C 
ATOM      5  C   UNL     1       1.703   4.713  17.956  0.00  0.00    +0.000 C 
ATOM      6  N   UNL     1       1.595   3.785  19.124  0.00  0.00    +0.000 NA
ATOM      7  C   UNL     1       0.884   4.465  20.241  0.00  0.00    +0.000 C 
ATOM      8  C   UNL     1       1.610   5.750  20.659  0.00  0.00    +0.000 C 
ENDROOT
BRANCH   2   9
ATOM      9  C   UNL     1       1.395   8.650  20.844  0.00  0.00    +0.000 A 
ATOM     10  C   UNL     1       2.099   8.936  22.032  0.00  0.00    +0.000 A 
ATOM     11  N   UNL     1       1.311   9.403  23.000  0.00  0.00    +0.000 NA
ATOM     12  N   UNL     1       0.123   9.558  22.394  0.00  0.00    +0.000 N 
ATOM     13  C   UNL     1       0.135   9.164  21.087  0.00  0.00    +0.000 A 
BRANCH  12  14
ATOM     14  C   UNL     1      -1.046   9.977  23.160  0.00  0.00    +0.000 C 
BRANCH  14  15
ATOM     15  C   UNL     1      -1.377  11.421  22.910  0.00  0.00    +0.000 A 
ATOM     16  C   UNL     1      -2.606  11.954  23.322  0.00  0.00    +0.000 A 
ATOM     17  C   UNL     1      -2.920  13.285  23.058  0.00  0.00    +0.000 A 
ATOM     18  C   UNL     1      -2.011  14.094  22.380  0.00  0.00    +0.000 A 
ATOM     19  C   UNL     1      -0.788  13.574  21.967  0.00  0.00    +0.000 A 
ATOM     20  C   UNL     1      -0.474  12.242  22.222  0.00  0.00    +0.000 A 
ENDBRANCH  14  15
ENDBRANCH  12  14
ENDBRANCH   2   9
BRANCH   6  21
ATOM     21  S   UNL     1       3.006   2.954  19.599  0.00  0.00    +0.000 S 
ATOM     22  O   UNL     1       3.337   3.325  20.955  0.00  0.00    +0.000 OA
ATOM     23  O   UNL     1       2.838   1.563  19.233  0.00  0.00    +0.000 OA
BRANCH  21  24
ATOM     24  C   UNL     1       4.244   3.621  18.525  0.00  0.00    +0.000 A 
ATOM     25  C   UNL     1       5.239   4.402  19.113  0.00  0.00    +0.000 A 
ATOM     26  C   UNL     1       6.063   5.163  18.300  0.00  0.00    +0.000 A 
ATOM     27  C   UNL     1       5.995   5.013  16.912  0.00  0.00    +0.000 A 
ATOM     28  C   UNL     1       6.816   5.761  16.082  0.00  0.00    +0.000 A 
ATOM     29  C   UNL     1       7.297   5.201  14.915  0.00  0.00    +0.000 A 
ATOM     30  C   UNL     1       6.584   4.150  14.360  0.00  0.00    +0.000 A 
ATOM     31  C   UNL     1       5.428   3.677  14.996  0.00  0.00    +0.000 A 
ATOM     32  C   UNL     1       5.169   4.038  16.332  0.00  0.00    +0.000 A 
ATOM     33  C   UNL     1       4.183   3.442  17.137  0.00  0.00    +0.000 A 
ENDBRANCH  21  24
ENDBRANCH   6  21
TORSDOF 5
ENDMDL
