MODEL 1
REMARK VINA RESULT:      -8.6      0.000      0.000
REMARK  Name = 
REMARK  7 active torsions:
REMARK  status: ('A' for Active; 'I' for Inactive)
REMARK    1  A    between atoms: C_1  and  C_2
REMARK    2  A    between atoms: C_6  and  N_7
REMARK    3  A    between atoms: C_8  and  C_10
REMARK    4  A    between atoms: C_14  and  S_15
REMARK    5  A    between atoms: S_15  and  N_18
REMARK    6  A    between atoms: N_18  and  C_19
REMARK    7  A    between atoms: N_18  and  C_20
REMARK                            x       y       z     vdW  Elec       q    Type
REMARK                         _______ _______ _______ _____ _____    ______ ____
ROOT
ATOM      1  C   UNL     1       7.926   7.833  18.266  0.00  0.00    +0.000 A 
ATOM      2  C   UNL     1       8.491   6.910  19.162  0.00  0.00    +0.000 A 
ATOM      3  C   UNL     1       8.115   5.564  19.103  0.00  0.00    +0.000 A 
ATOM      4  C   UNL     1       7.118   5.152  18.209  0.00  0.00    +0.000 A 
ATOM      5  C   UNL     1       6.416   6.112  17.466  0.00  0.00    +0.000 A 
ATOM      6  C   UNL     1       6.876   7.434  17.437  0.00  0.00    +0.000 A 
ENDROOT
BRANCH   1   8
ATOM      7  N   UNL     1       9.322   9.575  19.254  0.00  0.00    +0.000 N 
ATOM      8  C   UNL     1       8.397   9.241  18.275  0.00  0.00    +0.000 C 
ATOM      9  O   UNL     1       7.921   9.979  17.408  0.00  0.00    +0.000 OA
ATOM     10  H   UNL     1       9.577   8.893  19.948  0.00  0.00    +0.000 HD
BRANCH   7  16
ATOM     11  C   UNL     1      11.802  13.178  17.270  0.00  0.00    +0.000 C 
ATOM     12  C   UNL     1      11.109  12.621  18.475  0.00  0.00    +0.000 A 
ATOM     13  C   UNL     1      11.068  13.332  19.666  0.00  0.00    +0.000 A 
ATOM     14  C   UNL     1      10.417  12.755  20.749  0.00  0.00    +0.000 A 
ATOM     15  C   UNL     1       9.831  11.500  20.615  0.00  0.00    +0.000 A 
ATOM     16  C   UNL     1       9.909  10.847  19.381  0.00  0.00    +0.000 A 
ATOM     17  N   UNL     1      10.542  11.403  18.336  0.00  0.00    +0.000 NA
ENDBRANCH   7  16
ENDBRANCH   1   8
BRANCH   5  18
ATOM     18  S   UNL     1       5.019   5.670  16.432  0.00  0.00    +0.000 S 
ATOM     19  O   UNL     1       4.953   6.696  15.409  0.00  0.00    +0.000 OA
ATOM     20  O   UNL     1       5.201   4.283  16.063  0.00  0.00    +0.000 OA
BRANCH  18  21
ATOM     21  N   UNL     1       3.632   5.814  17.397  0.00  0.00    +0.000 N 
ATOM     22  C   UNL     1       3.075   7.125  17.750  0.00  0.00    +0.000 C 
BRANCH  21  23
ATOM     23  C   UNL     1       3.082   4.668  18.060  0.00  0.00    +0.000 A 
ATOM     24  C   UNL     1       3.693   4.139  19.200  0.00  0.00    +0.000 A 
ATOM     25  C   UNL     1       3.062   3.118  19.919  0.00  0.00    +0.000 A 
ATOM     26  C   UNL     1       1.813   2.639  19.519  0.00  0.00    +0.000 A 
ATOM     27  C   UNL     1       1.198   3.174  18.388  0.00  0.00    +0.000 A 
ATOM     28  C   UNL     1       1.838   4.181  17.655  0.00  0.00    +0.000 A 
ENDBRANCH  21  23
ENDBRANCH  18  21
ENDBRANCH   5  18
TORSDOF 5
ENDMDL
MODEL 2
REMARK VINA RESULT:      -8.3      0.655      1.343
REMARK  Name = 
REMARK  7 active torsions:
REMARK  status: ('A' for Active; 'I' for Inactive)
REMARK    1  A    between atoms: C_1  and  C_2
REMARK    2  A    between atoms: C_6  and  N_7
REMARK    3  A    between atoms: C_8  and  C_10
REMARK    4  A    between atoms: C_14  and  S_15
REMARK    5  A    between atoms: S_15  and  N_18
REMARK    6  A    between atoms: N_18  and  C_19
REMARK    7  A    between atoms: N_18  and  C_20
REMARK                            x       y       z     vdW  Elec       q    Type
REMARK                         _______ _______ _______ _____ _____    ______ ____
ROOT
ATOM      1  C   UNL     1       7.966   7.910  18.289  0.00  0.00    +0.000 A 
ATOM      2  C   UNL     1       8.529   6.957  19.153  0.00  0.00    +0.000 A 
ATOM      3  C   UNL     1       8.145   5.615  19.054  0.00  0.00    +0.000 A 
ATOM      4  C   UNL     1       7.142   5.237  18.151  0.00  0.00    +0.000 A 
ATOM      5  C   UNL     1       6.442   6.224  17.442  0.00  0.00    +0.000 A 
ATOM      6  C   UNL     1       6.910   7.543  17.453  0.00  0.00    +0.000 A 
ENDROOT
BRANCH   1   8
ATOM      7  N   UNL     1       9.314   9.632  19.375  0.00  0.00    +0.000 N 
ATOM      8  C   UNL     1       8.445   9.315  18.340  0.00  0.00    +0.000 C 
ATOM      9  O   UNL     1       8.025  10.065  17.454  0.00  0.00    +0.000 OA
ATOM     10  H   UNL     1       9.523   8.942  20.076  0.00  0.00    +0.000 HD
BRANCH   7  16
ATOM     11  C   UNL     1       9.540  13.758  21.822  0.00  0.00    +0.000 C 
ATOM     12  C   UNL     1      10.053  12.917  20.695  0.00  0.00    +0.000 A 
ATOM     13  C   UNL     1      11.054  13.384  19.854  0.00  0.00    +0.000 A 
ATOM     14  C   UNL     1      11.478  12.558  18.821  0.00  0.00    +0.000 A 
ATOM     15  C   UNL     1      10.900  11.301  18.658  0.00  0.00    +0.000 A 
ATOM     16  C   UNL     1       9.901  10.898  19.549  0.00  0.00    +0.000 A 
ATOM     17  N   UNL     1       9.487  11.699  20.544  0.00  0.00    +0.000 NA
ENDBRANCH   7  16
ENDBRANCH   1   8
BRANCH   5  18
ATOM     18  S   UNL     1       5.038   5.823  16.402  0.00  0.00    +0.000 S 
ATOM     19  O   UNL     1       4.982   6.873  15.403  0.00  0.00    +0.000 OA
ATOM     20  O   UNL     1       5.204   4.442  15.999  0.00  0.00    +0.000 OA
BRANCH  18  21
ATOM     21  N   UNL     1       3.655   5.960  17.373  0.00  0.00    +0.000 N 
ATOM     22  C   UNL     1       3.095   7.268  17.732  0.00  0.00    +0.000 C 
BRANCH  21  23
ATOM     23  C   UNL     1       3.111   4.810  18.036  0.00  0.00    +0.000 A 
ATOM     24  C   UNL     1       3.747   4.260  19.151  0.00  0.00    +0.000 A 
ATOM     25  C   UNL     1       3.126   3.235  19.874  0.00  0.00    +0.000 A 
ATOM     26  C   UNL     1       1.861   2.774  19.500  0.00  0.00    +0.000 A 
ATOM     27  C   UNL     1       1.222   3.330  18.393  0.00  0.00    +0.000 A 
ATOM     28  C   UNL     1       1.852   4.340  17.657  0.00  0.00    +0.000 A 
ENDBRANCH  21  23
ENDBRANCH  18  21
ENDBRANCH   5  18
TORSDOF 5
ENDMDL
MODEL 3
REMARK VINA RESULT:      -8.3      5.031      7.660
REMARK  Name = 
REMARK  7 active torsions:
REMARK  status: ('A' for Active; 'I' for Inactive)
REMARK    1  A    between atoms: C_1  and  C_2
REMARK    2  A    between atoms: C_6  and  N_7
REMARK    3  A    between atoms: C_8  and  C_10
REMARK    4  A    between atoms: C_14  and  S_15
REMARK    5  A    between atoms: S_15  and  N_18
REMARK    6  A    between atoms: N_18  and  C_19
REMARK    7  A    between atoms: N_18  and  C_20
REMARK                            x       y       z     vdW  Elec       q    Type
REMARK                         _______ _______ _______ _____ _____    ______ ____
ROOT
ATOM      1  C   UNL     1       2.526   5.706  19.047  0.00  0.00    +0.000 A 
ATOM      2  C   UNL     1       2.112   4.398  18.747  0.00  0.00    +0.000 A 
ATOM      3  C   UNL     1       2.873   3.610  17.876  0.00  0.00    +0.000 A 
ATOM      4  C   UNL     1       3.999   4.152  17.241  0.00  0.00    +0.000 A 
ATOM      5  C   UNL     1       4.283   5.518  17.387  0.00  0.00    +0.000 A 
ATOM      6  C   UNL     1       3.597   6.267  18.349  0.00  0.00    +0.000 A 
ENDROOT
BRANCH   1   8
ATOM      7  N   UNL     1       1.789   7.881  19.877  0.00  0.00    +0.000 N 
ATOM      8  C   UNL     1       1.763   6.503  20.041  0.00  0.00    +0.000 C 
ATOM      9  O   UNL     1       1.176   5.861  20.917  0.00  0.00    +0.000 OA
ATOM     10  H   UNL     1       2.368   8.283  19.160  0.00  0.00    +0.000 HD
BRANCH   7  16
ATOM     11  C   UNL     1      -1.304  11.534  20.260  0.00  0.00    +0.000 C 
ATOM     12  C   UNL     1      -0.401  10.554  20.942  0.00  0.00    +0.000 A 
ATOM     13  C   UNL     1      -0.257  10.557  22.323  0.00  0.00    +0.000 A 
ATOM     14  C   UNL     1       0.604   9.628  22.892  0.00  0.00    +0.000 A 
ATOM     15  C   UNL     1       1.289   8.730  22.078  0.00  0.00    +0.000 A 
ATOM     16  C   UNL     1       1.088   8.784  20.695  0.00  0.00    +0.000 A 
ATOM     17  N   UNL     1       0.260   9.686  20.145  0.00  0.00    +0.000 NA
ENDBRANCH   7  16
ENDBRANCH   1   8
BRANCH   5  18
ATOM     18  S   UNL     1       5.606   6.309  16.471  0.00  0.00    +0.000 S 
ATOM     19  O   UNL     1       4.994   6.802  15.252  0.00  0.00    +0.000 OA
ATOM     20  O   UNL     1       6.251   7.227  17.385  0.00  0.00    +0.000 OA
BRANCH  18  21
ATOM     21  N   UNL     1       6.700   5.088  16.040  0.00  0.00    +0.000 N 
ATOM     22  C   UNL     1       7.649   4.529  17.010  0.00  0.00    +0.000 C 
BRANCH  21  23
ATOM     23  C   UNL     1       6.867   4.708  14.667  0.00  0.00    +0.000 A 
ATOM     24  C   UNL     1       6.026   3.761  14.079  0.00  0.00    +0.000 A 
ATOM     25  C   UNL     1       6.105   3.513  12.705  0.00  0.00    +0.000 A 
ATOM     26  C   UNL     1       7.007   4.226  11.910  0.00  0.00    +0.000 A 
ATOM     27  C   UNL     1       7.840   5.179  12.494  0.00  0.00    +0.000 A 
ATOM     28  C   UNL     1       7.775   5.411  13.873  0.00  0.00    +0.000 A 
ENDBRANCH  21  23
ENDBRANCH  18  21
ENDBRANCH   5  18
TORSDOF 5
ENDMDL
MODEL 4
REMARK VINA RESULT:      -8.3      4.103      6.945
REMARK  Name = 
REMARK  7 active torsions:
REMARK  status: ('A' for Active; 'I' for Inactive)
REMARK    1  A    between atoms: C_1  and  C_2
REMARK    2  A    between atoms: C_6  and  N_7
REMARK    3  A    between atoms: C_8  and  C_10
REMARK    4  A    between atoms: C_14  and  S_15
REMARK    5  A    between atoms: S_15  and  N_18
REMARK    6  A    between atoms: N_18  and  C_19
REMARK    7  A    between atoms: N_18  and  C_20
REMARK                            x       y       z     vdW  Elec       q    Type
REMARK                         _______ _______ _______ _____ _____    ______ ____
ROOT
ATOM      1  C   UNL     1       2.177   7.410  18.994  0.00  0.00    +0.000 A 
ATOM      2  C   UNL     1       1.821   7.096  20.316  0.00  0.00    +0.000 A 
ATOM      3  C   UNL     1       2.222   5.877  20.874  0.00  0.00    +0.000 A 
ATOM      4  C   UNL     1       2.904   4.937  20.090  0.00  0.00    +0.000 A 
ATOM      5  C   UNL     1       3.071   5.172  18.717  0.00  0.00    +0.000 A 
ATOM      6  C   UNL     1       2.781   6.437  18.194  0.00  0.00    +0.000 A 
ENDROOT
BRANCH   1   8
ATOM      7  N   UNL     1       1.072   9.571  19.258  0.00  0.00    +0.000 N 
ATOM      8  C   UNL     1       1.826   8.742  18.439  0.00  0.00    +0.000 C 
ATOM      9  O   UNL     1       2.242   8.984  17.303  0.00  0.00    +0.000 OA
ATOM     10  H   UNL     1       0.735   9.223  20.140  0.00  0.00    +0.000 HD
BRANCH   7  16
ATOM     11  C   UNL     1       2.305  14.151  18.503  0.00  0.00    +0.000 C 
ATOM     12  C   UNL     1       1.227  13.112  18.539  0.00  0.00    +0.000 A 
ATOM     13  C   UNL     1      -0.092  13.441  18.260  0.00  0.00    +0.000 A 
ATOM     14  C   UNL     1      -1.044  12.432  18.320  0.00  0.00    +0.000 A 
ATOM     15  C   UNL     1      -0.660  11.136  18.652  0.00  0.00    +0.000 A 
ATOM     16  C   UNL     1       0.690  10.879  18.915  0.00  0.00    +0.000 A 
ATOM     17  N   UNL     1       1.609  11.857  18.862  0.00  0.00    +0.000 NA
ENDBRANCH   7  16
ENDBRANCH   1   8
BRANCH   5  18
ATOM     18  S   UNL     1       3.783   3.939  17.628  0.00  0.00    +0.000 S 
ATOM     19  O   UNL     1       4.384   2.949  18.502  0.00  0.00    +0.000 OA
ATOM     20  O   UNL     1       2.740   3.554  16.701  0.00  0.00    +0.000 OA
BRANCH  18  21
ATOM     21  N   UNL     1       5.034   4.703  16.776  0.00  0.00    +0.000 N 
ATOM     22  C   UNL     1       5.301   4.397  15.366  0.00  0.00    +0.000 C 
BRANCH  21  23
ATOM     23  C   UNL     1       5.992   5.520  17.462  0.00  0.00    +0.000 A 
ATOM     24  C   UNL     1       6.732   5.010  18.532  0.00  0.00    +0.000 A 
ATOM     25  C   UNL     1       7.765   5.770  19.090  0.00  0.00    +0.000 A 
ATOM     26  C   UNL     1       8.079   7.028  18.569  0.00  0.00    +0.000 A 
ATOM     27  C   UNL     1       7.348   7.532  17.495  0.00  0.00    +0.000 A 
ATOM     28  C   UNL     1       6.299   6.782  16.950  0.00  0.00    +0.000 A 
ENDBRANCH  21  23
ENDBRANCH  18  21
ENDBRANCH   5  18
TORSDOF 5
ENDMDL
MODEL 5
REMARK VINA RESULT:      -8.1      1.109      1.962
REMARK  Name = 
REMARK  7 active torsions:
REMARK  status: ('A' for Active; 'I' for Inactive)
REMARK    1  A    between atoms: C_1  and  C_2
REMARK    2  A    between atoms: C_6  and  N_7
REMARK    3  A    between atoms: C_8  and  C_10
REMARK    4  A    between atoms: C_14  and  S_15
REMARK    5  A    between atoms: S_15  and  N_18
REMARK    6  A    between atoms: N_18  and  C_19
REMARK    7  A    between atoms: N_18  and  C_20
REMARK                            x       y       z     vdW  Elec       q    Type
REMARK                         _______ _______ _______ _____ _____    ______ ____
ROOT
ATOM      1  C   UNL     1       7.950   7.751  18.248  0.00  0.00    +0.000 A 
ATOM      2  C   UNL     1       8.443   6.887  19.240  0.00  0.00    +0.000 A 
ATOM      3  C   UNL     1       8.136   5.523  19.190  0.00  0.00    +0.000 A 
ATOM      4  C   UNL     1       7.272   5.034  18.201  0.00  0.00    +0.000 A 
ATOM      5  C   UNL     1       6.623   5.934  17.344  0.00  0.00    +0.000 A 
ATOM      6  C   UNL     1       7.025   7.274  17.317  0.00  0.00    +0.000 A 
ENDROOT
BRANCH   1   8
ATOM      7  N   UNL     1       9.340   9.535  19.168  0.00  0.00    +0.000 N 
ATOM      8  C   UNL     1       8.355   9.180  18.258  0.00  0.00    +0.000 C 
ATOM      9  O   UNL     1       7.775   9.914  17.452  0.00  0.00    +0.000 OA
ATOM     10  H   UNL     1       9.682   8.851  19.821  0.00  0.00    +0.000 HD
BRANCH   7  16
ATOM     11  C   UNL     1      11.555  13.266  17.109  0.00  0.00    +0.000 C 
ATOM     12  C   UNL     1      10.949  12.666  18.339  0.00  0.00    +0.000 A 
ATOM     13  C   UNL     1      10.936  13.362  19.541  0.00  0.00    +0.000 A 
ATOM     14  C   UNL     1      10.368  12.745  20.647  0.00  0.00    +0.000 A 
ATOM     15  C   UNL     1       9.831  11.466  20.527  0.00  0.00    +0.000 A 
ATOM     16  C   UNL     1       9.875  10.830  19.282  0.00  0.00    +0.000 A 
ATOM     17  N   UNL     1      10.431  11.425  18.214  0.00  0.00    +0.000 NA
ENDBRANCH   7  16
ENDBRANCH   1   8
BRANCH   5  18
ATOM     18  S   UNL     1       5.381   5.391  16.170  0.00  0.00    +0.000 S 
ATOM     19  O   UNL     1       5.081   6.553  15.356  0.00  0.00    +0.000 OA
ATOM     20  O   UNL     1       5.892   4.183  15.557  0.00  0.00    +0.000 OA
BRANCH  18  21
ATOM     21  N   UNL     1       3.992   5.017  17.068  0.00  0.00    +0.000 N 
ATOM     22  C   UNL     1       3.221   3.794  16.815  0.00  0.00    +0.000 C 
BRANCH  21  23
ATOM     23  C   UNL     1       3.418   5.981  17.961  0.00  0.00    +0.000 A 
ATOM     24  C   UNL     1       3.107   7.269  17.520  0.00  0.00    +0.000 A 
ATOM     25  C   UNL     1       2.412   8.146  18.359  0.00  0.00    +0.000 A 
ATOM     26  C   UNL     1       2.004   7.733  19.630  0.00  0.00    +0.000 A 
ATOM     27  C   UNL     1       2.303   6.443  20.066  0.00  0.00    +0.000 A 
ATOM     28  C   UNL     1       3.019   5.573  19.235  0.00  0.00    +0.000 A 
ENDBRANCH  21  23
ENDBRANCH  18  21
ENDBRANCH   5  18
TORSDOF 5
ENDMDL
MODEL 6
REMARK VINA RESULT:      -7.9      5.104      7.461
REMARK  Name = 
REMARK  7 active torsions:
REMARK  status: ('A' for Active; 'I' for Inactive)
REMARK    1  A    between atoms: C_1  and  C_2
REMARK    2  A    between atoms: C_6  and  N_7
REMARK    3  A    between atoms: C_8  and  C_10
REMARK    4  A    between atoms: C_14  and  S_15
REMARK    5  A    between atoms: S_15  and  N_18
REMARK    6  A    between atoms: N_18  and  C_19
REMARK    7  A    between atoms: N_18  and  C_20
REMARK                            x       y       z     vdW  Elec       q    Type
REMARK                         _______ _______ _______ _____ _____    ______ ____
ROOT
ATOM      1  C   UNL     1       2.507   7.099  18.680  0.00  0.00    +0.000 A 
ATOM      2  C   UNL     1       2.134   5.770  18.944  0.00  0.00    +0.000 A 
ATOM      3  C   UNL     1       2.964   4.720  18.535  0.00  0.00    +0.000 A 
ATOM      4  C   UNL     1       4.121   4.989  17.792  0.00  0.00    +0.000 A 
ATOM      5  C   UNL     1       4.375   6.298  17.356  0.00  0.00    +0.000 A 
ATOM      6  C   UNL     1       3.614   7.355  17.868  0.00  0.00    +0.000 A 
ENDROOT
BRANCH   1   8
ATOM      7  N   UNL     1       1.501   8.267  20.572  0.00  0.00    +0.000 N 
ATOM      8  C   UNL     1       1.667   8.209  19.196  0.00  0.00    +0.000 C 
ATOM      9  O   UNL     1       1.199   8.976  18.349  0.00  0.00    +0.000 OA
ATOM     10  H   UNL     1       1.880   7.535  21.148  0.00  0.00    +0.000 HD
BRANCH   7  16
ATOM     11  C   UNL     1       0.372  12.916  21.000  0.00  0.00    +0.000 C 
ATOM     12  C   UNL     1       0.197  11.513  21.492  0.00  0.00    +0.000 A 
ATOM     13  C   UNL     1      -0.634  11.232  22.568  0.00  0.00    +0.000 A 
ATOM     14  C   UNL     1      -0.746   9.911  22.981  0.00  0.00    +0.000 A 
ATOM     15  C   UNL     1      -0.035   8.916  22.315  0.00  0.00    +0.000 A 
ATOM     16  C   UNL     1       0.778   9.275  21.235  0.00  0.00    +0.000 A 
ATOM     17  N   UNL     1       0.889  10.553  20.841  0.00  0.00    +0.000 NA
ENDBRANCH   7  16
ENDBRANCH   1   8
BRANCH   5  18
ATOM     18  S   UNL     1       5.743   6.680  16.263  0.00  0.00    +0.000 S 
ATOM     19  O   UNL     1       5.142   7.243  15.069  0.00  0.00    +0.000 OA
ATOM     20  O   UNL     1       6.687   7.457  17.038  0.00  0.00    +0.000 OA
BRANCH  18  21
ATOM     21  N   UNL     1       6.454   5.202  15.835  0.00  0.00    +0.000 N 
ATOM     22  C   UNL     1       7.248   4.425  16.794  0.00  0.00    +0.000 C 
BRANCH  21  23
ATOM     23  C   UNL     1       6.469   4.767  14.468  0.00  0.00    +0.000 A 
ATOM     24  C   UNL     1       7.532   5.098  13.623  0.00  0.00    +0.000 A 
ATOM     25  C   UNL     1       7.604   4.542  12.342  0.00  0.00    +0.000 A 
ATOM     26  C   UNL     1       6.631   3.638  11.908  0.00  0.00    +0.000 A 
ATOM     27  C   UNL     1       5.576   3.299  12.755  0.00  0.00    +0.000 A 
ATOM     28  C   UNL     1       5.492   3.872  14.029  0.00  0.00    +0.000 A 
ENDBRANCH  21  23
ENDBRANCH  18  21
ENDBRANCH   5  18
TORSDOF 5
ENDMDL
MODEL 7
REMARK VINA RESULT:      -7.9      1.269      2.379
REMARK  Name = 
REMARK  7 active torsions:
REMARK  status: ('A' for Active; 'I' for Inactive)
REMARK    1  A    between atoms: C_1  and  C_2
REMARK    2  A    between atoms: C_6  and  N_7
REMARK    3  A    between atoms: C_8  and  C_10
REMARK    4  A    between atoms: C_14  and  S_15
REMARK    5  A    between atoms: S_15  and  N_18
REMARK    6  A    between atoms: N_18  and  C_19
REMARK    7  A    between atoms: N_18  and  C_20
REMARK                            x       y       z     vdW  Elec       q    Type
REMARK                         _______ _______ _______ _____ _____    ______ ____
ROOT
ATOM      1  C   UNL     1       7.948   7.700  18.253  0.00  0.00    +0.000 A 
ATOM      2  C   UNL     1       8.446   6.831  19.238  0.00  0.00    +0.000 A 
ATOM      3  C   UNL     1       8.148   5.466  19.177  0.00  0.00    +0.000 A 
ATOM      4  C   UNL     1       7.287   4.979  18.184  0.00  0.00    +0.000 A 
ATOM      5  C   UNL     1       6.632   5.882  17.334  0.00  0.00    +0.000 A 
ATOM      6  C   UNL     1       7.026   7.225  17.319  0.00  0.00    +0.000 A 
ENDROOT
BRANCH   1   8
ATOM      7  N   UNL     1       9.236   9.509  19.267  0.00  0.00    +0.000 N 
ATOM      8  C   UNL     1       8.343   9.131  18.275  0.00  0.00    +0.000 C 
ATOM      9  O   UNL     1       7.840   9.847  17.404  0.00  0.00    +0.000 OA
ATOM     10  H   UNL     1       9.517   8.839  19.962  0.00  0.00    +0.000 HD
BRANCH   7  16
ATOM     11  C   UNL     1       9.536  13.560  21.829  0.00  0.00    +0.000 C 
ATOM     12  C   UNL     1       9.932  12.797  20.604  0.00  0.00    +0.000 A 
ATOM     13  C   UNL     1      10.761  13.364  19.646  0.00  0.00    +0.000 A 
ATOM     14  C   UNL     1      11.083  12.606  18.528  0.00  0.00    +0.000 A 
ATOM     15  C   UNL     1      10.577  11.316  18.398  0.00  0.00    +0.000 A 
ATOM     16  C   UNL     1       9.752  10.809  19.408  0.00  0.00    +0.000 A 
ATOM     17  N   UNL     1       9.437  11.546  20.486  0.00  0.00    +0.000 NA
ENDBRANCH   7  16
ENDBRANCH   1   8
BRANCH   5  18
ATOM     18  S   UNL     1       5.393   5.341  16.156  0.00  0.00    +0.000 S 
ATOM     19  O   UNL     1       5.111   6.498  15.329  0.00  0.00    +0.000 OA
ATOM     20  O   UNL     1       5.897   4.123  15.557  0.00  0.00    +0.000 OA
BRANCH  18  21
ATOM     21  N   UNL     1       3.994   4.989  17.046  0.00  0.00    +0.000 N 
ATOM     22  C   UNL     1       3.205   3.778  16.791  0.00  0.00    +0.000 C 
BRANCH  21  23
ATOM     23  C   UNL     1       3.430   5.962  17.936  0.00  0.00    +0.000 A 
ATOM     24  C   UNL     1       3.136   7.253  17.491  0.00  0.00    +0.000 A 
ATOM     25  C   UNL     1       2.449   8.140  18.327  0.00  0.00    +0.000 A 
ATOM     26  C   UNL     1       2.035   7.735  19.598  0.00  0.00    +0.000 A 
ATOM     27  C   UNL     1       2.319   6.444  20.039  0.00  0.00    +0.000 A 
ATOM     28  C   UNL     1       3.025   5.562  19.211  0.00  0.00    +0.000 A 
ENDBRANCH  21  23
ENDBRANCH  18  21
ENDBRANCH   5  18
TORSDOF 5
ENDMDL
MODEL 8
REMARK VINA RESULT:      -7.9      5.025      7.636
REMARK  Name = 
REMARK  7 active torsions:
REMARK  status: ('A' for Active; 'I' for Inactive)
REMARK    1  A    between atoms: C_1  and  C_2
REMARK    2  A    between atoms: C_6  and  N_7
REMARK    3  A    between atoms: C_8  and  C_10
REMARK    4  A    between atoms: C_14  and  S_15
REMARK    5  A    between atoms: S_15  and  N_18
REMARK    6  A    between atoms: N_18  and  C_19
REMARK    7  A    between atoms: N_18  and  C_20
REMARK                            x       y       z     vdW  Elec       q    Type
REMARK                         _______ _______ _______ _____ _____    ______ ____
ROOT
ATOM      1  C   UNL     1       2.612   7.119  18.814  0.00  0.00    +0.000 A 
ATOM      2  C   UNL     1       2.313   5.802  19.201  0.00  0.00    +0.000 A 
ATOM      3  C   UNL     1       3.174   4.759  18.842  0.00  0.00    +0.000 A 
ATOM      4  C   UNL     1       4.287   5.016  18.030  0.00  0.00    +0.000 A 
ATOM      5  C   UNL     1       4.461   6.293  17.479  0.00  0.00    +0.000 A 
ATOM      6  C   UNL     1       3.673   7.356  17.936  0.00  0.00    +0.000 A 
ENDROOT
BRANCH   1   8
ATOM      7  N   UNL     1       1.329   8.182  20.598  0.00  0.00    +0.000 N 
ATOM      8  C   UNL     1       1.742   8.231  19.274  0.00  0.00    +0.000 C 
ATOM      9  O   UNL     1       1.473   9.094  18.434  0.00  0.00    +0.000 OA
ATOM     10  H   UNL     1       1.563   7.382  21.161  0.00  0.00    +0.000 HD
BRANCH   7  16
ATOM     11  C   UNL     1      -1.124  12.296  20.245  0.00  0.00    +0.000 C 
ATOM     12  C   UNL     1      -0.657  11.162  21.104  0.00  0.00    +0.000 A 
ATOM     13  C   UNL     1      -0.978  11.108  22.453  0.00  0.00    +0.000 A 
ATOM     14  C   UNL     1      -0.506  10.035  23.196  0.00  0.00    +0.000 A 
ATOM     15  C   UNL     1       0.265   9.053  22.579  0.00  0.00    +0.000 A 
ATOM     16  C   UNL     1       0.543   9.171  21.214  0.00  0.00    +0.000 A 
ATOM     17  N   UNL     1       0.090  10.213  20.498  0.00  0.00    +0.000 NA
ENDBRANCH   7  16
ENDBRANCH   1   8
BRANCH   5  18
ATOM     18  S   UNL     1       5.766   6.643  16.300  0.00  0.00    +0.000 S 
ATOM     19  O   UNL     1       5.091   7.025  15.075  0.00  0.00    +0.000 OA
ATOM     20  O   UNL     1       6.674   7.565  16.949  0.00  0.00    +0.000 OA
BRANCH  18  21
ATOM     21  N   UNL     1       6.569   5.178  16.011  0.00  0.00    +0.000 N 
ATOM     22  C   UNL     1       7.337   4.503  17.064  0.00  0.00    +0.000 C 
BRANCH  21  23
ATOM     23  C   UNL     1       6.688   4.660  14.679  0.00  0.00    +0.000 A 
ATOM     24  C   UNL     1       5.763   3.737  14.186  0.00  0.00    +0.000 A 
ATOM     25  C   UNL     1       5.805   3.358  12.840  0.00  0.00    +0.000 A 
ATOM     26  C   UNL     1       6.753   3.916  11.978  0.00  0.00    +0.000 A 
ATOM     27  C   UNL     1       7.669   4.846  12.468  0.00  0.00    +0.000 A 
ATOM     28  C   UNL     1       7.641   5.209  13.819  0.00  0.00    +0.000 A 
ENDBRANCH  21  23
ENDBRANCH  18  21
ENDBRANCH   5  18
TORSDOF 5
ENDMDL
MODEL 9
REMARK VINA RESULT:      -7.9      4.194      7.362
REMARK  Name = 
REMARK  7 active torsions:
REMARK  status: ('A' for Active; 'I' for Inactive)
REMARK    1  A    between atoms: C_1  and  C_2
REMARK    2  A    between atoms: C_6  and  N_7
REMARK    3  A    between atoms: C_8  and  C_10
REMARK    4  A    between atoms: C_14  and  S_15
REMARK    5  A    between atoms: S_15  and  N_18
REMARK    6  A    between atoms: N_18  and  C_19
REMARK    7  A    between atoms: N_18  and  C_20
REMARK                            x       y       z     vdW  Elec       q    Type
REMARK                         _______ _______ _______ _____ _____    ______ ____
ROOT
ATOM      1  C   UNL     1       2.217   7.133  18.962  0.00  0.00    +0.000 A 
ATOM      2  C   UNL     1       2.029   6.812  20.317  0.00  0.00    +0.000 A 
ATOM      3  C   UNL     1       2.532   5.609  20.824  0.00  0.00    +0.000 A 
ATOM      4  C   UNL     1       3.148   4.689  19.965  0.00  0.00    +0.000 A 
ATOM      5  C   UNL     1       3.146   4.925  18.583  0.00  0.00    +0.000 A 
ATOM      6  C   UNL     1       2.755   6.178  18.097  0.00  0.00    +0.000 A 
ENDROOT
BRANCH   1   8
ATOM      7  N   UNL     1       0.902   9.165  19.277  0.00  0.00    +0.000 N 
ATOM      8  C   UNL     1       1.760   8.451  18.453  0.00  0.00    +0.000 C 
ATOM      9  O   UNL     1       2.192   8.785  17.346  0.00  0.00    +0.000 OA
ATOM     10  H   UNL     1       0.569   8.746  20.129  0.00  0.00    +0.000 HD
BRANCH   7  16
ATOM     11  C   UNL     1      -2.783  11.949  17.959  0.00  0.00    +0.000 C 
ATOM     12  C   UNL     1      -1.338  11.845  18.338  0.00  0.00    +0.000 A 
ATOM     13  C   UNL     1      -0.525  12.970  18.371  0.00  0.00    +0.000 A 
ATOM     14  C   UNL     1       0.808  12.802  18.721  0.00  0.00    +0.000 A 
ATOM     15  C   UNL     1       1.289  11.532  19.026  0.00  0.00    +0.000 A 
ATOM     16  C   UNL     1       0.409  10.447  18.977  0.00  0.00    +0.000 A 
ATOM     17  N   UNL     1      -0.879  10.609  18.633  0.00  0.00    +0.000 NA
ENDBRANCH   7  16
ENDBRANCH   1   8
BRANCH   5  18
ATOM     18  S   UNL     1       3.766   3.711  17.417  0.00  0.00    +0.000 S 
ATOM     19  O   UNL     1       4.295   2.630  18.226  0.00  0.00    +0.000 OA
ATOM     20  O   UNL     1       2.696   3.459  16.475  0.00  0.00    +0.000 OA
BRANCH  18  21
ATOM     21  N   UNL     1       5.067   4.434  16.605  0.00  0.00    +0.000 N 
ATOM     22  C   UNL     1       5.429   4.046  15.237  0.00  0.00    +0.000 C 
BRANCH  21  23
ATOM     23  C   UNL     1       5.973   5.299  17.303  0.00  0.00    +0.000 A 
ATOM     24  C   UNL     1       6.801   4.803  18.313  0.00  0.00    +0.000 A 
ATOM     25  C   UNL     1       7.783   5.625  18.877  0.00  0.00    +0.000 A 
ATOM     26  C   UNL     1       7.957   6.934  18.420  0.00  0.00    +0.000 A 
ATOM     27  C   UNL     1       7.138   7.425  17.405  0.00  0.00    +0.000 A 
ATOM     28  C   UNL     1       6.141   6.610  16.855  0.00  0.00    +0.000 A 
ENDBRANCH  21  23
ENDBRANCH  18  21
ENDBRANCH   5  18
TORSDOF 5
ENDMDL
