MODEL 1
REMARK VINA RESULT:      -8.7      0.000      0.000
REMARK  Name = 
REMARK  4 active torsions:
REMARK  status: ('A' for Active; 'I' for Inactive)
REMARK    1  A    between atoms: C_1  and  C_2
REMARK    2  A    between atoms: C_2  and  C_3
REMARK    3  A    between atoms: C_5  and  N_6
REMARK    4  A    between atoms: C_7  and  C_9
REMARK                            x       y       z     vdW  Elec       q    Type
REMARK                         _______ _______ _______ _____ _____    ______ ____
ROOT
ATOM      1  N   UNL     1       4.275   3.778  16.370  0.00  0.00    +0.000 N 
ATOM      2  C   UNL     1       3.460   2.912  17.081  0.00  0.00    +0.000 C 
ATOM      3  O   UNL     1       3.676   1.744  17.334  0.00  0.00    +0.000 OA
ATOM      4  H   UNL     1       3.921   4.729  16.394  0.00  0.00    +0.000 HD
ENDROOT
BRANCH   1   9
ATOM      5  C   UNL     1       7.442   6.690  18.043  0.00  0.00    +0.000 C 
ATOM      6  C   UNL     1       6.638   5.951  16.956  0.00  0.00    +0.000 C 
ATOM      7  C   UNL     1       5.348   6.755  16.724  0.00  0.00    +0.000 C 
ATOM      8  C   UNL     1       6.418   4.491  17.396  0.00  0.00    +0.000 C 
ATOM      9  C   UNL     1       5.724   3.641  16.316  0.00  0.00    +0.000 C 
ATOM     10  C   UNL     1       6.236   4.020  14.957  0.00  0.00    +0.000 A 
ATOM     11  C   UNL     1       5.890   3.229  13.850  0.00  0.00    +0.000 A 
ATOM     12  C   UNL     1       6.340   3.548  12.571  0.00  0.00    +0.000 A 
ATOM     13  C   UNL     1       7.175   4.641  12.406  0.00  0.00    +0.000 A 
ATOM     14  F   UNL     1       7.621   4.953  11.189  0.00  0.00    +0.000 F 
ATOM     15  C   UNL     1       7.542   5.438  13.486  0.00  0.00    +0.000 A 
ATOM     16  C   UNL     1       7.055   5.134  14.760  0.00  0.00    +0.000 A 
ATOM     17  O   UNL     1       7.435   5.990  15.762  0.00  0.00    +0.000 OA
ENDBRANCH   1   9
BRANCH   2  18
ATOM     18  C   UNL     1       2.388   3.703  17.843  0.00  0.00    +0.000 A 
ATOM     19  N   UNL     1       2.087   4.825  17.240  0.00  0.00    +0.000 NA
ATOM     20  N   UNL     1       2.069   5.931  18.043  0.00  0.00    +0.000 N 
ATOM     21  C   UNL     1       2.612   5.910  19.320  0.00  0.00    +0.000 A 
ATOM     22  O   UNL     1       3.163   6.870  19.831  0.00  0.00    +0.000 OA
ATOM     23  C   UNL     1       2.421   4.639  20.045  0.00  0.00    +0.000 A 
ATOM     24  C   UNL     1       2.393   4.593  21.432  0.00  0.00    +0.000 A 
ATOM     25  C   UNL     1       2.010   3.408  22.061  0.00  0.00    +0.000 A 
ATOM     26  C   UNL     1       1.662   2.288  21.297  0.00  0.00    +0.000 A 
ATOM     27  C   UNL     1       1.763   2.318  19.898  0.00  0.00    +0.000 A 
ATOM     28  C   UNL     1       2.183   3.500  19.283  0.00  0.00    +0.000 A 
ATOM     29  H   UNL     1       2.221   6.800  17.538  0.00  0.00    +0.000 HD
ENDBRANCH   2  18
TORSDOF 2
ENDMDL
MODEL 2
REMARK VINA RESULT:      -8.1      3.984      6.035
REMARK  Name = 
REMARK  4 active torsions:
REMARK  status: ('A' for Active; 'I' for Inactive)
REMARK    1  A    between atoms: C_1  and  C_2
REMARK    2  A    between atoms: C_2  and  C_3
REMARK    3  A    between atoms: C_5  and  N_6
REMARK    4  A    between atoms: C_7  and  C_9
REMARK                            x       y       z     vdW  Elec       q    Type
REMARK                         _______ _______ _______ _____ _____    ______ ____
ROOT
ATOM      1  N   UNL     1       2.085   7.339  18.655  0.00  0.00    +0.000 N 
ATOM      2  C   UNL     1       1.902   8.603  18.120  0.00  0.00    +0.000 C 
ATOM      3  O   UNL     1       2.486   9.090  17.173  0.00  0.00    +0.000 OA
ATOM      4  H   UNL     1       1.396   7.132  19.371  0.00  0.00    +0.000 HD
ENDROOT
BRANCH   1   9
ATOM      5  C   UNL     1       1.556   2.855  19.615  0.00  0.00    +0.000 C 
ATOM      6  C   UNL     1       2.324   4.178  19.428  0.00  0.00    +0.000 C 
ATOM      7  C   UNL     1       2.222   4.949  20.755  0.00  0.00    +0.000 C 
ATOM      8  C   UNL     1       1.757   4.921  18.204  0.00  0.00    +0.000 C 
ATOM      9  C   UNL     1       2.544   6.202  17.868  0.00  0.00    +0.000 C 
ATOM     10  C   UNL     1       4.012   5.974  18.083  0.00  0.00    +0.000 A 
ATOM     11  C   UNL     1       4.928   6.942  17.641  0.00  0.00    +0.000 A 
ATOM     12  C   UNL     1       6.297   6.772  17.825  0.00  0.00    +0.000 A 
ATOM     13  C   UNL     1       6.756   5.607  18.417  0.00  0.00    +0.000 A 
ATOM     14  F   UNL     1       8.065   5.426  18.591  0.00  0.00    +0.000 F 
ATOM     15  C   UNL     1       5.873   4.625  18.857  0.00  0.00    +0.000 A 
ATOM     16  C   UNL     1       4.497   4.821  18.704  0.00  0.00    +0.000 A 
ATOM     17  O   UNL     1       3.696   3.823  19.197  0.00  0.00    +0.000 OA
ENDBRANCH   1   9
BRANCH   2  18
ATOM     18  C   UNL     1       0.593   9.212  18.642  0.00  0.00    +0.000 A 
ATOM     19  N   UNL     1      -0.029   9.899  17.718  0.00  0.00    +0.000 NA
ATOM     20  N   UNL     1      -0.449  11.143  18.100  0.00  0.00    +0.000 N 
ATOM     21  C   UNL     1       0.006  11.735  19.270  0.00  0.00    +0.000 A 
ATOM     22  O   UNL     1       0.186  12.935  19.389  0.00  0.00    +0.000 OA
ATOM     23  C   UNL     1       0.207  10.797  20.392  0.00  0.00    +0.000 A 
ATOM     24  C   UNL     1       0.126  11.219  21.712  0.00  0.00    +0.000 A 
ATOM     25  C   UNL     1       0.121  10.262  22.728  0.00  0.00    +0.000 A 
ATOM     26  C   UNL     1       0.199   8.901  22.411  0.00  0.00    +0.000 A 
ATOM     27  C   UNL     1       0.355   8.485  21.080  0.00  0.00    +0.000 A 
ATOM     28  C   UNL     1       0.394   9.456  20.076  0.00  0.00    +0.000 A 
ATOM     29  H   UNL     1      -0.565  11.788  17.323  0.00  0.00    +0.000 HD
ENDBRANCH   2  18
TORSDOF 2
ENDMDL
MODEL 3
REMARK VINA RESULT:      -7.9     11.040     13.668
REMARK  Name = 
REMARK  4 active torsions:
REMARK  status: ('A' for Active; 'I' for Inactive)
REMARK    1  A    between atoms: C_1  and  C_2
REMARK    2  A    between atoms: C_2  and  C_3
REMARK    3  A    between atoms: C_5  and  N_6
REMARK    4  A    between atoms: C_7  and  C_9
REMARK                            x       y       z     vdW  Elec       q    Type
REMARK                         _______ _______ _______ _____ _____    ______ ____
ROOT
ATOM      1  N   UNL     1      -4.114  12.629  21.357  0.00  0.00    +0.000 N 
ATOM      2  C   UNL     1      -3.440  13.248  22.397  0.00  0.00    +0.000 C 
ATOM      3  O   UNL     1      -2.404  13.879  22.327  0.00  0.00    +0.000 OA
ATOM      4  H   UNL     1      -5.012  12.263  21.658  0.00  0.00    +0.000 HD
ENDROOT
BRANCH   1   9
ATOM      5  C   UNL     1      -7.535  12.748  18.260  0.00  0.00    +0.000 C 
ATOM      6  C   UNL     1      -6.214  12.260  18.887  0.00  0.00    +0.000 C 
ATOM      7  C   UNL     1      -6.579  11.198  19.937  0.00  0.00    +0.000 C 
ATOM      8  C   UNL     1      -5.440  13.473  19.437  0.00  0.00    +0.000 C 
ATOM      9  C   UNL     1      -4.048  13.096  19.979  0.00  0.00    +0.000 C 
ATOM     10  C   UNL     1      -3.422  12.051  19.102  0.00  0.00    +0.000 A 
ATOM     11  C   UNL     1      -2.073  11.714  19.293  0.00  0.00    +0.000 A 
ATOM     12  C   UNL     1      -1.455  10.748  18.504  0.00  0.00    +0.000 A 
ATOM     13  C   UNL     1      -2.180  10.145  17.490  0.00  0.00    +0.000 A 
ATOM     14  F   UNL     1      -1.599   9.224  16.720  0.00  0.00    +0.000 F 
ATOM     15  C   UNL     1      -3.516  10.464  17.269  0.00  0.00    +0.000 A 
ATOM     16  C   UNL     1      -4.141  11.408  18.091  0.00  0.00    +0.000 A 
ATOM     17  O   UNL     1      -5.467  11.638  17.830  0.00  0.00    +0.000 OA
ENDBRANCH   1   9
BRANCH   2  18
ATOM     18  C   UNL     1      -4.353  13.357  23.627  0.00  0.00    +0.000 A 
ATOM     19  N   UNL     1      -4.311  12.276  24.364  0.00  0.00    +0.000 NA
ATOM     20  N   UNL     1      -5.529  11.774  24.729  0.00  0.00    +0.000 N 
ATOM     21  C   UNL     1      -6.702  12.202  24.125  0.00  0.00    +0.000 A 
ATOM     22  O   UNL     1      -7.661  11.475  23.931  0.00  0.00    +0.000 OA
ATOM     23  C   UNL     1      -6.724  13.637  23.779  0.00  0.00    +0.000 A 
ATOM     24  C   UNL     1      -7.916  14.343  23.687  0.00  0.00    +0.000 A 
ATOM     25  C   UNL     1      -7.871  15.731  23.559  0.00  0.00    +0.000 A 
ATOM     26  C   UNL     1      -6.639  16.394  23.524  0.00  0.00    +0.000 A 
ATOM     27  C   UNL     1      -5.437  15.669  23.544  0.00  0.00    +0.000 A 
ATOM     28  C   UNL     1      -5.497  14.276  23.636  0.00  0.00    +0.000 A 
ATOM     29  H   UNL     1      -5.508  10.781  24.947  0.00  0.00    +0.000 HD
ENDBRANCH   2  18
TORSDOF 2
ENDMDL
MODEL 4
REMARK VINA RESULT:      -7.8     10.866     13.649
REMARK  Name = 
REMARK  4 active torsions:
REMARK  status: ('A' for Active; 'I' for Inactive)
REMARK    1  A    between atoms: C_1  and  C_2
REMARK    2  A    between atoms: C_2  and  C_3
REMARK    3  A    between atoms: C_5  and  N_6
REMARK    4  A    between atoms: C_7  and  C_9
REMARK                            x       y       z     vdW  Elec       q    Type
REMARK                         _______ _______ _______ _____ _____    ______ ____
ROOT
ATOM      1  N   UNL     1      -3.926  12.346  23.410  0.00  0.00    +0.000 N 
ATOM      2  C   UNL     1      -4.775  12.368  24.504  0.00  0.00    +0.000 C 
ATOM      3  O   UNL     1      -4.460  12.419  25.676  0.00  0.00    +0.000 OA
ATOM      4  H   UNL     1      -4.438  12.415  22.536  0.00  0.00    +0.000 HD
ENDROOT
BRANCH   1   9
ATOM      5  C   UNL     1      -2.402  15.810  20.767  0.00  0.00    +0.000 C 
ATOM      6  C   UNL     1      -2.497  14.358  21.275  0.00  0.00    +0.000 C 
ATOM      7  C   UNL     1      -3.675  13.699  20.539  0.00  0.00    +0.000 C 
ATOM      8  C   UNL     1      -2.620  14.369  22.811  0.00  0.00    +0.000 C 
ATOM      9  C   UNL     1      -2.603  12.955  23.420  0.00  0.00    +0.000 C 
ATOM     10  C   UNL     1      -1.623  12.090  22.681  0.00  0.00    +0.000 A 
ATOM     11  C   UNL     1      -1.297  10.827  23.198  0.00  0.00    +0.000 A 
ATOM     12  C   UNL     1      -0.397   9.992  22.542  0.00  0.00    +0.000 A 
ATOM     13  C   UNL     1       0.213  10.441  21.382  0.00  0.00    +0.000 A 
ATOM     14  F   UNL     1       1.084   9.656  20.748  0.00  0.00    +0.000 F 
ATOM     15  C   UNL     1      -0.083  11.692  20.849  0.00  0.00    +0.000 A 
ATOM     16  C   UNL     1      -1.017  12.508  21.493  0.00  0.00    +0.000 A 
ATOM     17  O   UNL     1      -1.278  13.709  20.883  0.00  0.00    +0.000 OA
ENDBRANCH   1   9
BRANCH   2  18
ATOM     18  C   UNL     1      -6.207  12.690  24.053  0.00  0.00    +0.000 A 
ATOM     19  N   UNL     1      -6.995  11.649  24.148  0.00  0.00    +0.000 NA
ATOM     20  N   UNL     1      -7.756  11.392  23.042  0.00  0.00    +0.000 N 
ATOM     21  C   UNL     1      -7.498  12.006  21.824  0.00  0.00    +0.000 A 
ATOM     22  O   UNL     1      -7.671  11.460  20.748  0.00  0.00    +0.000 OA
ATOM     23  C   UNL     1      -7.042  13.405  21.929  0.00  0.00    +0.000 A 
ATOM     24  C   UNL     1      -7.249  14.314  20.899  0.00  0.00    +0.000 A 
ATOM     25  C   UNL     1      -6.984  15.664  21.127  0.00  0.00    +0.000 A 
ATOM     26  C   UNL     1      -6.517  16.088  22.376  0.00  0.00    +0.000 A 
ATOM     27  C   UNL     1      -6.241  15.157  23.388  0.00  0.00    +0.000 A 
ATOM     28  C   UNL     1      -6.476  13.803  23.135  0.00  0.00    +0.000 A 
ATOM     29  H   UNL     1      -8.049  10.422  22.968  0.00  0.00    +0.000 HD
ENDBRANCH   2  18
TORSDOF 2
ENDMDL
MODEL 5
REMARK VINA RESULT:      -7.8     10.087     12.934
REMARK  Name = 
REMARK  4 active torsions:
REMARK  status: ('A' for Active; 'I' for Inactive)
REMARK    1  A    between atoms: C_1  and  C_2
REMARK    2  A    between atoms: C_2  and  C_3
REMARK    3  A    between atoms: C_5  and  N_6
REMARK    4  A    between atoms: C_7  and  C_9
REMARK                            x       y       z     vdW  Elec       q    Type
REMARK                         _______ _______ _______ _____ _____    ______ ____
ROOT
ATOM      1  N   UNL     1      -3.331  12.175  23.144  0.00  0.00    +0.000 N 
ATOM      2  C   UNL     1      -4.193  12.509  24.175  0.00  0.00    +0.000 C 
ATOM      3  O   UNL     1      -3.899  12.737  25.331  0.00  0.00    +0.000 OA
ATOM      4  H   UNL     1      -3.810  12.146  22.249  0.00  0.00    +0.000 HD
ENDROOT
BRANCH   1   9
ATOM      5  C   UNL     1      -1.296  14.867  19.993  0.00  0.00    +0.000 C 
ATOM      6  C   UNL     1      -1.598  13.558  20.749  0.00  0.00    +0.000 C 
ATOM      7  C   UNL     1      -2.839  12.933  20.090  0.00  0.00    +0.000 C 
ATOM      8  C   UNL     1      -1.751  13.867  22.251  0.00  0.00    +0.000 C 
ATOM      9  C   UNL     1      -1.938  12.599  23.104  0.00  0.00    +0.000 C 
ATOM     10  C   UNL     1      -1.069  11.494  22.578  0.00  0.00    +0.000 A 
ATOM     11  C   UNL     1      -0.927  10.316  23.328  0.00  0.00    +0.000 A 
ATOM     12  C   UNL     1      -0.135   9.266  22.874  0.00  0.00    +0.000 A 
ATOM     13  C   UNL     1       0.554   9.411  21.681  0.00  0.00    +0.000 A 
ATOM     14  F   UNL     1       1.325   8.417  21.239  0.00  0.00    +0.000 F 
ATOM     15  C   UNL     1       0.442  10.570  20.920  0.00  0.00    +0.000 A 
ATOM     16  C   UNL     1      -0.387  11.605  21.363  0.00  0.00    +0.000 A 
ATOM     17  O   UNL     1      -0.470  12.696  20.537  0.00  0.00    +0.000 OA
ENDBRANCH   1   9
BRANCH   2  18
ATOM     18  C   UNL     1      -5.558  12.924  23.608  0.00  0.00    +0.000 A 
ATOM     19  N   UNL     1      -6.513  12.119  23.996  0.00  0.00    +0.000 NA
ATOM     20  N   UNL     1      -7.339  11.672  23.002  0.00  0.00    +0.000 N 
ATOM     21  C   UNL     1      -7.011  11.825  21.663  0.00  0.00    +0.000 A 
ATOM     22  O   UNL     1      -7.309  11.014  20.802  0.00  0.00    +0.000 OA
ATOM     23  C   UNL     1      -6.314  13.086  21.344  0.00  0.00    +0.000 A 
ATOM     24  C   UNL     1      -6.386  13.655  20.079  0.00  0.00    +0.000 A 
ATOM     25  C   UNL     1      -5.882  14.941  19.887  0.00  0.00    +0.000 A 
ATOM     26  C   UNL     1      -5.312  15.639  20.957  0.00  0.00    +0.000 A 
ATOM     27  C   UNL     1      -5.175  15.032  22.215  0.00  0.00    +0.000 A 
ATOM     28  C   UNL     1      -5.652  13.730  22.384  0.00  0.00    +0.000 A 
ATOM     29  H   UNL     1      -7.800  10.794  23.223  0.00  0.00    +0.000 HD
ENDBRANCH   2  18
TORSDOF 2
ENDMDL
MODEL 6
REMARK VINA RESULT:      -7.6      4.470      6.822
REMARK  Name = 
REMARK  4 active torsions:
REMARK  status: ('A' for Active; 'I' for Inactive)
REMARK    1  A    between atoms: C_1  and  C_2
REMARK    2  A    between atoms: C_2  and  C_3
REMARK    3  A    between atoms: C_5  and  N_6
REMARK    4  A    between atoms: C_7  and  C_9
REMARK                            x       y       z     vdW  Elec       q    Type
REMARK                         _______ _______ _______ _____ _____    ______ ____
ROOT
ATOM      1  N   UNL     1       2.546   7.802  18.770  0.00  0.00    +0.000 N 
ATOM      2  C   UNL     1       2.272   9.057  18.251  0.00  0.00    +0.000 C 
ATOM      3  O   UNL     1       2.470   9.440  17.116  0.00  0.00    +0.000 OA
ATOM      4  H   UNL     1       2.184   7.700  19.713  0.00  0.00    +0.000 HD
ENDROOT
BRANCH   1   9
ATOM      5  C   UNL     1       0.974   3.621  19.933  0.00  0.00    +0.000 C 
ATOM      6  C   UNL     1       2.034   4.687  19.595  0.00  0.00    +0.000 C 
ATOM      7  C   UNL     1       2.345   5.442  20.898  0.00  0.00    +0.000 C 
ATOM      8  C   UNL     1       1.512   5.570  18.445  0.00  0.00    +0.000 C 
ATOM      9  C   UNL     1       2.556   6.592  17.959  0.00  0.00    +0.000 C 
ATOM     10  C   UNL     1       3.923   5.972  17.961  0.00  0.00    +0.000 A 
ATOM     11  C   UNL     1       4.989   6.658  17.360  0.00  0.00    +0.000 A 
ATOM     12  C   UNL     1       6.273   6.120  17.345  0.00  0.00    +0.000 A 
ATOM     13  C   UNL     1       6.483   4.868  17.898  0.00  0.00    +0.000 A 
ATOM     14  F   UNL     1       7.705   4.335  17.883  0.00  0.00    +0.000 F 
ATOM     15  C   UNL     1       5.444   4.158  18.493  0.00  0.00    +0.000 A 
ATOM     16  C   UNL     1       4.166   4.723  18.539  0.00  0.00    +0.000 A 
ATOM     17  O   UNL     1       3.208   3.975  19.174  0.00  0.00    +0.000 OA
ENDBRANCH   1   9
BRANCH   2  18
ATOM     18  C   UNL     1       1.335   9.825  19.194  0.00  0.00    +0.000 A 
ATOM     19  N   UNL     1       0.529   9.022  19.842  0.00  0.00    +0.000 NA
ATOM     20  N   UNL     1      -0.789   9.388  19.832  0.00  0.00    +0.000 N 
ATOM     21  C   UNL     1      -1.266  10.360  18.965  0.00  0.00    +0.000 A 
ATOM     22  O   UNL     1      -2.380  10.331  18.472  0.00  0.00    +0.000 OA
ATOM     23  C   UNL     1      -0.331  11.476  18.722  0.00  0.00    +0.000 A 
ATOM     24  C   UNL     1      -0.785  12.737  18.360  0.00  0.00    +0.000 A 
ATOM     25  C   UNL     1       0.117  13.801  18.341  0.00  0.00    +0.000 A 
ATOM     26  C   UNL     1       1.458  13.591  18.683  0.00  0.00    +0.000 A 
ATOM     27  C   UNL     1       1.926  12.301  18.977  0.00  0.00    +0.000 A 
ATOM     28  C   UNL     1       1.020  11.238  18.957  0.00  0.00    +0.000 A 
ATOM     29  H   UNL     1      -1.426   8.610  19.980  0.00  0.00    +0.000 HD
ENDBRANCH   2  18
TORSDOF 2
ENDMDL
MODEL 7
REMARK VINA RESULT:      -7.5      9.718     12.304
REMARK  Name = 
REMARK  4 active torsions:
REMARK  status: ('A' for Active; 'I' for Inactive)
REMARK    1  A    between atoms: C_1  and  C_2
REMARK    2  A    between atoms: C_2  and  C_3
REMARK    3  A    between atoms: C_5  and  N_6
REMARK    4  A    between atoms: C_7  and  C_9
REMARK                            x       y       z     vdW  Elec       q    Type
REMARK                         _______ _______ _______ _____ _____    ______ ____
ROOT
ATOM      1  N   UNL     1      -2.580  12.447  21.975  0.00  0.00    +0.000 N 
ATOM      2  C   UNL     1      -3.329  12.731  23.104  0.00  0.00    +0.000 C 
ATOM      3  O   UNL     1      -2.961  12.680  24.260  0.00  0.00    +0.000 OA
ATOM      4  H   UNL     1      -3.085  12.674  21.124  0.00  0.00    +0.000 HD
ENDROOT
BRANCH   1   9
ATOM      5  C   UNL     1      -0.032  13.720  18.341  0.00  0.00    +0.000 C 
ATOM      6  C   UNL     1      -0.575  12.761  19.419  0.00  0.00    +0.000 C 
ATOM      7  C   UNL     1      -1.889  12.173  18.879  0.00  0.00    +0.000 C 
ATOM      8  C   UNL     1      -0.709  13.523  20.751  0.00  0.00    +0.000 C 
ATOM      9  C   UNL     1      -1.134  12.614  21.918  0.00  0.00    +0.000 C 
ATOM     10  C   UNL     1      -0.457  11.279  21.801  0.00  0.00    +0.000 A 
ATOM     11  C   UNL     1      -0.541  10.371  22.869  0.00  0.00    +0.000 A 
ATOM     12  C   UNL     1       0.067   9.121  22.799  0.00  0.00    +0.000 A 
ATOM     13  C   UNL     1       0.801   8.793  21.671  0.00  0.00    +0.000 A 
ATOM     14  F   UNL     1       1.397   7.603  21.594  0.00  0.00    +0.000 F 
ATOM     15  C   UNL     1       0.910   9.675  20.600  0.00  0.00    +0.000 A 
ATOM     16  C   UNL     1       0.263  10.913  20.661  0.00  0.00    +0.000 A 
ATOM     17  O   UNL     1       0.391  11.707  19.550  0.00  0.00    +0.000 OA
ENDBRANCH   1   9
BRANCH   2  18
ATOM     18  C   UNL     1      -4.609  13.484  22.713  0.00  0.00    +0.000 A 
ATOM     19  N   UNL     1      -4.892  14.439  23.561  0.00  0.00    +0.000 NA
ATOM     20  N   UNL     1      -6.188  14.465  23.998  0.00  0.00    +0.000 N 
ATOM     21  C   UNL     1      -7.046  13.395  23.787  0.00  0.00    +0.000 A 
ATOM     22  O   UNL     1      -7.916  13.067  24.576  0.00  0.00    +0.000 OA
ATOM     23  C   UNL     1      -6.862  12.707  22.495  0.00  0.00    +0.000 A 
ATOM     24  C   UNL     1      -7.902  12.019  21.884  0.00  0.00    +0.000 A 
ATOM     25  C   UNL     1      -7.734  11.563  20.577  0.00  0.00    +0.000 A 
ATOM     26  C   UNL     1      -6.533  11.798  19.899  0.00  0.00    +0.000 A 
ATOM     27  C   UNL     1      -5.459  12.429  20.547  0.00  0.00    +0.000 A 
ATOM     28  C   UNL     1      -5.628  12.849  21.868  0.00  0.00    +0.000 A 
ATOM     29  H   UNL     1      -6.303  14.923  24.898  0.00  0.00    +0.000 HD
ENDBRANCH   2  18
TORSDOF 2
ENDMDL
MODEL 8
REMARK VINA RESULT:      -7.4      8.544     11.817
REMARK  Name = 
REMARK  4 active torsions:
REMARK  status: ('A' for Active; 'I' for Inactive)
REMARK    1  A    between atoms: C_1  and  C_2
REMARK    2  A    between atoms: C_2  and  C_3
REMARK    3  A    between atoms: C_5  and  N_6
REMARK    4  A    between atoms: C_7  and  C_9
REMARK                            x       y       z     vdW  Elec       q    Type
REMARK                         _______ _______ _______ _____ _____    ______ ____
ROOT
ATOM      1  N   UNL     1      -1.672  12.110  20.118  0.00  0.00    +0.000 N 
ATOM      2  C   UNL     1      -0.965  11.953  18.937  0.00  0.00    +0.000 C 
ATOM      3  O   UNL     1      -1.281  12.352  17.834  0.00  0.00    +0.000 OA
ATOM      4  H   UNL     1      -1.140  11.784  20.919  0.00  0.00    +0.000 HD
ENDROOT
BRANCH   1   9
ATOM      5  C   UNL     1      -2.522  14.201  24.144  0.00  0.00    +0.000 C 
ATOM      6  C   UNL     1      -2.833  13.326  22.914  0.00  0.00    +0.000 C 
ATOM      7  C   UNL     1      -2.325  11.910  23.228  0.00  0.00    +0.000 C 
ATOM      8  C   UNL     1      -2.208  13.974  21.664  0.00  0.00    +0.000 C 
ATOM      9  C   UNL     1      -2.568  13.231  20.364  0.00  0.00    +0.000 C 
ATOM     10  C   UNL     1      -3.993  12.760  20.419  0.00  0.00    +0.000 A 
ATOM     11  C   UNL     1      -4.589  12.242  19.260  0.00  0.00    +0.000 A 
ATOM     12  C   UNL     1      -5.906  11.790  19.269  0.00  0.00    +0.000 A 
ATOM     13  C   UNL     1      -6.644  11.897  20.437  0.00  0.00    +0.000 A 
ATOM     14  F   UNL     1      -7.910  11.478  20.458  0.00  0.00    +0.000 F 
ATOM     15  C   UNL     1      -6.084  12.415  21.600  0.00  0.00    +0.000 A 
ATOM     16  C   UNL     1      -4.748  12.830  21.593  0.00  0.00    +0.000 A 
ATOM     17  O   UNL     1      -4.264  13.294  22.788  0.00  0.00    +0.000 OA
ENDBRANCH   1   9
BRANCH   2  18
ATOM     18  C   UNL     1       0.477  11.520  19.239  0.00  0.00    +0.000 A 
ATOM     19  N   UNL     1       1.325  12.003  18.367  0.00  0.00    +0.000 NA
ATOM     20  N   UNL     1       2.206  11.095  17.848  0.00  0.00    +0.000 N 
ATOM     21  C   UNL     1       2.022   9.730  18.011  0.00  0.00    +0.000 A 
ATOM     22  O   UNL     1       2.338   8.904  17.171  0.00  0.00    +0.000 OA
ATOM     23  C   UNL     1       1.459   9.340  19.318  0.00  0.00    +0.000 A 
ATOM     24  C   UNL     1       1.698   8.087  19.866  0.00  0.00    +0.000 A 
ATOM     25  C   UNL     1       1.315   7.842  21.185  0.00  0.00    +0.000 A 
ATOM     26  C   UNL     1       0.701   8.850  21.937  0.00  0.00    +0.000 A 
ATOM     27  C   UNL     1       0.396  10.090  21.355  0.00  0.00    +0.000 A 
ATOM     28  C   UNL     1       0.752  10.309  20.022  0.00  0.00    +0.000 A 
ATOM     29  H   UNL     1       2.574  11.362  16.938  0.00  0.00    +0.000 HD
ENDBRANCH   2  18
TORSDOF 2
ENDMDL
MODEL 9
REMARK VINA RESULT:      -7.3      9.505     12.338
REMARK  Name = 
REMARK  4 active torsions:
REMARK  status: ('A' for Active; 'I' for Inactive)
REMARK    1  A    between atoms: C_1  and  C_2
REMARK    2  A    between atoms: C_2  and  C_3
REMARK    3  A    between atoms: C_5  and  N_6
REMARK    4  A    between atoms: C_7  and  C_9
REMARK                            x       y       z     vdW  Elec       q    Type
REMARK                         _______ _______ _______ _____ _____    ______ ____
ROOT
ATOM      1  N   UNL     1      -3.610  12.112  21.370  0.00  0.00    +0.000 N 
ATOM      2  C   UNL     1      -4.426  13.051  21.979  0.00  0.00    +0.000 C 
ATOM      3  O   UNL     1      -4.076  14.050  22.574  0.00  0.00    +0.000 OA
ATOM      4  H   UNL     1      -4.149  11.432  20.843  0.00  0.00    +0.000 HD
ENDROOT
BRANCH   1   9
ATOM      5  C   UNL     1      -2.178  11.697  17.001  0.00  0.00    +0.000 C 
ATOM      6  C   UNL     1      -2.245  11.358  18.503  0.00  0.00    +0.000 C 
ATOM      7  C   UNL     1      -3.428  10.394  18.695  0.00  0.00    +0.000 C 
ATOM      8  C   UNL     1      -2.342  12.667  19.311  0.00  0.00    +0.000 C 
ATOM      9  C   UNL     1      -2.295  12.433  20.832  0.00  0.00    +0.000 C 
ATOM     10  C   UNL     1      -1.317  11.340  21.153  0.00  0.00    +0.000 A 
ATOM     11  C   UNL     1      -0.965  11.106  22.492  0.00  0.00    +0.000 A 
ATOM     12  C   UNL     1      -0.066  10.099  22.833  0.00  0.00    +0.000 A 
ATOM     13  C   UNL     1       0.517   9.349  21.825  0.00  0.00    +0.000 A 
ATOM     14  F   UNL     1       1.387   8.388  22.136  0.00  0.00    +0.000 F 
ATOM     15  C   UNL     1       0.196   9.563  20.488  0.00  0.00    +0.000 A 
ATOM     16  C   UNL     1      -0.738  10.550  20.156  0.00  0.00    +0.000 A 
ATOM     17  O   UNL     1      -1.025  10.672  18.821  0.00  0.00    +0.000 OA
ENDBRANCH   1   9
BRANCH   2  18
ATOM     18  C   UNL     1      -5.875  12.880  21.500  0.00  0.00    +0.000 A 
ATOM     19  N   UNL     1      -6.635  12.352  22.425  0.00  0.00    +0.000 NA
ATOM     20  N   UNL     1      -7.415  11.307  22.012  0.00  0.00    +0.000 N 
ATOM     21  C   UNL     1      -7.198  10.677  20.795  0.00  0.00    +0.000 A 
ATOM     22  O   UNL     1      -7.383   9.485  20.614  0.00  0.00    +0.000 OA
ATOM     23  C   UNL     1      -6.774  11.578  19.706  0.00  0.00    +0.000 A 
ATOM     24  C   UNL     1      -7.025  11.274  18.374  0.00  0.00    +0.000 A 
ATOM     25  C   UNL     1      -6.787  12.247  17.404  0.00  0.00    +0.000 A 
ATOM     26  C   UNL     1      -6.302  13.507  17.775  0.00  0.00    +0.000 A 
ATOM     27  C   UNL     1      -5.981  13.782  19.112  0.00  0.00    +0.000 A 
ATOM     28  C   UNL     1      -6.190  12.787  20.070  0.00  0.00    +0.000 A 
ATOM     29  H   UNL     1      -7.686  10.681  22.765  0.00  0.00    +0.000 HD
ENDBRANCH   2  18
TORSDOF 2
ENDMDL
