MODEL 1
REMARK VINA RESULT:      -9.1      0.000      0.000
REMARK  Name = 
REMARK  5 active torsions:
REMARK  status: ('A' for Active; 'I' for Inactive)
REMARK    1  A    between atoms: C_6  and  S_7
REMARK    2  A    between atoms: S_7  and  N_10
REMARK    3  A    between atoms: N_10  and  C_11
REMARK    4  A    between atoms: C_15  and  C_16
REMARK    5  A    between atoms: N_18  and  C_19
REMARK                            x       y       z     vdW  Elec       q    Type
REMARK                         _______ _______ _______ _____ _____    ______ ____
ROOT
ATOM      1  N   UNL     1       4.732   3.255  18.780  0.00  0.00    +0.000 N 
ATOM      2  H   UNL     1       5.052   2.871  19.667  0.00  0.00    +0.000 HD
ENDROOT
BRANCH   1   3
ATOM      3  C   UNL     1       5.526   4.186  18.071  0.00  0.00    +0.000 A 
ATOM      4  C   UNL     1       6.175   5.186  18.792  0.00  0.00    +0.000 A 
ATOM      5  C   UNL     1       6.999   6.096  18.130  0.00  0.00    +0.000 A 
ATOM      6  C   UNL     1       7.180   5.994  16.749  0.00  0.00    +0.000 A 
ATOM      7  C   UNL     1       6.531   4.983  16.024  0.00  0.00    +0.000 A 
ATOM      8  C   UNL     1       5.666   4.102  16.688  0.00  0.00    +0.000 A 
BRANCH   7   9
ATOM      9  C   UNL     1       6.798   4.861  14.560  0.00  0.00    +0.000 C 
ATOM     10  O   UNL     1       7.737   5.467  14.054  0.00  0.00    +0.000 OA
ATOM     11  N   UNL     1       5.961   4.002  13.873  0.00  0.00    +0.000 N 
ATOM     12  H   UNL     1       5.315   3.423  14.394  0.00  0.00    +0.000 HD
BRANCH  11  13
ATOM     13  C   UNL     1       6.084   3.724  12.475  0.00  0.00    +0.000 C 
ATOM     14  C   UNL     1       4.881   3.301  11.675  0.00  0.00    +0.000 C 
ATOM     15  C   UNL     1       5.956   2.304  11.990  0.00  0.00    +0.000 C 
ENDBRANCH  11  13
ENDBRANCH   7   9
ENDBRANCH   1   3
BRANCH   1  16
ATOM     16  S   UNL     1       3.071   3.224  18.532  0.00  0.00    +0.000 S 
ATOM     17  O   UNL     1       2.473   2.278  19.451  0.00  0.00    +0.000 OA
ATOM     18  O   UNL     1       2.874   3.103  17.103  0.00  0.00    +0.000 OA
BRANCH  16  24
ATOM     19  O   UNL     1       1.486  10.627  18.564  0.00  0.00    +0.000 OA
ATOM     20  C   UNL     1       1.691   9.435  18.728  0.00  0.00    +0.000 C 
ATOM     21  C   UNL     1       2.142   8.427  17.666  0.00  0.00    +0.000 C 
ATOM     22  C   UNL     1       2.222   7.153  18.454  0.00  0.00    +0.000 A 
ATOM     23  C   UNL     1       2.592   5.886  18.050  0.00  0.00    +0.000 A 
ATOM     24  C   UNL     1       2.572   4.865  19.013  0.00  0.00    +0.000 A 
ATOM     25  C   UNL     1       2.212   5.126  20.353  0.00  0.00    +0.000 A 
ATOM     26  C   UNL     1       1.846   6.419  20.743  0.00  0.00    +0.000 A 
ATOM     27  C   UNL     1       1.861   7.403  19.777  0.00  0.00    +0.000 A 
ATOM     28  N   UNL     1       1.548   8.745  19.928  0.00  0.00    +0.000 N 
ATOM     29  H   UNL     1       1.264   9.195  20.785  0.00  0.00    +0.000 HD
ENDBRANCH  16  24
ENDBRANCH   1  16
TORSDOF 5
ENDMDL
MODEL 2
REMARK VINA RESULT:      -8.7      0.824      1.438
REMARK  Name = 
REMARK  5 active torsions:
REMARK  status: ('A' for Active; 'I' for Inactive)
REMARK    1  A    between atoms: C_6  and  S_7
REMARK    2  A    between atoms: S_7  and  N_10
REMARK    3  A    between atoms: N_10  and  C_11
REMARK    4  A    between atoms: C_15  and  C_16
REMARK    5  A    between atoms: N_18  and  C_19
REMARK                            x       y       z     vdW  Elec       q    Type
REMARK                         _______ _______ _______ _____ _____    ______ ____
ROOT
ATOM      1  N   UNL     1       4.830   3.360  18.876  0.00  0.00    +0.000 N 
ATOM      2  H   UNL     1       5.174   2.961  19.748  0.00  0.00    +0.000 HD
ENDROOT
BRANCH   1   3
ATOM      3  C   UNL     1       5.619   4.281  18.148  0.00  0.00    +0.000 A 
ATOM      4  C   UNL     1       6.279   5.288  18.850  0.00  0.00    +0.000 A 
ATOM      5  C   UNL     1       7.097   6.188  18.169  0.00  0.00    +0.000 A 
ATOM      6  C   UNL     1       7.263   6.069  16.787  0.00  0.00    +0.000 A 
ATOM      7  C   UNL     1       6.604   5.052  16.082  0.00  0.00    +0.000 A 
ATOM      8  C   UNL     1       5.745   4.180  16.764  0.00  0.00    +0.000 A 
BRANCH   7   9
ATOM      9  C   UNL     1       6.856   4.912  14.616  0.00  0.00    +0.000 C 
ATOM     10  O   UNL     1       7.833   5.450  14.106  0.00  0.00    +0.000 OA
ATOM     11  N   UNL     1       5.957   4.114  13.932  0.00  0.00    +0.000 N 
ATOM     12  H   UNL     1       5.274   3.583  14.456  0.00  0.00    +0.000 HD
BRANCH  11  13
ATOM     13  C   UNL     1       6.054   3.829  12.534  0.00  0.00    +0.000 C 
ATOM     14  C   UNL     1       4.862   3.303  11.781  0.00  0.00    +0.000 C 
ATOM     15  C   UNL     1       6.022   2.397  12.068  0.00  0.00    +0.000 C 
ENDBRANCH  11  13
ENDBRANCH   7   9
ENDBRANCH   1   3
BRANCH   1  16
ATOM     16  S   UNL     1       3.161   3.368  18.687  0.00  0.00    +0.000 S 
ATOM     17  O   UNL     1       2.557   2.652  19.791  0.00  0.00    +0.000 OA
ATOM     18  O   UNL     1       2.905   2.980  17.316  0.00  0.00    +0.000 OA
BRANCH  16  24
ATOM     19  O   UNL     1       0.732  10.056  21.272  0.00  0.00    +0.000 OA
ATOM     20  C   UNL     1       1.168   9.065  20.708  0.00  0.00    +0.000 C 
ATOM     21  C   UNL     1       1.283   7.653  21.292  0.00  0.00    +0.000 C 
ATOM     22  C   UNL     1       1.877   6.886  20.148  0.00  0.00    +0.000 A 
ATOM     23  C   UNL     1       2.203   5.549  20.056  0.00  0.00    +0.000 A 
ATOM     24  C   UNL     1       2.756   5.095  18.849  0.00  0.00    +0.000 A 
ATOM     25  C   UNL     1       2.949   5.968  17.756  0.00  0.00    +0.000 A 
ATOM     26  C   UNL     1       2.606   7.320  17.868  0.00  0.00    +0.000 A 
ATOM     27  C   UNL     1       2.077   7.745  19.068  0.00  0.00    +0.000 A 
ATOM     28  N   UNL     1       1.661   9.023  19.408  0.00  0.00    +0.000 N 
ATOM     29  H   UNL     1       1.686   9.833  18.807  0.00  0.00    +0.000 HD
ENDBRANCH  16  24
ENDBRANCH   1  16
TORSDOF 5
ENDMDL
MODEL 3
REMARK VINA RESULT:      -8.4      2.218      2.814
REMARK  Name = 
REMARK  5 active torsions:
REMARK  status: ('A' for Active; 'I' for Inactive)
REMARK    1  A    between atoms: C_6  and  S_7
REMARK    2  A    between atoms: S_7  and  N_10
REMARK    3  A    between atoms: N_10  and  C_11
REMARK    4  A    between atoms: C_15  and  C_16
REMARK    5  A    between atoms: N_18  and  C_19
REMARK                            x       y       z     vdW  Elec       q    Type
REMARK                         _______ _______ _______ _____ _____    ______ ____
ROOT
ATOM      1  N   UNL     1       4.133   6.905  17.766  0.00  0.00    +0.000 N 
ATOM      2  H   UNL     1       3.836   7.728  17.243  0.00  0.00    +0.000 HD
ENDROOT
BRANCH   1   3
ATOM      3  C   UNL     1       5.216   6.118  17.311  0.00  0.00    +0.000 A 
ATOM      4  C   UNL     1       6.019   5.486  18.259  0.00  0.00    +0.000 A 
ATOM      5  C   UNL     1       7.071   4.670  17.845  0.00  0.00    +0.000 A 
ATOM      6  C   UNL     1       7.308   4.477  16.482  0.00  0.00    +0.000 A 
ATOM      7  C   UNL     1       6.495   5.108  15.528  0.00  0.00    +0.000 A 
ATOM      8  C   UNL     1       5.470   5.966  15.950  0.00  0.00    +0.000 A 
BRANCH   7   9
ATOM      9  C   UNL     1       6.733   4.829  14.081  0.00  0.00    +0.000 C 
ATOM     10  O   UNL     1       7.649   5.390  13.489  0.00  0.00    +0.000 OA
ATOM     11  N   UNL     1       5.898   3.884  13.512  0.00  0.00    +0.000 N 
ATOM     12  H   UNL     1       5.274   3.357  14.109  0.00  0.00    +0.000 HD
BRANCH  11  13
ATOM     13  C   UNL     1       5.996   3.455  12.151  0.00  0.00    +0.000 C 
ATOM     14  C   UNL     1       4.769   3.006  11.405  0.00  0.00    +0.000 C 
ATOM     15  C   UNL     1       5.800   1.998  11.820  0.00  0.00    +0.000 C 
ENDBRANCH  11  13
ENDBRANCH   7   9
ENDBRANCH   1   3
BRANCH   1  16
ATOM     16  S   UNL     1       2.969   6.217  18.763  0.00  0.00    +0.000 S 
ATOM     17  O   UNL     1       3.625   5.587  19.890  0.00  0.00    +0.000 OA
ATOM     18  O   UNL     1       2.085   5.466  17.897  0.00  0.00    +0.000 OA
BRANCH  16  24
ATOM     19  O   UNL     1      -1.035  11.028  23.021  0.00  0.00    +0.000 OA
ATOM     20  C   UNL     1      -0.395  10.378  22.210  0.00  0.00    +0.000 C 
ATOM     21  C   UNL     1       0.234   8.999  22.432  0.00  0.00    +0.000 C 
ATOM     22  C   UNL     1       0.871   8.726  21.101  0.00  0.00    +0.000 A 
ATOM     23  C   UNL     1       1.581   7.623  20.672  0.00  0.00    +0.000 A 
ATOM     24  C   UNL     1       2.073   7.637  19.358  0.00  0.00    +0.000 A 
ATOM     25  C   UNL     1       1.830   8.727  18.495  0.00  0.00    +0.000 A 
ATOM     26  C   UNL     1       1.102   9.833  18.948  0.00  0.00    +0.000 A 
ATOM     27  C   UNL     1       0.640   9.803  20.247  0.00  0.00    +0.000 A 
ATOM     28  N   UNL     1      -0.101  10.769  20.907  0.00  0.00    +0.000 N 
ATOM     29  H   UNL     1      -0.414  11.645  20.517  0.00  0.00    +0.000 HD
ENDBRANCH  16  24
ENDBRANCH   1  16
TORSDOF 5
ENDMDL
MODEL 4
REMARK VINA RESULT:      -8.2      3.499      6.114
REMARK  Name = 
REMARK  5 active torsions:
REMARK  status: ('A' for Active; 'I' for Inactive)
REMARK    1  A    between atoms: C_6  and  S_7
REMARK    2  A    between atoms: S_7  and  N_10
REMARK    3  A    between atoms: N_10  and  C_11
REMARK    4  A    between atoms: C_15  and  C_16
REMARK    5  A    between atoms: N_18  and  C_19
REMARK                            x       y       z     vdW  Elec       q    Type
REMARK                         _______ _______ _______ _____ _____    ______ ____
ROOT
ATOM      1  N   UNL     1       6.912   5.050  15.913  0.00  0.00    +0.000 N 
ATOM      2  H   UNL     1       7.353   4.183  15.611  0.00  0.00    +0.000 HD
ENDROOT
BRANCH   1   3
ATOM      3  C   UNL     1       7.365   5.721  17.073  0.00  0.00    +0.000 A 
ATOM      4  C   UNL     1       7.660   4.961  18.204  0.00  0.00    +0.000 A 
ATOM      5  C   UNL     1       8.148   5.586  19.351  0.00  0.00    +0.000 A 
ATOM      6  C   UNL     1       8.351   6.967  19.359  0.00  0.00    +0.000 A 
ATOM      7  C   UNL     1       8.060   7.730  18.219  0.00  0.00    +0.000 A 
ATOM      8  C   UNL     1       7.524   7.104  17.085  0.00  0.00    +0.000 A 
BRANCH   7   9
ATOM      9  C   UNL     1       8.351   9.195  18.238  0.00  0.00    +0.000 C 
ATOM     10  O   UNL     1       7.831   9.936  17.411  0.00  0.00    +0.000 OA
ATOM     11  N   UNL     1       9.178   9.623  19.260  0.00  0.00    +0.000 N 
ATOM     12  H   UNL     1       9.435   8.972  19.991  0.00  0.00    +0.000 HD
BRANCH  11  13
ATOM     13  C   UNL     1       9.540  10.991  19.468  0.00  0.00    +0.000 C 
ATOM     14  C   UNL     1      10.941  11.353  19.881  0.00  0.00    +0.000 C 
ATOM     15  C   UNL     1       9.817  11.478  20.866  0.00  0.00    +0.000 C 
ENDBRANCH  11  13
ENDBRANCH   7   9
ENDBRANCH   1   3
BRANCH   1  16
ATOM     16  S   UNL     1       5.337   5.289  15.379  0.00  0.00    +0.000 S 
ATOM     17  O   UNL     1       4.982   4.225  14.463  0.00  0.00    +0.000 OA
ATOM     18  O   UNL     1       5.248   6.678  14.982  0.00  0.00    +0.000 OA
BRANCH  16  24
ATOM     19  O   UNL     1       1.498   2.374  21.217  0.00  0.00    +0.000 OA
ATOM     20  C   UNL     1       2.077   3.001  20.345  0.00  0.00    +0.000 C 
ATOM     21  C   UNL     1       2.890   2.421  19.183  0.00  0.00    +0.000 C 
ATOM     22  C   UNL     1       3.343   3.659  18.467  0.00  0.00    +0.000 A 
ATOM     23  C   UNL     1       4.103   3.788  17.322  0.00  0.00    +0.000 A 
ATOM     24  C   UNL     1       4.383   5.087  16.871  0.00  0.00    +0.000 A 
ATOM     25  C   UNL     1       3.885   6.222  17.546  0.00  0.00    +0.000 A 
ATOM     26  C   UNL     1       3.111   6.069  18.701  0.00  0.00    +0.000 A 
ATOM     27  C   UNL     1       2.860   4.784  19.134  0.00  0.00    +0.000 A 
ATOM     28  N   UNL     1       2.121   4.388  20.237  0.00  0.00    +0.000 N 
ATOM     29  H   UNL     1       1.651   5.001  20.886  0.00  0.00    +0.000 HD
ENDBRANCH  16  24
ENDBRANCH   1  16
TORSDOF 5
ENDMDL
MODEL 5
REMARK VINA RESULT:      -8.1      1.839      2.201
REMARK  Name = 
REMARK  5 active torsions:
REMARK  status: ('A' for Active; 'I' for Inactive)
REMARK    1  A    between atoms: C_6  and  S_7
REMARK    2  A    between atoms: S_7  and  N_10
REMARK    3  A    between atoms: N_10  and  C_11
REMARK    4  A    between atoms: C_15  and  C_16
REMARK    5  A    between atoms: N_18  and  C_19
REMARK                            x       y       z     vdW  Elec       q    Type
REMARK                         _______ _______ _______ _____ _____    ______ ____
ROOT
ATOM      1  N   UNL     1       4.211   6.816  17.856  0.00  0.00    +0.000 N 
ATOM      2  H   UNL     1       3.928   7.686  17.407  0.00  0.00    +0.000 HD
ENDROOT
BRANCH   1   3
ATOM      3  C   UNL     1       5.301   6.069  17.352  0.00  0.00    +0.000 A 
ATOM      4  C   UNL     1       6.168   5.466  18.262  0.00  0.00    +0.000 A 
ATOM      5  C   UNL     1       7.228   4.688  17.799  0.00  0.00    +0.000 A 
ATOM      6  C   UNL     1       7.411   4.506  16.426  0.00  0.00    +0.000 A 
ATOM      7  C   UNL     1       6.534   5.107  15.511  0.00  0.00    +0.000 A 
ATOM      8  C   UNL     1       5.499   5.927  15.981  0.00  0.00    +0.000 A 
BRANCH   7   9
ATOM      9  C   UNL     1       6.717   4.837  14.054  0.00  0.00    +0.000 C 
ATOM     10  O   UNL     1       7.667   5.327  13.453  0.00  0.00    +0.000 OA
ATOM     11  N   UNL     1       5.791   3.981  13.487  0.00  0.00    +0.000 N 
ATOM     12  H   UNL     1       5.135   3.498  14.087  0.00  0.00    +0.000 HD
BRANCH  11  13
ATOM     13  C   UNL     1       5.823   3.572  12.116  0.00  0.00    +0.000 C 
ATOM     14  C   UNL     1       4.582   3.043  11.452  0.00  0.00    +0.000 C 
ATOM     15  C   UNL     1       5.708   2.109  11.779  0.00  0.00    +0.000 C 
ENDBRANCH  11  13
ENDBRANCH   7   9
ENDBRANCH   1   3
BRANCH   1  16
ATOM     16  S   UNL     1       3.024   6.044  18.759  0.00  0.00    +0.000 S 
ATOM     17  O   UNL     1       3.650   5.336  19.857  0.00  0.00    +0.000 OA
ATOM     18  O   UNL     1       2.176   5.353  17.811  0.00  0.00    +0.000 OA
BRANCH  16  24
ATOM     19  O   UNL     1      -0.439  12.705  19.731  0.00  0.00    +0.000 OA
ATOM     20  C   UNL     1       0.062  11.593  19.737  0.00  0.00    +0.000 C 
ATOM     21  C   UNL     1       0.808  10.916  18.583  0.00  0.00    +0.000 C 
ATOM     22  C   UNL     1       1.182   9.593  19.182  0.00  0.00    +0.000 A 
ATOM     23  C   UNL     1       1.888   8.542  18.631  0.00  0.00    +0.000 A 
ATOM     24  C   UNL     1       2.092   7.407  19.430  0.00  0.00    +0.000 A 
ATOM     25  C   UNL     1       1.618   7.348  20.758  0.00  0.00    +0.000 A 
ATOM     26  C   UNL     1       0.910   8.427  21.299  0.00  0.00    +0.000 A 
ATOM     27  C   UNL     1       0.710   9.526  20.492  0.00  0.00    +0.000 A 
ATOM     28  N   UNL     1       0.051  10.704  20.808  0.00  0.00    +0.000 N 
ATOM     29  H   UNL     1      -0.378  10.923  21.694  0.00  0.00    +0.000 HD
ENDBRANCH  16  24
ENDBRANCH   1  16
TORSDOF 5
ENDMDL
MODEL 6
REMARK VINA RESULT:      -8.1      2.285      8.034
REMARK  Name = 
REMARK  5 active torsions:
REMARK  status: ('A' for Active; 'I' for Inactive)
REMARK    1  A    between atoms: C_6  and  S_7
REMARK    2  A    between atoms: S_7  and  N_10
REMARK    3  A    between atoms: N_10  and  C_11
REMARK    4  A    between atoms: C_15  and  C_16
REMARK    5  A    between atoms: N_18  and  C_19
REMARK                            x       y       z     vdW  Elec       q    Type
REMARK                         _______ _______ _______ _____ _____    ______ ____
ROOT
ATOM      1  N   UNL     1       3.391   5.424  20.043  0.00  0.00    +0.000 N 
ATOM      2  H   UNL     1       3.560   5.198  21.022  0.00  0.00    +0.000 HD
ENDROOT
BRANCH   1   3
ATOM      3  C   UNL     1       2.742   6.629  19.687  0.00  0.00    +0.000 A 
ATOM      4  C   UNL     1       2.916   7.117  18.393  0.00  0.00    +0.000 A 
ATOM      5  C   UNL     1       2.258   8.280  17.996  0.00  0.00    +0.000 A 
ATOM      6  C   UNL     1       1.417   8.945  18.891  0.00  0.00    +0.000 A 
ATOM      7  C   UNL     1       1.236   8.449  20.190  0.00  0.00    +0.000 A 
ATOM      8  C   UNL     1       1.938   7.307  20.600  0.00  0.00    +0.000 A 
BRANCH   7   9
ATOM      9  C   UNL     1       0.278   9.145  21.100  0.00  0.00    +0.000 C 
ATOM     10  O   UNL     1      -0.585   8.505  21.691  0.00  0.00    +0.000 OA
ATOM     11  N   UNL     1       0.480  10.506  21.247  0.00  0.00    +0.000 N 
ATOM     12  H   UNL     1       1.309  10.926  20.848  0.00  0.00    +0.000 HD
BRANCH  11  13
ATOM     13  C   UNL     1      -0.309  11.337  22.104  0.00  0.00    +0.000 C 
ATOM     14  C   UNL     1      -1.551  12.005  21.581  0.00  0.00    +0.000 C 
ATOM     15  C   UNL     1      -0.330  12.825  21.874  0.00  0.00    +0.000 C 
ENDBRANCH  11  13
ENDBRANCH   7   9
ENDBRANCH   1   3
BRANCH   1  16
ATOM     16  S   UNL     1       3.345   4.116  18.991  0.00  0.00    +0.000 S 
ATOM     17  O   UNL     1       2.096   4.141  18.259  0.00  0.00    +0.000 OA
ATOM     18  O   UNL     1       3.734   2.957  19.765  0.00  0.00    +0.000 OA
BRANCH  16  24
ATOM     19  O   UNL     1       7.597   4.825  12.767  0.00  0.00    +0.000 OA
ATOM     20  C   UNL     1       7.048   4.782  13.856  0.00  0.00    +0.000 C 
ATOM     21  C   UNL     1       5.617   4.317  14.145  0.00  0.00    +0.000 C 
ATOM     22  C   UNL     1       5.525   4.488  15.633  0.00  0.00    +0.000 A 
ATOM     23  C   UNL     1       4.476   4.218  16.489  0.00  0.00    +0.000 A 
ATOM     24  C   UNL     1       4.668   4.480  17.854  0.00  0.00    +0.000 A 
ATOM     25  C   UNL     1       5.896   4.977  18.341  0.00  0.00    +0.000 A 
ATOM     26  C   UNL     1       6.949   5.239  17.456  0.00  0.00    +0.000 A 
ATOM     27  C   UNL     1       6.733   4.986  16.119  0.00  0.00    +0.000 A 
ATOM     28  N   UNL     1       7.620   5.159  15.068  0.00  0.00    +0.000 N 
ATOM     29  H   UNL     1       8.567   5.497  15.142  0.00  0.00    +0.000 HD
ENDBRANCH  16  24
ENDBRANCH   1  16
TORSDOF 5
ENDMDL
MODEL 7
REMARK VINA RESULT:      -7.9      2.145      7.769
REMARK  Name = 
REMARK  5 active torsions:
REMARK  status: ('A' for Active; 'I' for Inactive)
REMARK    1  A    between atoms: C_6  and  S_7
REMARK    2  A    between atoms: S_7  and  N_10
REMARK    3  A    between atoms: N_10  and  C_11
REMARK    4  A    between atoms: C_15  and  C_16
REMARK    5  A    between atoms: N_18  and  C_19
REMARK                            x       y       z     vdW  Elec       q    Type
REMARK                         _______ _______ _______ _____ _____    ______ ____
ROOT
ATOM      1  N   UNL     1       3.052   5.626  20.209  0.00  0.00    +0.000 N 
ATOM      2  H   UNL     1       2.899   5.559  21.214  0.00  0.00    +0.000 HD
ENDROOT
BRANCH   1   3
ATOM      3  C   UNL     1       2.710   6.806  19.509  0.00  0.00    +0.000 A 
ATOM      4  C   UNL     1       3.301   7.034  18.267  0.00  0.00    +0.000 A 
ATOM      5  C   UNL     1       2.955   8.166  17.531  0.00  0.00    +0.000 A 
ATOM      6  C   UNL     1       2.009   9.062  18.035  0.00  0.00    +0.000 A 
ATOM      7  C   UNL     1       1.410   8.829  19.281  0.00  0.00    +0.000 A 
ATOM      8  C   UNL     1       1.797   7.715  20.038  0.00  0.00    +0.000 A 
BRANCH   7   9
ATOM      9  C   UNL     1       0.354   9.770  19.760  0.00  0.00    +0.000 C 
ATOM     10  O   UNL     1      -0.178  10.548  18.975  0.00  0.00    +0.000 OA
ATOM     11  N   UNL     1       0.012   9.651  21.095  0.00  0.00    +0.000 N 
ATOM     12  H   UNL     1       0.387   8.880  21.631  0.00  0.00    +0.000 HD
BRANCH  11  13
ATOM     13  C   UNL     1      -1.003  10.436  21.726  0.00  0.00    +0.000 C 
ATOM     14  C   UNL     1      -0.651  11.736  22.398  0.00  0.00    +0.000 C 
ATOM     15  C   UNL     1      -1.025  10.545  23.229  0.00  0.00    +0.000 C 
ENDBRANCH  11  13
ENDBRANCH   7   9
ENDBRANCH   1   3
BRANCH   1  16
ATOM     16  S   UNL     1       3.126   4.165  19.385  0.00  0.00    +0.000 S 
ATOM     17  O   UNL     1       1.924   4.008  18.592  0.00  0.00    +0.000 OA
ATOM     18  O   UNL     1       3.515   3.167  20.358  0.00  0.00    +0.000 OA
BRANCH  16  24
ATOM     19  O   UNL     1       7.468   4.807  13.216  0.00  0.00    +0.000 OA
ATOM     20  C   UNL     1       6.916   4.737  14.302  0.00  0.00    +0.000 C 
ATOM     21  C   UNL     1       5.422   4.516  14.559  0.00  0.00    +0.000 C 
ATOM     22  C   UNL     1       5.355   4.522  16.057  0.00  0.00    +0.000 A 
ATOM     23  C   UNL     1       4.270   4.352  16.893  0.00  0.00    +0.000 A 
ATOM     24  C   UNL     1       4.500   4.409  18.277  0.00  0.00    +0.000 A 
ATOM     25  C   UNL     1       5.797   4.606  18.798  0.00  0.00    +0.000 A 
ATOM     26  C   UNL     1       6.884   4.770  17.932  0.00  0.00    +0.000 A 
ATOM     27  C   UNL     1       6.632   4.724  16.578  0.00  0.00    +0.000 A 
ATOM     28  N   UNL     1       7.541   4.852  15.540  0.00  0.00    +0.000 N 
ATOM     29  H   UNL     1       8.535   4.997  15.637  0.00  0.00    +0.000 HD
ENDBRANCH  16  24
ENDBRANCH   1  16
TORSDOF 5
ENDMDL
MODEL 8
REMARK VINA RESULT:      -7.9      2.398      8.010
REMARK  Name = 
REMARK  5 active torsions:
REMARK  status: ('A' for Active; 'I' for Inactive)
REMARK    1  A    between atoms: C_6  and  S_7
REMARK    2  A    between atoms: S_7  and  N_10
REMARK    3  A    between atoms: N_10  and  C_11
REMARK    4  A    between atoms: C_15  and  C_16
REMARK    5  A    between atoms: N_18  and  C_19
REMARK                            x       y       z     vdW  Elec       q    Type
REMARK                         _______ _______ _______ _____ _____    ______ ____
ROOT
ATOM      1  N   UNL     1       2.675   5.870  20.465  0.00  0.00    +0.000 N 
ATOM      2  H   UNL     1       2.606   5.707  21.468  0.00  0.00    +0.000 HD
ENDROOT
BRANCH   1   3
ATOM      3  C   UNL     1       2.233   7.090  19.904  0.00  0.00    +0.000 A 
ATOM      4  C   UNL     1       2.484   7.327  18.554  0.00  0.00    +0.000 A 
ATOM      5  C   UNL     1       2.026   8.502  17.958  0.00  0.00    +0.000 A 
ATOM      6  C   UNL     1       1.307   9.431  18.714  0.00  0.00    +0.000 A 
ATOM      7  C   UNL     1       1.049   9.189  20.071  0.00  0.00    +0.000 A 
ATOM      8  C   UNL     1       1.553   8.029  20.676  0.00  0.00    +0.000 A 
BRANCH   7   9
ATOM      9  C   UNL     1       0.221  10.170  20.833  0.00  0.00    +0.000 C 
ATOM     10  O   UNL     1      -0.640   9.774  21.612  0.00  0.00    +0.000 OA
ATOM     11  N   UNL     1       0.535  11.501  20.626  0.00  0.00    +0.000 N 
ATOM     12  H   UNL     1       1.360  11.734  20.089  0.00  0.00    +0.000 HD
BRANCH  11  13
ATOM     13  C   UNL     1      -0.119  12.584  21.294  0.00  0.00    +0.000 C 
ATOM     14  C   UNL     1      -1.440  13.100  20.791  0.00  0.00    +0.000 C 
ATOM     15  C   UNL     1      -0.201  13.927  20.617  0.00  0.00    +0.000 C 
ENDBRANCH  11  13
ENDBRANCH   7   9
ENDBRANCH   1   3
BRANCH   1  16
ATOM     16  S   UNL     1       2.738   4.492  19.507  0.00  0.00    +0.000 S 
ATOM     17  O   UNL     1       1.607   4.493  18.602  0.00  0.00    +0.000 OA
ATOM     18  O   UNL     1       2.976   3.382  20.404  0.00  0.00    +0.000 OA
BRANCH  16  24
ATOM     19  O   UNL     1       7.717   5.127  13.839  0.00  0.00    +0.000 OA
ATOM     20  C   UNL     1       7.050   5.063  14.859  0.00  0.00    +0.000 C 
ATOM     21  C   UNL     1       5.541   4.816  14.954  0.00  0.00    +0.000 C 
ATOM     22  C   UNL     1       5.310   4.843  16.437  0.00  0.00    +0.000 A 
ATOM     23  C   UNL     1       4.144   4.664  17.152  0.00  0.00    +0.000 A 
ATOM     24  C   UNL     1       4.220   4.747  18.551  0.00  0.00    +0.000 A 
ATOM     25  C   UNL     1       5.449   4.978  19.207  0.00  0.00    +0.000 A 
ATOM     26  C   UNL     1       6.621   5.151  18.463  0.00  0.00    +0.000 A 
ATOM     27  C   UNL     1       6.519   5.079  17.090  0.00  0.00    +0.000 A 
ATOM     28  N   UNL     1       7.535   5.210  16.155  0.00  0.00    +0.000 N 
ATOM     29  H   UNL     1       8.509   5.375  16.357  0.00  0.00    +0.000 HD
ENDBRANCH  16  24
ENDBRANCH   1  16
TORSDOF 5
ENDMDL
MODEL 9
REMARK VINA RESULT:      -7.9      3.209      4.692
REMARK  Name = 
REMARK  5 active torsions:
REMARK  status: ('A' for Active; 'I' for Inactive)
REMARK    1  A    between atoms: C_6  and  S_7
REMARK    2  A    between atoms: S_7  and  N_10
REMARK    3  A    between atoms: N_10  and  C_11
REMARK    4  A    between atoms: C_15  and  C_16
REMARK    5  A    between atoms: N_18  and  C_19
REMARK                            x       y       z     vdW  Elec       q    Type
REMARK                         _______ _______ _______ _____ _____    ______ ____
ROOT
ATOM      1  N   UNL     1       6.472   4.148  16.343  0.00  0.00    +0.000 N 
ATOM      2  H   UNL     1       7.122   3.577  16.882  0.00  0.00    +0.000 HD
ENDROOT
BRANCH   1   3
ATOM      3  C   UNL     1       6.648   4.314  14.949  0.00  0.00    +0.000 A 
ATOM      4  C   UNL     1       7.766   5.016  14.503  0.00  0.00    +0.000 A 
ATOM      5  C   UNL     1       7.992   5.164  13.135  0.00  0.00    +0.000 A 
ATOM      6  C   UNL     1       7.105   4.597  12.217  0.00  0.00    +0.000 A 
ATOM      7  C   UNL     1       5.984   3.884  12.667  0.00  0.00    +0.000 A 
ATOM      8  C   UNL     1       5.735   3.781  14.043  0.00  0.00    +0.000 A 
BRANCH   7   9
ATOM      9  C   UNL     1       5.092   3.234  11.662  0.00  0.00    +0.000 C 
ATOM     10  O   UNL     1       5.269   2.061  11.350  0.00  0.00    +0.000 OA
ATOM     11  N   UNL     1       4.066   4.025  11.177  0.00  0.00    +0.000 N 
ATOM     12  H   UNL     1       3.898   4.927  11.603  0.00  0.00    +0.000 HD
BRANCH  11  13
ATOM     13  C   UNL     1       3.088   3.568  10.238  0.00  0.00    +0.000 C 
ATOM     14  C   UNL     1       3.304   3.760   8.762  0.00  0.00    +0.000 C 
ATOM     15  C   UNL     1       2.269   4.576   9.476  0.00  0.00    +0.000 C 
ENDBRANCH  11  13
ENDBRANCH   7   9
ENDBRANCH   1   3
BRANCH   1  16
ATOM     16  S   UNL     1       5.626   5.307  17.215  0.00  0.00    +0.000 S 
ATOM     17  O   UNL     1       4.958   6.200  16.292  0.00  0.00    +0.000 OA
ATOM     18  O   UNL     1       6.542   5.813  18.215  0.00  0.00    +0.000 OA
BRANCH  16  24
ATOM     19  O   UNL     1       0.904   2.453  22.400  0.00  0.00    +0.000 OA
ATOM     20  C   UNL     1       1.598   2.792  21.455  0.00  0.00    +0.000 C 
ATOM     21  C   UNL     1       2.587   3.961  21.415  0.00  0.00    +0.000 C 
ATOM     22  C   UNL     1       3.125   3.872  20.018  0.00  0.00    +0.000 A 
ATOM     23  C   UNL     1       4.072   4.651  19.385  0.00  0.00    +0.000 A 
ATOM     24  C   UNL     1       4.386   4.339  18.053  0.00  0.00    +0.000 A 
ATOM     25  C   UNL     1       3.776   3.252  17.390  0.00  0.00    +0.000 A 
ATOM     26  C   UNL     1       2.823   2.471  18.053  0.00  0.00    +0.000 A 
ATOM     27  C   UNL     1       2.521   2.804  19.356  0.00  0.00    +0.000 A 
ATOM     28  N   UNL     1       1.623   2.178  20.206  0.00  0.00    +0.000 N 
ATOM     29  H   UNL     1       1.059   1.373  19.983  0.00  0.00    +0.000 HD
ENDBRANCH  16  24
ENDBRANCH   1  16
TORSDOF 5
ENDMDL
