MODEL 1
REMARK VINA RESULT:      -8.9      0.000      0.000
REMARK  Name = 
REMARK  7 active torsions:
REMARK  status: ('A' for Active; 'I' for Inactive)
REMARK    1  A    between atoms: C_1  and  C_2
REMARK    2  A    between atoms: C_2  and  C_3
REMARK    3  A    between atoms: C_7  and  C_8
REMARK    4  A    between atoms: N_14  and  C_15
REMARK    5  A    between atoms: C_19  and  C_20
REMARK    6  A    between atoms: C_20  and  C_21
REMARK    7  A    between atoms: C_21  and  C_22
REMARK                            x       y       z     vdW  Elec       q    Type
REMARK                         _______ _______ _______ _____ _____    ______ ____
ROOT
ATOM      1  C   UNL     1      -0.197  12.380  20.122  0.00  0.00    +0.000 A 
ATOM      2  C   UNL     1       0.539  11.777  19.097  0.00  0.00    +0.000 A 
ATOM      3  C   UNL     1       0.963  10.479  19.288  0.00  0.00    +0.000 A 
ATOM      4  C   UNL     1       0.686   9.753  20.444  0.00  0.00    +0.000 A 
ATOM      5  C   UNL     1      -0.024  10.333  21.490  0.00  0.00    +0.000 A 
ATOM      6  C   UNL     1      -0.465  11.660  21.309  0.00  0.00    +0.000 A 
ATOM      7  C   UNL     1       1.252   8.378  20.304  0.00  0.00    +0.000 C 
ATOM      8  N   UNL     1       1.905   8.410  19.002  0.00  0.00    +0.000 N 
ATOM      9  C   UNL     1       1.754   9.647  18.379  0.00  0.00    +0.000 C 
ATOM     10  O   UNL     1       2.142  10.053  17.301  0.00  0.00    +0.000 OA
ENDROOT
BRANCH   8  11
ATOM     11  C   UNL     1       2.623   7.303  18.489  0.00  0.00    +0.000 A 
ATOM     12  C   UNL     1       3.688   7.463  17.601  0.00  0.00    +0.000 A 
ATOM     13  C   UNL     1       4.401   6.359  17.140  0.00  0.00    +0.000 A 
ATOM     14  C   UNL     1       4.051   5.076  17.559  0.00  0.00    +0.000 A 
ATOM     15  C   UNL     1       2.981   4.853  18.443  0.00  0.00    +0.000 A 
ATOM     16  C   UNL     1       2.288   6.000  18.886  0.00  0.00    +0.000 A 
BRANCH  15  17
ATOM     17  C   UNL     1       2.573   3.392  18.946  0.00  0.00    +0.000 C 
ATOM     18  C   UNL     1       3.736   2.484  19.440  0.00  0.00    +0.000 C 
ATOM     19  O   UNL     1       3.211   1.353  18.705  0.00  0.00    +0.000 OA
ATOM     20  C   UNL     1       2.414   2.256  17.894  0.00  0.00    +0.000 C 
BRANCH  17  21
ATOM     21  C   UNL     1       1.420   3.461  19.972  0.00  0.00    +0.000 C 
BRANCH  21  22
ATOM     22  C   UNL     1       1.895   3.388  21.416  0.00  0.00    +0.000 C 
ATOM     23  F   UNL     1       1.193   2.436  22.085  0.00  0.00    +0.000 F 
ENDBRANCH  21  22
ENDBRANCH  17  21
ENDBRANCH  15  17
ENDBRANCH   8  11
BRANCH   5  24
ATOM     24  C   UNL     1      -0.312   9.614  22.781  0.00  0.00    +0.000 C 
ATOM     25  F   UNL     1       0.800   9.352  23.521  0.00  0.00    +0.000 F 
ATOM     26  F   UNL     1      -1.140  10.324  23.596  0.00  0.00    +0.000 F 
ATOM     27  F   UNL     1      -0.919   8.412  22.584  0.00  0.00    +0.000 F 
ENDBRANCH   5  24
BRANCH   1  29
ATOM     28  C   UNL     1      -0.147  14.398  18.661  0.00  0.00    +0.000 C 
ATOM     29  C   UNL     1      -0.640  13.813  19.975  0.00  0.00    +0.000 C 
ENDBRANCH   1  29
TORSDOF 6
ENDMDL
MODEL 2
REMARK VINA RESULT:      -8.8      2.519      3.604
REMARK  Name = 
REMARK  7 active torsions:
REMARK  status: ('A' for Active; 'I' for Inactive)
REMARK    1  A    between atoms: C_1  and  C_2
REMARK    2  A    between atoms: C_2  and  C_3
REMARK    3  A    between atoms: C_7  and  C_8
REMARK    4  A    between atoms: N_14  and  C_15
REMARK    5  A    between atoms: C_19  and  C_20
REMARK    6  A    between atoms: C_20  and  C_21
REMARK    7  A    between atoms: C_21  and  C_22
REMARK                            x       y       z     vdW  Elec       q    Type
REMARK                         _______ _______ _______ _____ _____    ______ ____
ROOT
ATOM      1  C   UNL     1      -0.042  11.823  19.637  0.00  0.00    +0.000 A 
ATOM      2  C   UNL     1       0.666  11.072  18.692  0.00  0.00    +0.000 A 
ATOM      3  C   UNL     1       1.102   9.818  19.065  0.00  0.00    +0.000 A 
ATOM      4  C   UNL     1       0.865   9.276  20.326  0.00  0.00    +0.000 A 
ATOM      5  C   UNL     1       0.185  10.008  21.294  0.00  0.00    +0.000 A 
ATOM      6  C   UNL     1      -0.270  11.292  20.927  0.00  0.00    +0.000 A 
ATOM      7  C   UNL     1       1.434   7.896  20.379  0.00  0.00    +0.000 C 
ATOM      8  N   UNL     1       2.046   7.730  19.067  0.00  0.00    +0.000 N 
ATOM      9  C   UNL     1       1.869   8.858  18.268  0.00  0.00    +0.000 C 
ATOM     10  O   UNL     1       2.221   9.096  17.129  0.00  0.00    +0.000 OA
ENDROOT
BRANCH   8  11
ATOM     11  C   UNL     1       2.754   6.559  18.706  0.00  0.00    +0.000 A 
ATOM     12  C   UNL     1       2.167   5.294  18.770  0.00  0.00    +0.000 A 
ATOM     13  C   UNL     1       2.876   4.161  18.375  0.00  0.00    +0.000 A 
ATOM     14  C   UNL     1       4.187   4.281  17.915  0.00  0.00    +0.000 A 
ATOM     15  C   UNL     1       4.833   5.528  17.841  0.00  0.00    +0.000 A 
ATOM     16  C   UNL     1       4.078   6.648  18.249  0.00  0.00    +0.000 A 
BRANCH  15  17
ATOM     17  C   UNL     1       6.330   5.689  17.304  0.00  0.00    +0.000 C 
ATOM     18  C   UNL     1       6.665   4.961  15.970  0.00  0.00    +0.000 C 
ATOM     19  O   UNL     1       7.912   4.467  16.513  0.00  0.00    +0.000 OA
ATOM     20  C   UNL     1       7.428   4.734  17.855  0.00  0.00    +0.000 C 
BRANCH  17  21
ATOM     21  C   UNL     1       6.750   7.175  17.271  0.00  0.00    +0.000 C 
BRANCH  21  22
ATOM     22  C   UNL     1       7.897   7.497  18.218  0.00  0.00    +0.000 C 
ATOM     23  F   UNL     1       8.452   8.690  17.880  0.00  0.00    +0.000 F 
ENDBRANCH  21  22
ENDBRANCH  17  21
ENDBRANCH  15  17
ENDBRANCH   8  11
BRANCH   5  24
ATOM     24  C   UNL     1      -0.060   9.493  22.688  0.00  0.00    +0.000 C 
ATOM     25  F   UNL     1       1.080   9.174  23.360  0.00  0.00    +0.000 F 
ATOM     26  F   UNL     1      -0.708  10.401  23.468  0.00  0.00    +0.000 F 
ATOM     27  F   UNL     1      -0.826   8.369  22.701  0.00  0.00    +0.000 F 
ENDBRANCH   5  24
BRANCH   1  29
ATOM     28  C   UNL     1      -1.452  13.753  20.341  0.00  0.00    +0.000 C 
ATOM     29  C   UNL     1      -0.497  13.216  19.287  0.00  0.00    +0.000 C 
ENDBRANCH   1  29
TORSDOF 6
ENDMDL
MODEL 3
REMARK VINA RESULT:      -8.7      2.414      3.434
REMARK  Name = 
REMARK  7 active torsions:
REMARK  status: ('A' for Active; 'I' for Inactive)
REMARK    1  A    between atoms: C_1  and  C_2
REMARK    2  A    between atoms: C_2  and  C_3
REMARK    3  A    between atoms: C_7  and  C_8
REMARK    4  A    between atoms: N_14  and  C_15
REMARK    5  A    between atoms: C_19  and  C_20
REMARK    6  A    between atoms: C_20  and  C_21
REMARK    7  A    between atoms: C_21  and  C_22
REMARK                            x       y       z     vdW  Elec       q    Type
REMARK                         _______ _______ _______ _____ _____    ______ ____
ROOT
ATOM      1  C   UNL     1      -0.027  11.633  19.299  0.00  0.00    +0.000 A 
ATOM      2  C   UNL     1       0.744  10.780  18.503  0.00  0.00    +0.000 A 
ATOM      3  C   UNL     1       1.178   9.597  19.064  0.00  0.00    +0.000 A 
ATOM      4  C   UNL     1       0.879   9.221  20.371  0.00  0.00    +0.000 A 
ATOM      5  C   UNL     1       0.134  10.060  21.194  0.00  0.00    +0.000 A 
ATOM      6  C   UNL     1      -0.319  11.273  20.635  0.00  0.00    +0.000 A 
ATOM      7  C   UNL     1       1.465   7.874  20.638  0.00  0.00    +0.000 C 
ATOM      8  N   UNL     1       2.153   7.549  19.395  0.00  0.00    +0.000 N 
ATOM      9  C   UNL     1       2.003   8.558  18.444  0.00  0.00    +0.000 C 
ATOM     10  O   UNL     1       2.415   8.650  17.305  0.00  0.00    +0.000 OA
ENDROOT
BRANCH   8  11
ATOM     11  C   UNL     1       2.898   6.357  19.233  0.00  0.00    +0.000 A 
ATOM     12  C   UNL     1       2.665   5.230  20.021  0.00  0.00    +0.000 A 
ATOM     13  C   UNL     1       3.389   4.057  19.816  0.00  0.00    +0.000 A 
ATOM     14  C   UNL     1       4.363   4.002  18.820  0.00  0.00    +0.000 A 
ATOM     15  C   UNL     1       4.649   5.110  18.004  0.00  0.00    +0.000 A 
ATOM     16  C   UNL     1       3.891   6.276  18.245  0.00  0.00    +0.000 A 
BRANCH  15  17
ATOM     17  C   UNL     1       5.752   5.063  16.847  0.00  0.00    +0.000 C 
ATOM     18  C   UNL     1       5.465   5.930  15.587  0.00  0.00    +0.000 C 
ATOM     19  O   UNL     1       5.857   4.847  14.711  0.00  0.00    +0.000 OA
ATOM     20  C   UNL     1       5.694   3.908  15.806  0.00  0.00    +0.000 C 
BRANCH  17  21
ATOM     21  C   UNL     1       7.164   5.323  17.417  0.00  0.00    +0.000 C 
BRANCH  21  22
ATOM     22  C   UNL     1       7.453   6.797  17.659  0.00  0.00    +0.000 C 
ATOM     23  F   UNL     1       8.208   6.941  18.779  0.00  0.00    +0.000 F 
ENDBRANCH  21  22
ENDBRANCH  17  21
ENDBRANCH  15  17
ENDBRANCH   8  11
BRANCH   5  24
ATOM     24  C   UNL     1      -0.181   9.729  22.629  0.00  0.00    +0.000 C 
ATOM     25  F   UNL     1      -0.856  10.714  23.281  0.00  0.00    +0.000 F 
ATOM     26  F   UNL     1      -0.951   8.612  22.746  0.00  0.00    +0.000 F 
ATOM     27  F   UNL     1       0.938   9.493  23.367  0.00  0.00    +0.000 F 
ENDBRANCH   5  24
BRANCH   1  29
ATOM     28  C   UNL     1       0.629  13.990  18.825  0.00  0.00    +0.000 C 
ATOM     29  C   UNL     1      -0.483  12.957  18.743  0.00  0.00    +0.000 C 
ENDBRANCH   1  29
TORSDOF 6
ENDMDL
MODEL 4
REMARK VINA RESULT:      -8.7      3.233      4.608
REMARK  Name = 
REMARK  7 active torsions:
REMARK  status: ('A' for Active; 'I' for Inactive)
REMARK    1  A    between atoms: C_1  and  C_2
REMARK    2  A    between atoms: C_2  and  C_3
REMARK    3  A    between atoms: C_7  and  C_8
REMARK    4  A    between atoms: N_14  and  C_15
REMARK    5  A    between atoms: C_19  and  C_20
REMARK    6  A    between atoms: C_20  and  C_21
REMARK    7  A    between atoms: C_21  and  C_22
REMARK                            x       y       z     vdW  Elec       q    Type
REMARK                         _______ _______ _______ _____ _____    ______ ____
ROOT
ATOM      1  C   UNL     1       0.244   9.445  22.034  0.00  0.00    +0.000 A 
ATOM      2  C   UNL     1       0.751   8.145  21.933  0.00  0.00    +0.000 A 
ATOM      3  C   UNL     1       1.334   7.775  20.740  0.00  0.00    +0.000 A 
ATOM      4  C   UNL     1       1.441   8.633  19.648  0.00  0.00    +0.000 A 
ATOM      5  C   UNL     1       0.925   9.923  19.710  0.00  0.00    +0.000 A 
ATOM      6  C   UNL     1       0.327  10.318  20.925  0.00  0.00    +0.000 A 
ATOM      7  C   UNL     1       2.157   7.929  18.542  0.00  0.00    +0.000 C 
ATOM      8  N   UNL     1       2.399   6.599  19.086  0.00  0.00    +0.000 N 
ATOM      9  C   UNL     1       1.916   6.478  20.387  0.00  0.00    +0.000 C 
ATOM     10  O   UNL     1       1.935   5.543  21.164  0.00  0.00    +0.000 OA
ENDROOT
BRANCH   8  11
ATOM     11  C   UNL     1       3.023   5.577  18.332  0.00  0.00    +0.000 A 
ATOM     12  C   UNL     1       2.333   4.433  17.930  0.00  0.00    +0.000 A 
ATOM     13  C   UNL     1       2.962   3.458  17.158  0.00  0.00    +0.000 A 
ATOM     14  C   UNL     1       4.295   3.615  16.783  0.00  0.00    +0.000 A 
ATOM     15  C   UNL     1       5.044   4.741  17.169  0.00  0.00    +0.000 A 
ATOM     16  C   UNL     1       4.367   5.703  17.948  0.00  0.00    +0.000 A 
BRANCH  15  17
ATOM     17  C   UNL     1       6.569   4.948  16.738  0.00  0.00    +0.000 C 
ATOM     18  C   UNL     1       6.935   6.338  16.144  0.00  0.00    +0.000 C 
ATOM     19  O   UNL     1       7.699   5.721  15.081  0.00  0.00    +0.000 OA
ATOM     20  C   UNL     1       7.020   4.462  15.330  0.00  0.00    +0.000 C 
BRANCH  17  21
ATOM     21  C   UNL     1       7.527   4.538  17.878  0.00  0.00    +0.000 C 
BRANCH  21  22
ATOM     22  C   UNL     1       7.875   5.686  18.814  0.00  0.00    +0.000 C 
ATOM     23  F   UNL     1       7.130   5.599  19.947  0.00  0.00    +0.000 F 
ENDBRANCH  21  22
ENDBRANCH  17  21
ENDBRANCH  15  17
ENDBRANCH   8  11
BRANCH   5  24
ATOM     24  C   UNL     1       0.969  10.879  18.547  0.00  0.00    +0.000 C 
ATOM     25  F   UNL     1       0.461  12.109  18.832  0.00  0.00    +0.000 F 
ATOM     26  F   UNL     1       2.237  11.096  18.103  0.00  0.00    +0.000 F 
ATOM     27  F   UNL     1       0.266  10.426  17.473  0.00  0.00    +0.000 F 
ENDBRANCH   5  24
BRANCH   1  29
ATOM     28  C   UNL     1      -1.282  11.123  23.066  0.00  0.00    +0.000 C 
ATOM     29  C   UNL     1      -0.443   9.878  23.304  0.00  0.00    +0.000 C 
ENDBRANCH   1  29
TORSDOF 6
ENDMDL
MODEL 5
REMARK VINA RESULT:      -8.6      2.484      3.648
REMARK  Name = 
REMARK  7 active torsions:
REMARK  status: ('A' for Active; 'I' for Inactive)
REMARK    1  A    between atoms: C_1  and  C_2
REMARK    2  A    between atoms: C_2  and  C_3
REMARK    3  A    between atoms: C_7  and  C_8
REMARK    4  A    between atoms: N_14  and  C_15
REMARK    5  A    between atoms: C_19  and  C_20
REMARK    6  A    between atoms: C_20  and  C_21
REMARK    7  A    between atoms: C_21  and  C_22
REMARK                            x       y       z     vdW  Elec       q    Type
REMARK                         _______ _______ _______ _____ _____    ______ ____
ROOT
ATOM      1  C   UNL     1      -0.143  11.940  19.667  0.00  0.00    +0.000 A 
ATOM      2  C   UNL     1       0.584  11.216  18.716  0.00  0.00    +0.000 A 
ATOM      3  C   UNL     1       1.030   9.960  19.070  0.00  0.00    +0.000 A 
ATOM      4  C   UNL     1       0.786   9.390  20.317  0.00  0.00    +0.000 A 
ATOM      5  C   UNL     1       0.086  10.095  21.291  0.00  0.00    +0.000 A 
ATOM      6  C   UNL     1      -0.379  11.381  20.944  0.00  0.00    +0.000 A 
ATOM      7  C   UNL     1       1.370   8.016  20.349  0.00  0.00    +0.000 C 
ATOM      8  N   UNL     1       1.999   7.883  19.042  0.00  0.00    +0.000 N 
ATOM      9  C   UNL     1       1.817   9.025  18.263  0.00  0.00    +0.000 C 
ATOM     10  O   UNL     1       2.180   9.289  17.133  0.00  0.00    +0.000 OA
ENDROOT
BRANCH   8  11
ATOM     11  C   UNL     1       2.725   6.728  18.666  0.00  0.00    +0.000 A 
ATOM     12  C   UNL     1       2.089   5.520  18.377  0.00  0.00    +0.000 A 
ATOM     13  C   UNL     1       2.825   4.407  17.975  0.00  0.00    +0.000 A 
ATOM     14  C   UNL     1       4.212   4.490  17.863  0.00  0.00    +0.000 A 
ATOM     15  C   UNL     1       4.908   5.677  18.152  0.00  0.00    +0.000 A 
ATOM     16  C   UNL     1       4.122   6.779  18.554  0.00  0.00    +0.000 A 
BRANCH  15  17
ATOM     17  C   UNL     1       6.496   5.797  18.016  0.00  0.00    +0.000 C 
ATOM     18  C   UNL     1       7.246   4.516  17.548  0.00  0.00    +0.000 C 
ATOM     19  O   UNL     1       8.261   4.698  18.564  0.00  0.00    +0.000 OA
ATOM     20  C   UNL     1       7.373   5.590  19.286  0.00  0.00    +0.000 C 
BRANCH  17  21
ATOM     21  C   UNL     1       6.889   7.033  17.178  0.00  0.00    +0.000 C 
BRANCH  21  22
ATOM     22  C   UNL     1       7.904   7.931  17.870  0.00  0.00    +0.000 C 
ATOM     23  F   UNL     1       7.596   9.235  17.643  0.00  0.00    +0.000 F 
ENDBRANCH  21  22
ENDBRANCH  17  21
ENDBRANCH  15  17
ENDBRANCH   8  11
BRANCH   5  24
ATOM     24  C   UNL     1      -0.168   9.550  22.672  0.00  0.00    +0.000 C 
ATOM     25  F   UNL     1      -0.887   8.395  22.679  0.00  0.00    +0.000 F 
ATOM     26  F   UNL     1       0.986   9.272  23.338  0.00  0.00    +0.000 F 
ATOM     27  F   UNL     1      -0.856  10.422  23.458  0.00  0.00    +0.000 F 
ENDBRANCH   5  24
BRANCH   1  29
ATOM     28  C   UNL     1       0.569  14.237  19.014  0.00  0.00    +0.000 C 
ATOM     29  C   UNL     1      -0.611  13.335  19.340  0.00  0.00    +0.000 C 
ENDBRANCH   1  29
TORSDOF 6
ENDMDL
MODEL 6
REMARK VINA RESULT:      -8.6      2.602      3.605
REMARK  Name = 
REMARK  7 active torsions:
REMARK  status: ('A' for Active; 'I' for Inactive)
REMARK    1  A    between atoms: C_1  and  C_2
REMARK    2  A    between atoms: C_2  and  C_3
REMARK    3  A    between atoms: C_7  and  C_8
REMARK    4  A    between atoms: N_14  and  C_15
REMARK    5  A    between atoms: C_19  and  C_20
REMARK    6  A    between atoms: C_20  and  C_21
REMARK    7  A    between atoms: C_21  and  C_22
REMARK                            x       y       z     vdW  Elec       q    Type
REMARK                         _______ _______ _______ _____ _____    ______ ____
ROOT
ATOM      1  C   UNL     1       0.013  11.722  19.485  0.00  0.00    +0.000 A 
ATOM      2  C   UNL     1       0.753  10.870  18.658  0.00  0.00    +0.000 A 
ATOM      3  C   UNL     1       1.149   9.656  19.177  0.00  0.00    +0.000 A 
ATOM      4  C   UNL     1       0.842   9.247  20.472  0.00  0.00    +0.000 A 
ATOM      5  C   UNL     1       0.127  10.081  21.326  0.00  0.00    +0.000 A 
ATOM      6  C   UNL     1      -0.287  11.327  20.809  0.00  0.00    +0.000 A 
ATOM      7  C   UNL     1       1.383   7.872  20.692  0.00  0.00    +0.000 C 
ATOM      8  N   UNL     1       2.057   7.567  19.436  0.00  0.00    +0.000 N 
ATOM      9  C   UNL     1       1.938   8.611  18.520  0.00  0.00    +0.000 C 
ATOM     10  O   UNL     1       2.350   8.728  17.382  0.00  0.00    +0.000 OA
ENDROOT
BRANCH   8  11
ATOM     11  C   UNL     1       2.762   6.357  19.231  0.00  0.00    +0.000 A 
ATOM     12  C   UNL     1       2.422   5.184  19.905  0.00  0.00    +0.000 A 
ATOM     13  C   UNL     1       3.110   3.998  19.658  0.00  0.00    +0.000 A 
ATOM     14  C   UNL     1       4.154   3.974  18.734  0.00  0.00    +0.000 A 
ATOM     15  C   UNL     1       4.547   5.128  18.034  0.00  0.00    +0.000 A 
ATOM     16  C   UNL     1       3.822   6.306  18.314  0.00  0.00    +0.000 A 
BRANCH  15  17
ATOM     17  C   UNL     1       5.731   5.119  16.960  0.00  0.00    +0.000 C 
ATOM     18  C   UNL     1       7.176   5.227  17.527  0.00  0.00    +0.000 C 
ATOM     19  O   UNL     1       7.535   6.204  16.521  0.00  0.00    +0.000 OA
ATOM     20  C   UNL     1       6.128   6.459  16.273  0.00  0.00    +0.000 C 
BRANCH  17  21
ATOM     21  C   UNL     1       5.583   3.934  15.981  0.00  0.00    +0.000 C 
BRANCH  21  22
ATOM     22  C   UNL     1       5.544   4.360  14.521  0.00  0.00    +0.000 C 
ATOM     23  F   UNL     1       6.733   4.080  13.927  0.00  0.00    +0.000 F 
ENDBRANCH  21  22
ENDBRANCH  17  21
ENDBRANCH  15  17
ENDBRANCH   8  11
BRANCH   5  24
ATOM     24  C   UNL     1      -0.194   9.713  22.750  0.00  0.00    +0.000 C 
ATOM     25  F   UNL     1      -0.950   8.588  22.866  0.00  0.00    +0.000 F 
ATOM     26  F   UNL     1       0.926   9.484  23.490  0.00  0.00    +0.000 F 
ATOM     27  F   UNL     1      -0.881  10.692  23.399  0.00  0.00    +0.000 F 
ENDBRANCH   5  24
BRANCH   1  29
ATOM     28  C   UNL     1       0.810  13.981  18.799  0.00  0.00    +0.000 C 
ATOM     29  C   UNL     1      -0.401  13.078  18.975  0.00  0.00    +0.000 C 
ENDBRANCH   1  29
TORSDOF 6
ENDMDL
MODEL 7
REMARK VINA RESULT:      -8.5      2.682      3.697
REMARK  Name = 
REMARK  7 active torsions:
REMARK  status: ('A' for Active; 'I' for Inactive)
REMARK    1  A    between atoms: C_1  and  C_2
REMARK    2  A    between atoms: C_2  and  C_3
REMARK    3  A    between atoms: C_7  and  C_8
REMARK    4  A    between atoms: N_14  and  C_15
REMARK    5  A    between atoms: C_19  and  C_20
REMARK    6  A    between atoms: C_20  and  C_21
REMARK    7  A    between atoms: C_21  and  C_22
REMARK                            x       y       z     vdW  Elec       q    Type
REMARK                         _______ _______ _______ _____ _____    ______ ____
ROOT
ATOM      1  C   UNL     1      -0.041  11.850  19.560  0.00  0.00    +0.000 A 
ATOM      2  C   UNL     1       0.684  11.087  18.638  0.00  0.00    +0.000 A 
ATOM      3  C   UNL     1       1.119   9.841  19.038  0.00  0.00    +0.000 A 
ATOM      4  C   UNL     1       0.863   9.317  20.303  0.00  0.00    +0.000 A 
ATOM      5  C   UNL     1       0.164  10.061  21.248  0.00  0.00    +0.000 A 
ATOM      6  C   UNL     1      -0.288  11.338  20.854  0.00  0.00    +0.000 A 
ATOM      7  C   UNL     1       1.436   7.940  20.386  0.00  0.00    +0.000 C 
ATOM      8  N   UNL     1       2.070   7.756  19.087  0.00  0.00    +0.000 N 
ATOM      9  C   UNL     1       1.902   8.872  18.269  0.00  0.00    +0.000 C 
ATOM     10  O   UNL     1       2.272   9.093  17.132  0.00  0.00    +0.000 OA
ENDROOT
BRANCH   8  11
ATOM     11  C   UNL     1       2.789   6.583  18.756  0.00  0.00    +0.000 A 
ATOM     12  C   UNL     1       2.162   5.340  18.654  0.00  0.00    +0.000 A 
ATOM     13  C   UNL     1       2.887   4.207  18.292  0.00  0.00    +0.000 A 
ATOM     14  C   UNL     1       4.253   4.303  18.032  0.00  0.00    +0.000 A 
ATOM     15  C   UNL     1       4.939   5.527  18.131  0.00  0.00    +0.000 A 
ATOM     16  C   UNL     1       4.166   6.648  18.499  0.00  0.00    +0.000 A 
BRANCH  15  17
ATOM     17  C   UNL     1       6.502   5.662  17.823  0.00  0.00    +0.000 C 
ATOM     18  C   UNL     1       7.437   5.811  19.059  0.00  0.00    +0.000 C 
ATOM     19  O   UNL     1       8.175   6.876  18.415  0.00  0.00    +0.000 OA
ATOM     20  C   UNL     1       7.078   7.067  17.483  0.00  0.00    +0.000 C 
BRANCH  17  21
ATOM     21  C   UNL     1       6.979   4.542  16.872  0.00  0.00    +0.000 C 
BRANCH  21  22
ATOM     22  C   UNL     1       6.510   4.731  15.437  0.00  0.00    +0.000 C 
ATOM     23  F   UNL     1       7.537   5.186  14.673  0.00  0.00    +0.000 F 
ENDBRANCH  21  22
ENDBRANCH  17  21
ENDBRANCH  15  17
ENDBRANCH   8  11
BRANCH   5  24
ATOM     24  C   UNL     1      -0.101   9.567  22.645  0.00  0.00    +0.000 C 
ATOM     25  F   UNL     1      -0.737  10.475  23.435  0.00  0.00    +0.000 F 
ATOM     26  F   UNL     1      -0.883   8.452  22.661  0.00  0.00    +0.000 F 
ATOM     27  F   UNL     1       1.041   9.234  23.307  0.00  0.00    +0.000 F 
ENDBRANCH   5  24
BRANCH   1  29
ATOM     28  C   UNL     1       0.691  14.113  18.819  0.00  0.00    +0.000 C 
ATOM     29  C   UNL     1      -0.496  13.236  19.182  0.00  0.00    +0.000 C 
ENDBRANCH   1  29
TORSDOF 6
ENDMDL
MODEL 8
REMARK VINA RESULT:      -8.5      2.511      3.565
REMARK  Name = 
REMARK  7 active torsions:
REMARK  status: ('A' for Active; 'I' for Inactive)
REMARK    1  A    between atoms: C_1  and  C_2
REMARK    2  A    between atoms: C_2  and  C_3
REMARK    3  A    between atoms: C_7  and  C_8
REMARK    4  A    between atoms: N_14  and  C_15
REMARK    5  A    between atoms: C_19  and  C_20
REMARK    6  A    between atoms: C_20  and  C_21
REMARK    7  A    between atoms: C_21  and  C_22
REMARK                            x       y       z     vdW  Elec       q    Type
REMARK                         _______ _______ _______ _____ _____    ______ ____
ROOT
ATOM      1  C   UNL     1      -0.050  11.960  19.647  0.00  0.00    +0.000 A 
ATOM      2  C   UNL     1       0.672  11.159  18.756  0.00  0.00    +0.000 A 
ATOM      3  C   UNL     1       1.051   9.904  19.183  0.00  0.00    +0.000 A 
ATOM      4  C   UNL     1       0.744   9.407  20.448  0.00  0.00    +0.000 A 
ATOM      5  C   UNL     1       0.047  10.189  21.364  0.00  0.00    +0.000 A 
ATOM      6  C   UNL     1      -0.349  11.475  20.941  0.00  0.00    +0.000 A 
ATOM      7  C   UNL     1       1.265   8.012  20.564  0.00  0.00    +0.000 C 
ATOM      8  N   UNL     1       1.926   7.788  19.286  0.00  0.00    +0.000 N 
ATOM      9  C   UNL     1       1.820   8.897  18.448  0.00  0.00    +0.000 C 
ATOM     10  O   UNL     1       2.228   9.090  17.319  0.00  0.00    +0.000 OA
ENDROOT
BRANCH   8  11
ATOM     11  C   UNL     1       2.611   6.585  18.990  0.00  0.00    +0.000 A 
ATOM     12  C   UNL     1       2.163   5.349  19.456  0.00  0.00    +0.000 A 
ATOM     13  C   UNL     1       2.836   4.176  19.120  0.00  0.00    +0.000 A 
ATOM     14  C   UNL     1       3.972   4.228  18.314  0.00  0.00    +0.000 A 
ATOM     15  C   UNL     1       4.476   5.447  17.825  0.00  0.00    +0.000 A 
ATOM     16  C   UNL     1       3.763   6.608  18.189  0.00  0.00    +0.000 A 
BRANCH  15  17
ATOM     17  C   UNL     1       5.770   5.527  16.889  0.00  0.00    +0.000 C 
ATOM     18  C   UNL     1       6.957   4.598  17.274  0.00  0.00    +0.000 C 
ATOM     19  O   UNL     1       7.906   5.673  17.079  0.00  0.00    +0.000 OA
ATOM     20  C   UNL     1       6.824   6.638  17.165  0.00  0.00    +0.000 C 
BRANCH  17  21
ATOM     21  C   UNL     1       5.386   5.384  15.400  0.00  0.00    +0.000 C 
BRANCH  21  22
ATOM     22  C   UNL     1       5.839   4.068  14.785  0.00  0.00    +0.000 C 
ATOM     23  F   UNL     1       5.490   4.028  13.473  0.00  0.00    +0.000 F 
ENDBRANCH  21  22
ENDBRANCH  17  21
ENDBRANCH  15  17
ENDBRANCH   8  11
BRANCH   5  24
ATOM     24  C   UNL     1      -0.272   9.724  22.760  0.00  0.00    +0.000 C 
ATOM     25  F   UNL     1      -1.014  10.613  23.475  0.00  0.00    +0.000 F 
ATOM     26  F   UNL     1      -0.979   8.561  22.769  0.00  0.00    +0.000 F 
ATOM     27  F   UNL     1       0.845   9.491  23.501  0.00  0.00    +0.000 F 
ENDBRANCH   5  24
BRANCH   1  29
ATOM     28  C   UNL     1      -1.273  14.022  20.324  0.00  0.00    +0.000 C 
ATOM     29  C   UNL     1      -0.444  13.356  19.238  0.00  0.00    +0.000 C 
ENDBRANCH   1  29
TORSDOF 6
ENDMDL
MODEL 9
REMARK VINA RESULT:      -8.3      3.066      8.187
REMARK  Name = 
REMARK  7 active torsions:
REMARK  status: ('A' for Active; 'I' for Inactive)
REMARK    1  A    between atoms: C_1  and  C_2
REMARK    2  A    between atoms: C_2  and  C_3
REMARK    3  A    between atoms: C_7  and  C_8
REMARK    4  A    between atoms: N_14  and  C_15
REMARK    5  A    between atoms: C_19  and  C_20
REMARK    6  A    between atoms: C_20  and  C_21
REMARK    7  A    between atoms: C_21  and  C_22
REMARK                            x       y       z     vdW  Elec       q    Type
REMARK                         _______ _______ _______ _____ _____    ______ ____
ROOT
ATOM      1  C   UNL     1       5.278   4.772  16.060  0.00  0.00    +0.000 A 
ATOM      2  C   UNL     1       4.902   6.071  16.421  0.00  0.00    +0.000 A 
ATOM      3  C   UNL     1       3.942   6.212  17.402  0.00  0.00    +0.000 A 
ATOM      4  C   UNL     1       3.345   5.129  18.042  0.00  0.00    +0.000 A 
ATOM      5  C   UNL     1       3.682   3.826  17.688  0.00  0.00    +0.000 A 
ATOM      6  C   UNL     1       4.663   3.665  16.687  0.00  0.00    +0.000 A 
ATOM      7  C   UNL     1       2.389   5.636  19.071  0.00  0.00    +0.000 C 
ATOM      8  N   UNL     1       2.465   7.083  18.923  0.00  0.00    +0.000 N 
ATOM      9  C   UNL     1       3.376   7.453  17.935  0.00  0.00    +0.000 C 
ATOM     10  O   UNL     1       3.718   8.548  17.530  0.00  0.00    +0.000 OA
ENDROOT
BRANCH   8  11
ATOM     11  C   UNL     1       1.666   7.964  19.689  0.00  0.00    +0.000 A 
ATOM     12  C   UNL     1       1.638   7.910  21.083  0.00  0.00    +0.000 A 
ATOM     13  C   UNL     1       0.869   8.813  21.814  0.00  0.00    +0.000 A 
ATOM     14  C   UNL     1       0.112   9.781  21.155  0.00  0.00    +0.000 A 
ATOM     15  C   UNL     1       0.092   9.876  19.752  0.00  0.00    +0.000 A 
ATOM     16  C   UNL     1       0.887   8.942  19.053  0.00  0.00    +0.000 A 
BRANCH  15  17
ATOM     17  C   UNL     1      -0.757  10.987  18.978  0.00  0.00    +0.000 C 
ATOM     18  C   UNL     1      -0.047  12.349  18.733  0.00  0.00    +0.000 C 
ATOM     19  O   UNL     1      -1.229  13.078  19.142  0.00  0.00    +0.000 OA
ATOM     20  C   UNL     1      -1.735  11.883  19.794  0.00  0.00    +0.000 C 
BRANCH  17  21
ATOM     21  C   UNL     1      -1.368  10.413  17.681  0.00  0.00    +0.000 C 
BRANCH  21  22
ATOM     22  C   UNL     1      -2.859  10.129  17.792  0.00  0.00    +0.000 C 
ATOM     23  F   UNL     1      -3.272   9.408  16.717  0.00  0.00    +0.000 F 
ENDBRANCH  21  22
ENDBRANCH  17  21
ENDBRANCH  15  17
ENDBRANCH   8  11
BRANCH   5  24
ATOM     24  C   UNL     1       3.036   2.616  18.311  0.00  0.00    +0.000 C 
ATOM     25  F   UNL     1       3.174   2.559  19.664  0.00  0.00    +0.000 F 
ATOM     26  F   UNL     1       1.697   2.564  18.073  0.00  0.00    +0.000 F 
ATOM     27  F   UNL     1       3.549   1.449  17.835  0.00  0.00    +0.000 F 
ENDBRANCH   5  24
BRANCH   1  29
ATOM     28  C   UNL     1       5.629   3.989  13.721  0.00  0.00    +0.000 C 
ATOM     29  C   UNL     1       6.288   4.571  14.961  0.00  0.00    +0.000 C 
ENDBRANCH   1  29
TORSDOF 6
ENDMDL
