MODEL 1
REMARK VINA RESULT:      -8.2      0.000      0.000
REMARK  Name = 
REMARK  5 active torsions:
REMARK  status: ('A' for Active; 'I' for Inactive)
REMARK    1  A    between atoms: C_2  and  C_17
REMARK    2  A    between atoms: N_3  and  C_4
REMARK    3  A    between atoms: C_8  and  O_9
REMARK    4  A    between atoms: O_9  and  C_10
REMARK    5  A    between atoms: C_23  and  C_25
REMARK                            x       y       z     vdW  Elec       q    Type
REMARK                         _______ _______ _______ _____ _____    ______ ____
ROOT
ATOM      1  O   UNL     1       2.175   7.889  18.890  0.00  0.00    +0.000 OA
ATOM      2  C   UNL     1       1.777   7.632  20.020  0.00  0.00    +0.000 C 
ATOM      3  N   UNL     1       1.745   6.385  20.632  0.00  0.00    +0.000 N 
ATOM      4  H   UNL     1       1.202   6.294  21.481  0.00  0.00    +0.000 HD
ENDROOT
BRANCH   2   5
ATOM      5  C   UNL     1       1.200   8.750  20.812  0.00  0.00    +0.000 A 
ATOM      6  C   UNL     1       0.941   8.598  22.170  0.00  0.00    +0.000 A 
ATOM      7  C   UNL     1       0.412   9.682  22.831  0.00  0.00    +0.000 A 
ATOM      8  N   UNL     1       0.138  10.858  22.231  0.00  0.00    +0.000 NA
ATOM      9  C   UNL     1       0.411  11.014  20.925  0.00  0.00    +0.000 A 
ATOM     10  N   UNL     1       0.127  12.241  20.291  0.00  0.00    +0.000 N 
ATOM     11  C   UNL     1      -0.445  13.323  20.937  0.00  0.00    +0.000 C 
ATOM     12  O   UNL     1      -0.758  13.397  22.117  0.00  0.00    +0.000 OA
ATOM     13  C   UNL     1       0.957   9.980  20.178  0.00  0.00    +0.000 A 
ATOM     14  H   UNL     1       0.347  12.324  19.312  0.00  0.00    +0.000 HD
BRANCH  11  15
ATOM     15  C   UNL     1      -0.715  14.540  20.109  0.00  0.00    +0.000 C 
ATOM     16  C   UNL     1      -0.040  14.829  18.793  0.00  0.00    +0.000 C 
ATOM     17  C   UNL     1       0.243  15.697  19.988  0.00  0.00    +0.000 C 
ENDBRANCH  11  15
ENDBRANCH   2   5
BRANCH   3  18
ATOM     18  C   UNL     1       2.230   5.175  20.081  0.00  0.00    +0.000 A 
ATOM     19  C   UNL     1       1.388   4.126  19.707  0.00  0.00    +0.000 A 
ATOM     20  C   UNL     1       1.915   2.920  19.248  0.00  0.00    +0.000 A 
ATOM     21  C   UNL     1       3.291   2.755  19.144  0.00  0.00    +0.000 A 
ATOM     22  C   UNL     1       4.147   3.823  19.423  0.00  0.00    +0.000 A 
ATOM     23  C   UNL     1       3.616   5.026  19.909  0.00  0.00    +0.000 A 
BRANCH  22  24
ATOM     24  O   UNL     1       5.524   3.735  19.330  0.00  0.00    +0.000 OA
BRANCH  24  25
ATOM     25  C   UNL     1       6.206   4.766  18.688  0.00  0.00    +0.000 A 
ATOM     26  C   UNL     1       5.824   5.059  17.387  0.00  0.00    +0.000 A 
ATOM     27  C   UNL     1       6.474   6.102  16.725  0.00  0.00    +0.000 A 
ATOM     28  C   UNL     1       7.475   6.807  17.382  0.00  0.00    +0.000 A 
ATOM     29  C   UNL     1       7.805   6.425  18.673  0.00  0.00    +0.000 A 
ATOM     30  N   UNL     1       7.206   5.411  19.330  0.00  0.00    +0.000 NA
ENDBRANCH  24  25
ENDBRANCH  22  24
ENDBRANCH   3  18
TORSDOF 5
ENDMDL
MODEL 2
REMARK VINA RESULT:      -8.1      1.264      1.523
REMARK  Name = 
REMARK  5 active torsions:
REMARK  status: ('A' for Active; 'I' for Inactive)
REMARK    1  A    between atoms: C_2  and  C_17
REMARK    2  A    between atoms: N_3  and  C_4
REMARK    3  A    between atoms: C_8  and  O_9
REMARK    4  A    between atoms: O_9  and  C_10
REMARK    5  A    between atoms: C_23  and  C_25
REMARK                            x       y       z     vdW  Elec       q    Type
REMARK                         _______ _______ _______ _____ _____    ______ ____
ROOT
ATOM      1  O   UNL     1       2.131   7.885  18.957  0.00  0.00    +0.000 OA
ATOM      2  C   UNL     1       1.726   7.552  20.063  0.00  0.00    +0.000 C 
ATOM      3  N   UNL     1       1.722   6.272  20.604  0.00  0.00    +0.000 N 
ATOM      4  H   UNL     1       1.169   6.117  21.438  0.00  0.00    +0.000 HD
ENDROOT
BRANCH   2   5
ATOM      5  C   UNL     1       1.104   8.606  20.908  0.00  0.00    +0.000 A 
ATOM      6  C   UNL     1       1.404   8.699  22.263  0.00  0.00    +0.000 A 
ATOM      7  C   UNL     1       0.790   9.706  22.972  0.00  0.00    +0.000 A 
ATOM      8  N   UNL     1      -0.070  10.585  22.422  0.00  0.00    +0.000 NA
ATOM      9  C   UNL     1      -0.342  10.513  21.107  0.00  0.00    +0.000 A 
ATOM     10  N   UNL     1      -1.241  11.428  20.526  0.00  0.00    +0.000 N 
ATOM     11  C   UNL     1      -1.896  12.417  21.238  0.00  0.00    +0.000 C 
ATOM     12  O   UNL     1      -1.785  12.664  22.431  0.00  0.00    +0.000 OA
ATOM     13  C   UNL     1       0.239   9.537  20.309  0.00  0.00    +0.000 A 
ATOM     14  H   UNL     1      -1.418  11.347  19.538  0.00  0.00    +0.000 HD
BRANCH  11  15
ATOM     15  C   UNL     1      -2.847  13.285  20.475  0.00  0.00    +0.000 C 
ATOM     16  C   UNL     1      -3.882  14.170  21.122  0.00  0.00    +0.000 C 
ATOM     17  C   UNL     1      -4.314  12.977  20.315  0.00  0.00    +0.000 C 
ENDBRANCH  11  15
ENDBRANCH   2   5
BRANCH   3  18
ATOM     18  C   UNL     1       2.250   5.110  19.994  0.00  0.00    +0.000 A 
ATOM     19  C   UNL     1       1.443   4.076  19.516  0.00  0.00    +0.000 A 
ATOM     20  C   UNL     1       2.010   2.912  18.999  0.00  0.00    +0.000 A 
ATOM     21  C   UNL     1       3.392   2.775  18.942  0.00  0.00    +0.000 A 
ATOM     22  C   UNL     1       4.216   3.835  19.327  0.00  0.00    +0.000 A 
ATOM     23  C   UNL     1       3.645   4.994  19.871  0.00  0.00    +0.000 A 
BRANCH  22  24
ATOM     24  O   UNL     1       5.597   3.774  19.287  0.00  0.00    +0.000 OA
BRANCH  24  25
ATOM     25  C   UNL     1       6.283   4.830  18.689  0.00  0.00    +0.000 A 
ATOM     26  C   UNL     1       5.912   5.172  17.398  0.00  0.00    +0.000 A 
ATOM     27  C   UNL     1       6.566   6.239  16.781  0.00  0.00    +0.000 A 
ATOM     28  C   UNL     1       7.561   6.919  17.472  0.00  0.00    +0.000 A 
ATOM     29  C   UNL     1       7.881   6.489  18.749  0.00  0.00    +0.000 A 
ATOM     30  N   UNL     1       7.279   5.450  19.363  0.00  0.00    +0.000 NA
ENDBRANCH  24  25
ENDBRANCH  22  24
ENDBRANCH   3  18
TORSDOF 5
ENDMDL
MODEL 3
REMARK VINA RESULT:      -8.1      0.913      1.112
REMARK  Name = 
REMARK  5 active torsions:
REMARK  status: ('A' for Active; 'I' for Inactive)
REMARK    1  A    between atoms: C_2  and  C_17
REMARK    2  A    between atoms: N_3  and  C_4
REMARK    3  A    between atoms: C_8  and  O_9
REMARK    4  A    between atoms: O_9  and  C_10
REMARK    5  A    between atoms: C_23  and  C_25
REMARK                            x       y       z     vdW  Elec       q    Type
REMARK                         _______ _______ _______ _____ _____    ______ ____
ROOT
ATOM      1  O   UNL     1       2.160   7.792  19.124  0.00  0.00    +0.000 OA
ATOM      2  C   UNL     1       1.659   7.630  20.229  0.00  0.00    +0.000 C 
ATOM      3  N   UNL     1       1.466   6.425  20.893  0.00  0.00    +0.000 N 
ATOM      4  H   UNL     1       0.855   6.427  21.700  0.00  0.00    +0.000 HD
ENDROOT
BRANCH   2   5
ATOM      5  C   UNL     1       1.131   8.835  20.922  0.00  0.00    +0.000 A 
ATOM      6  C   UNL     1       0.527   8.729  22.171  0.00  0.00    +0.000 A 
ATOM      7  C   UNL     1       0.070   9.892  22.746  0.00  0.00    +0.000 A 
ATOM      8  N   UNL     1       0.179  11.102  22.163  0.00  0.00    +0.000 NA
ATOM      9  C   UNL     1       0.785  11.210  20.968  0.00  0.00    +0.000 A 
ATOM     10  N   UNL     1       0.902  12.473  20.353  0.00  0.00    +0.000 N 
ATOM     11  C   UNL     1       0.408  13.643  20.903  0.00  0.00    +0.000 C 
ATOM     12  O   UNL     1      -0.161  13.770  21.978  0.00  0.00    +0.000 OA
ATOM     13  C   UNL     1       1.288  10.093  20.317  0.00  0.00    +0.000 A 
ATOM     14  H   UNL     1       1.365  12.517  19.460  0.00  0.00    +0.000 HD
BRANCH  11  15
ATOM     15  C   UNL     1       0.584  14.895  20.102  0.00  0.00    +0.000 C 
ATOM     16  C   UNL     1      -0.435  16.003  20.041  0.00  0.00    +0.000 C 
ATOM     17  C   UNL     1      -0.154  15.175  18.818  0.00  0.00    +0.000 C 
ENDBRANCH  11  15
ENDBRANCH   2   5
BRANCH   3  18
ATOM     18  C   UNL     1       1.875   5.149  20.438  0.00  0.00    +0.000 A 
ATOM     19  C   UNL     1       0.987   4.083  20.284  0.00  0.00    +0.000 A 
ATOM     20  C   UNL     1       1.449   2.820  19.914  0.00  0.00    +0.000 A 
ATOM     21  C   UNL     1       2.804   2.615  19.678  0.00  0.00    +0.000 A 
ATOM     22  C   UNL     1       3.695   3.689  19.735  0.00  0.00    +0.000 A 
ATOM     23  C   UNL     1       3.232   4.952  20.133  0.00  0.00    +0.000 A 
BRANCH  22  24
ATOM     24  O   UNL     1       5.051   3.561  19.502  0.00  0.00    +0.000 OA
BRANCH  24  25
ATOM     25  C   UNL     1       5.558   4.037  18.295  0.00  0.00    +0.000 A 
ATOM     26  C   UNL     1       4.744   3.915  17.178  0.00  0.00    +0.000 A 
ATOM     27  C   UNL     1       5.216   4.403  15.958  0.00  0.00    +0.000 A 
ATOM     28  C   UNL     1       6.475   4.987  15.900  0.00  0.00    +0.000 A 
ATOM     29  C   UNL     1       7.226   5.042  17.062  0.00  0.00    +0.000 A 
ATOM     30  N   UNL     1       6.803   4.563  18.250  0.00  0.00    +0.000 NA
ENDBRANCH  24  25
ENDBRANCH  22  24
ENDBRANCH   3  18
TORSDOF 5
ENDMDL
MODEL 4
REMARK VINA RESULT:      -8.0      3.873     10.199
REMARK  Name = 
REMARK  5 active torsions:
REMARK  status: ('A' for Active; 'I' for Inactive)
REMARK    1  A    between atoms: C_2  and  C_17
REMARK    2  A    between atoms: N_3  and  C_4
REMARK    3  A    between atoms: C_8  and  O_9
REMARK    4  A    between atoms: O_9  and  C_10
REMARK    5  A    between atoms: C_23  and  C_25
REMARK                            x       y       z     vdW  Elec       q    Type
REMARK                         _______ _______ _______ _____ _____    ______ ____
ROOT
ATOM      1  O   UNL     1       2.184   9.913  17.498  0.00  0.00    +0.000 OA
ATOM      2  C   UNL     1       1.700   9.098  18.274  0.00  0.00    +0.000 C 
ATOM      3  N   UNL     1       0.538   9.242  19.022  0.00  0.00    +0.000 N 
ATOM      4  H   UNL     1       0.377   8.579  19.769  0.00  0.00    +0.000 HD
ENDROOT
BRANCH   2   5
ATOM      5  C   UNL     1       2.459   7.841  18.505  0.00  0.00    +0.000 A 
ATOM      6  C   UNL     1       2.295   7.118  19.682  0.00  0.00    +0.000 A 
ATOM      7  C   UNL     1       3.031   5.964  19.815  0.00  0.00    +0.000 A 
ATOM      8  N   UNL     1       3.886   5.514  18.876  0.00  0.00    +0.000 NA
ATOM      9  C   UNL     1       4.027   6.197  17.727  0.00  0.00    +0.000 A 
ATOM     10  N   UNL     1       4.920   5.733  16.740  0.00  0.00    +0.000 N 
ATOM     11  C   UNL     1       5.696   4.597  16.882  0.00  0.00    +0.000 C 
ATOM     12  O   UNL     1       5.713   3.828  17.834  0.00  0.00    +0.000 OA
ATOM     13  C   UNL     1       3.317   7.367  17.498  0.00  0.00    +0.000 A 
ATOM     14  H   UNL     1       4.998   6.268  15.891  0.00  0.00    +0.000 HD
BRANCH  11  15
ATOM     15  C   UNL     1       6.620   4.262  15.754  0.00  0.00    +0.000 C 
ATOM     16  C   UNL     1       6.837   5.147  14.554  0.00  0.00    +0.000 C 
ATOM     17  C   UNL     1       6.150   3.819  14.392  0.00  0.00    +0.000 C 
ENDBRANCH  11  15
ENDBRANCH   2   5
BRANCH   3  18
ATOM     18  C   UNL     1      -0.347  10.345  18.979  0.00  0.00    +0.000 A 
ATOM     19  C   UNL     1      -0.259  11.418  19.867  0.00  0.00    +0.000 A 
ATOM     20  C   UNL     1      -1.205  12.442  19.843  0.00  0.00    +0.000 A 
ATOM     21  C   UNL     1      -2.243  12.411  18.918  0.00  0.00    +0.000 A 
ATOM     22  C   UNL     1      -2.295  11.397  17.959  0.00  0.00    +0.000 A 
ATOM     23  C   UNL     1      -1.357  10.354  18.003  0.00  0.00    +0.000 A 
BRANCH  22  24
ATOM     24  O   UNL     1      -3.289  11.308  17.003  0.00  0.00    +0.000 OA
BRANCH  24  25
ATOM     25  C   UNL     1      -4.613  11.440  17.418  0.00  0.00    +0.000 A 
ATOM     26  C   UNL     1      -5.104  10.467  18.276  0.00  0.00    +0.000 A 
ATOM     27  C   UNL     1      -6.420  10.583  18.726  0.00  0.00    +0.000 A 
ATOM     28  C   UNL     1      -7.191  11.659  18.303  0.00  0.00    +0.000 A 
ATOM     29  C   UNL     1      -6.622  12.568  17.426  0.00  0.00    +0.000 A 
ATOM     30  N   UNL     1      -5.360  12.470  16.961  0.00  0.00    +0.000 NA
ENDBRANCH  24  25
ENDBRANCH  22  24
ENDBRANCH   3  18
TORSDOF 5
ENDMDL
MODEL 5
REMARK VINA RESULT:      -7.9      3.408      9.590
REMARK  Name = 
REMARK  5 active torsions:
REMARK  status: ('A' for Active; 'I' for Inactive)
REMARK    1  A    between atoms: C_2  and  C_17
REMARK    2  A    between atoms: N_3  and  C_4
REMARK    3  A    between atoms: C_8  and  O_9
REMARK    4  A    between atoms: O_9  and  C_10
REMARK    5  A    between atoms: C_23  and  C_25
REMARK                            x       y       z     vdW  Elec       q    Type
REMARK                         _______ _______ _______ _____ _____    ______ ____
ROOT
ATOM      1  O   UNL     1       1.812   5.308  19.258  0.00  0.00    +0.000 OA
ATOM      2  C   UNL     1       2.722   6.091  19.015  0.00  0.00    +0.000 C 
ATOM      3  N   UNL     1       2.727   7.463  19.235  0.00  0.00    +0.000 N 
ATOM      4  H   UNL     1       3.460   8.005  18.795  0.00  0.00    +0.000 HD
ENDROOT
BRANCH   2   5
ATOM      5  C   UNL     1       3.934   5.544  18.350  0.00  0.00    +0.000 A 
ATOM      6  C   UNL     1       5.072   5.236  19.089  0.00  0.00    +0.000 A 
ATOM      7  C   UNL     1       6.148   4.730  18.399  0.00  0.00    +0.000 A 
ATOM      8  N   UNL     1       6.148   4.526  17.067  0.00  0.00    +0.000 NA
ATOM      9  C   UNL     1       5.042   4.799  16.354  0.00  0.00    +0.000 A 
ATOM     10  N   UNL     1       5.035   4.588  14.961  0.00  0.00    +0.000 N 
ATOM     11  C   UNL     1       6.126   4.120  14.251  0.00  0.00    +0.000 C 
ATOM     12  O   UNL     1       7.218   3.800  14.702  0.00  0.00    +0.000 OA
ATOM     13  C   UNL     1       3.903   5.302  16.966  0.00  0.00    +0.000 A 
ATOM     14  H   UNL     1       4.188   4.800  14.460  0.00  0.00    +0.000 HD
BRANCH  11  15
ATOM     15  C   UNL     1       5.964   3.987  12.769  0.00  0.00    +0.000 C 
ATOM     16  C   UNL     1       4.709   3.487  12.103  0.00  0.00    +0.000 C 
ATOM     17  C   UNL     1       5.967   2.665  12.044  0.00  0.00    +0.000 C 
ENDBRANCH  11  15
ENDBRANCH   2   5
BRANCH   3  18
ATOM     18  C   UNL     1       1.693   8.211  19.846  0.00  0.00    +0.000 A 
ATOM     19  C   UNL     1       1.166   7.887  21.097  0.00  0.00    +0.000 A 
ATOM     20  C   UNL     1       0.090   8.602  21.623  0.00  0.00    +0.000 A 
ATOM     21  C   UNL     1      -0.461   9.660  20.908  0.00  0.00    +0.000 A 
ATOM     22  C   UNL     1       0.112  10.060  19.699  0.00  0.00    +0.000 A 
ATOM     23  C   UNL     1       1.177   9.323  19.159  0.00  0.00    +0.000 A 
BRANCH  22  24
ATOM     24  O   UNL     1      -0.375  11.108  18.940  0.00  0.00    +0.000 OA
BRANCH  24  25
ATOM     25  C   UNL     1      -1.563  10.915  18.239  0.00  0.00    +0.000 A 
ATOM     26  C   UNL     1      -2.673  11.626  18.672  0.00  0.00    +0.000 A 
ATOM     27  C   UNL     1      -3.872  11.470  17.977  0.00  0.00    +0.000 A 
ATOM     28  C   UNL     1      -3.919  10.614  16.883  0.00  0.00    +0.000 A 
ATOM     29  C   UNL     1      -2.766   9.928  16.540  0.00  0.00    +0.000 A 
ATOM     30  N   UNL     1      -1.598  10.045  17.205  0.00  0.00    +0.000 NA
ENDBRANCH  24  25
ENDBRANCH  22  24
ENDBRANCH   3  18
TORSDOF 5
ENDMDL
MODEL 6
REMARK VINA RESULT:      -7.9      5.458      7.981
REMARK  Name = 
REMARK  5 active torsions:
REMARK  status: ('A' for Active; 'I' for Inactive)
REMARK    1  A    between atoms: C_2  and  C_17
REMARK    2  A    between atoms: N_3  and  C_4
REMARK    3  A    between atoms: C_8  and  O_9
REMARK    4  A    between atoms: O_9  and  C_10
REMARK    5  A    between atoms: C_23  and  C_25
REMARK                            x       y       z     vdW  Elec       q    Type
REMARK                         _______ _______ _______ _____ _____    ______ ____
ROOT
ATOM      1  O   UNL     1       6.952   9.290  17.099  0.00  0.00    +0.000 OA
ATOM      2  C   UNL     1       7.853   8.937  17.849  0.00  0.00    +0.000 C 
ATOM      3  N   UNL     1       8.124   7.644  18.281  0.00  0.00    +0.000 N 
ATOM      4  H   UNL     1       8.766   7.534  19.055  0.00  0.00    +0.000 HD
ENDROOT
BRANCH   2   5
ATOM      5  C   UNL     1       8.721   9.999  18.422  0.00  0.00    +0.000 A 
ATOM      6  C   UNL     1       9.232   9.881  19.711  0.00  0.00    +0.000 A 
ATOM      7  C   UNL     1      10.029  10.905  20.164  0.00  0.00    +0.000 A 
ATOM      8  N   UNL     1      10.328  11.995  19.431  0.00  0.00    +0.000 NA
ATOM      9  C   UNL     1       9.856  12.100  18.177  0.00  0.00    +0.000 A 
ATOM     10  N   UNL     1      10.164  13.238  17.404  0.00  0.00    +0.000 N 
ATOM     11  C   UNL     1      10.930  14.294  17.866  0.00  0.00    +0.000 C 
ATOM     12  O   UNL     1      11.464  14.394  18.962  0.00  0.00    +0.000 OA
ATOM     13  C   UNL     1       9.053  11.111  17.629  0.00  0.00    +0.000 A 
ATOM     14  H   UNL     1       9.797  13.281  16.468  0.00  0.00    +0.000 HD
BRANCH  11  15
ATOM     15  C   UNL     1      11.134  15.444  16.930  0.00  0.00    +0.000 C 
ATOM     16  C   UNL     1      11.837  16.722  17.309  0.00  0.00    +0.000 C 
ATOM     17  C   UNL     1      10.362  16.736  17.014  0.00  0.00    +0.000 C 
ENDBRANCH  11  15
ENDBRANCH   2   5
BRANCH   3  18
ATOM     18  C   UNL     1       7.439   6.472  17.881  0.00  0.00    +0.000 A 
ATOM     19  C   UNL     1       7.355   6.065  16.548  0.00  0.00    +0.000 A 
ATOM     20  C   UNL     1       6.598   4.950  16.191  0.00  0.00    +0.000 A 
ATOM     21  C   UNL     1       5.929   4.220  17.167  0.00  0.00    +0.000 A 
ATOM     22  C   UNL     1       6.076   4.555  18.515  0.00  0.00    +0.000 A 
ATOM     23  C   UNL     1       6.817   5.692  18.869  0.00  0.00    +0.000 A 
BRANCH  22  24
ATOM     24  O   UNL     1       5.450   3.868  19.539  0.00  0.00    +0.000 OA
BRANCH  24  25
ATOM     25  C   UNL     1       4.069   3.695  19.465  0.00  0.00    +0.000 A 
ATOM     26  C   UNL     1       3.608   2.407  19.237  0.00  0.00    +0.000 A 
ATOM     27  C   UNL     1       2.229   2.198  19.179  0.00  0.00    +0.000 A 
ATOM     28  C   UNL     1       1.369   3.276  19.348  0.00  0.00    +0.000 A 
ATOM     29  C   UNL     1       1.924   4.530  19.546  0.00  0.00    +0.000 A 
ATOM     30  N   UNL     1       3.251   4.764  19.588  0.00  0.00    +0.000 NA
ENDBRANCH  24  25
ENDBRANCH  22  24
ENDBRANCH   3  18
TORSDOF 5
ENDMDL
MODEL 7
REMARK VINA RESULT:      -7.9      1.514      2.310
REMARK  Name = 
REMARK  5 active torsions:
REMARK  status: ('A' for Active; 'I' for Inactive)
REMARK    1  A    between atoms: C_2  and  C_17
REMARK    2  A    between atoms: N_3  and  C_4
REMARK    3  A    between atoms: C_8  and  O_9
REMARK    4  A    between atoms: O_9  and  C_10
REMARK    5  A    between atoms: C_23  and  C_25
REMARK                            x       y       z     vdW  Elec       q    Type
REMARK                         _______ _______ _______ _____ _____    ______ ____
ROOT
ATOM      1  O   UNL     1       2.577   7.399  17.792  0.00  0.00    +0.000 OA
ATOM      2  C   UNL     1       2.187   7.765  18.893  0.00  0.00    +0.000 C 
ATOM      3  N   UNL     1       2.022   6.979  20.027  0.00  0.00    +0.000 N 
ATOM      4  H   UNL     1       1.499   7.373  20.798  0.00  0.00    +0.000 HD
ENDROOT
BRANCH   2   5
ATOM      5  C   UNL     1       1.775   9.187  19.034  0.00  0.00    +0.000 A 
ATOM      6  C   UNL     1       2.199  10.143  18.117  0.00  0.00    +0.000 A 
ATOM      7  C   UNL     1       1.770  11.435  18.316  0.00  0.00    +0.000 A 
ATOM      8  N   UNL     1       0.976  11.805  19.339  0.00  0.00    +0.000 NA
ATOM      9  C   UNL     1       0.544  10.878  20.212  0.00  0.00    +0.000 A 
ATOM     10  N   UNL     1      -0.286  11.259  21.286  0.00  0.00    +0.000 N 
ATOM     11  C   UNL     1      -0.688  12.562  21.519  0.00  0.00    +0.000 C 
ATOM     12  O   UNL     1      -0.423  13.548  20.846  0.00  0.00    +0.000 OA
ATOM     13  C   UNL     1       0.916   9.548  20.086  0.00  0.00    +0.000 A 
ATOM     14  H   UNL     1      -0.593  10.538  21.918  0.00  0.00    +0.000 HD
BRANCH  11  15
ATOM     15  C   UNL     1      -1.542  12.802  22.725  0.00  0.00    +0.000 C 
ATOM     16  C   UNL     1      -2.349  11.729  23.411  0.00  0.00    +0.000 C 
ATOM     17  C   UNL     1      -3.048  12.847  22.687  0.00  0.00    +0.000 C 
ENDBRANCH  11  15
ENDBRANCH   2   5
BRANCH   3  18
ATOM     18  C   UNL     1       2.338   5.605  20.139  0.00  0.00    +0.000 A 
ATOM     19  C   UNL     1       1.468   4.675  20.712  0.00  0.00    +0.000 A 
ATOM     20  C   UNL     1       1.856   3.346  20.878  0.00  0.00    +0.000 A 
ATOM     21  C   UNL     1       3.115   2.929  20.459  0.00  0.00    +0.000 A 
ATOM     22  C   UNL     1       3.963   3.820  19.799  0.00  0.00    +0.000 A 
ATOM     23  C   UNL     1       3.581   5.163  19.656  0.00  0.00    +0.000 A 
BRANCH  22  24
ATOM     24  O   UNL     1       5.222   3.473  19.345  0.00  0.00    +0.000 OA
BRANCH  24  25
ATOM     25  C   UNL     1       6.009   4.468  18.768  0.00  0.00    +0.000 A 
ATOM     26  C   UNL     1       5.825   4.711  17.415  0.00  0.00    +0.000 A 
ATOM     27  C   UNL     1       6.584   5.716  16.813  0.00  0.00    +0.000 A 
ATOM     28  C   UNL     1       7.493   6.434  17.581  0.00  0.00    +0.000 A 
ATOM     29  C   UNL     1       7.625   6.104  18.919  0.00  0.00    +0.000 A 
ATOM     30  N   UNL     1       6.919   5.125  19.523  0.00  0.00    +0.000 NA
ENDBRANCH  24  25
ENDBRANCH  22  24
ENDBRANCH   3  18
TORSDOF 5
ENDMDL
MODEL 8
REMARK VINA RESULT:      -7.9      0.992      1.149
REMARK  Name = 
REMARK  5 active torsions:
REMARK  status: ('A' for Active; 'I' for Inactive)
REMARK    1  A    between atoms: C_2  and  C_17
REMARK    2  A    between atoms: N_3  and  C_4
REMARK    3  A    between atoms: C_8  and  O_9
REMARK    4  A    between atoms: O_9  and  C_10
REMARK    5  A    between atoms: C_23  and  C_25
REMARK                            x       y       z     vdW  Elec       q    Type
REMARK                         _______ _______ _______ _____ _____    ______ ____
ROOT
ATOM      1  O   UNL     1       1.808   8.383  19.204  0.00  0.00    +0.000 OA
ATOM      2  C   UNL     1       1.491   8.094  20.351  0.00  0.00    +0.000 C 
ATOM      3  N   UNL     1       1.588   6.848  20.958  0.00  0.00    +0.000 N 
ATOM      4  H   UNL     1       1.098   6.714  21.833  0.00  0.00    +0.000 HD
ENDROOT
BRANCH   2   5
ATOM      5  C   UNL     1       0.871   9.163  21.177  0.00  0.00    +0.000 A 
ATOM      6  C   UNL     1       0.264   8.860  22.391  0.00  0.00    +0.000 A 
ATOM      7  C   UNL     1      -0.282   9.907  23.097  0.00  0.00    +0.000 A 
ATOM      8  N   UNL     1      -0.255  11.185  22.671  0.00  0.00    +0.000 NA
ATOM      9  C   UNL     1       0.354  11.484  21.510  0.00  0.00    +0.000 A 
ATOM     10  N   UNL     1       0.386  12.818  21.058  0.00  0.00    +0.000 N 
ATOM     11  C   UNL     1      -0.197  13.873  21.739  0.00  0.00    +0.000 C 
ATOM     12  O   UNL     1      -0.785  13.824  22.811  0.00  0.00    +0.000 OA
ATOM     13  C   UNL     1       0.943  10.495  20.735  0.00  0.00    +0.000 A 
ATOM     14  H   UNL     1       0.853  13.006  20.186  0.00  0.00    +0.000 HD
BRANCH  11  15
ATOM     15  C   UNL     1      -0.104  15.224  21.103  0.00  0.00    +0.000 C 
ATOM     16  C   UNL     1       0.940  15.604  20.085  0.00  0.00    +0.000 C 
ATOM     17  C   UNL     1       0.956  16.239  21.448  0.00  0.00    +0.000 C 
ENDBRANCH  11  15
ENDBRANCH   2   5
BRANCH   3  18
ATOM     18  C   UNL     1       2.136   5.680  20.377  0.00  0.00    +0.000 A 
ATOM     19  C   UNL     1       1.832   4.396  20.834  0.00  0.00    +0.000 A 
ATOM     20  C   UNL     1       2.461   3.279  20.286  0.00  0.00    +0.000 A 
ATOM     21  C   UNL     1       3.390   3.432  19.264  0.00  0.00    +0.000 A 
ATOM     22  C   UNL     1       3.638   4.698  18.728  0.00  0.00    +0.000 A 
ATOM     23  C   UNL     1       3.024   5.823  19.298  0.00  0.00    +0.000 A 
BRANCH  22  24
ATOM     24  O   UNL     1       4.539   4.924  17.705  0.00  0.00    +0.000 OA
BRANCH  24  25
ATOM     25  C   UNL     1       5.743   5.553  18.017  0.00  0.00    +0.000 A 
ATOM     26  C   UNL     1       6.102   6.645  17.241  0.00  0.00    +0.000 A 
ATOM     27  C   UNL     1       7.292   7.310  17.543  0.00  0.00    +0.000 A 
ATOM     28  C   UNL     1       8.073   6.860  18.601  0.00  0.00    +0.000 A 
ATOM     29  C   UNL     1       7.645   5.745  19.303  0.00  0.00    +0.000 A 
ATOM     30  N   UNL     1       6.510   5.073  19.021  0.00  0.00    +0.000 NA
ENDBRANCH  24  25
ENDBRANCH  22  24
ENDBRANCH   3  18
TORSDOF 5
ENDMDL
MODEL 9
REMARK VINA RESULT:      -7.9      1.843      2.559
REMARK  Name = 
REMARK  5 active torsions:
REMARK  status: ('A' for Active; 'I' for Inactive)
REMARK    1  A    between atoms: C_2  and  C_17
REMARK    2  A    between atoms: N_3  and  C_4
REMARK    3  A    between atoms: C_8  and  O_9
REMARK    4  A    between atoms: O_9  and  C_10
REMARK    5  A    between atoms: C_23  and  C_25
REMARK                            x       y       z     vdW  Elec       q    Type
REMARK                         _______ _______ _______ _____ _____    ______ ____
ROOT
ATOM      1  O   UNL     1       1.941   7.071  20.491  0.00  0.00    +0.000 OA
ATOM      2  C   UNL     1       1.804   7.634  19.412  0.00  0.00    +0.000 C 
ATOM      3  N   UNL     1       2.068   7.109  18.154  0.00  0.00    +0.000 N 
ATOM      4  H   UNL     1       2.106   7.754  17.375  0.00  0.00    +0.000 HD
ENDROOT
BRANCH   2   5
ATOM      5  C   UNL     1       1.372   9.057  19.435  0.00  0.00    +0.000 A 
ATOM      6  C   UNL     1       1.740   9.927  18.415  0.00  0.00    +0.000 A 
ATOM      7  C   UNL     1       1.295  11.226  18.509  0.00  0.00    +0.000 A 
ATOM      8  N   UNL     1       0.536  11.680  19.525  0.00  0.00    +0.000 NA
ATOM      9  C   UNL     1       0.157  10.834  20.499  0.00  0.00    +0.000 A 
ATOM     10  N   UNL     1      -0.636  11.302  21.565  0.00  0.00    +0.000 N 
ATOM     11  C   UNL     1      -1.053  12.615  21.691  0.00  0.00    +0.000 C 
ATOM     12  O   UNL     1      -0.834  13.537  20.918  0.00  0.00    +0.000 OA
ATOM     13  C   UNL     1       0.549   9.503  20.483  0.00  0.00    +0.000 A 
ATOM     14  H   UNL     1      -0.904  10.640  22.275  0.00  0.00    +0.000 HD
BRANCH  11  15
ATOM     15  C   UNL     1      -1.862  12.956  22.904  0.00  0.00    +0.000 C 
ATOM     16  C   UNL     1      -2.863  12.024  23.536  0.00  0.00    +0.000 C 
ATOM     17  C   UNL     1      -3.333  13.283  22.862  0.00  0.00    +0.000 C 
ENDBRANCH  11  15
ENDBRANCH   2   5
BRANCH   3  18
ATOM     18  C   UNL     1       2.493   5.788  17.876  0.00  0.00    +0.000 A 
ATOM     19  C   UNL     1       1.624   4.695  17.904  0.00  0.00    +0.000 A 
ATOM     20  C   UNL     1       2.103   3.401  17.707  0.00  0.00    +0.000 A 
ATOM     21  C   UNL     1       3.455   3.186  17.465  0.00  0.00    +0.000 A 
ATOM     22  C   UNL     1       4.324   4.272  17.339  0.00  0.00    +0.000 A 
ATOM     23  C   UNL     1       3.845   5.572  17.564  0.00  0.00    +0.000 A 
BRANCH  22  24
ATOM     24  O   UNL     1       5.676   4.135  17.088  0.00  0.00    +0.000 OA
BRANCH  24  25
ATOM     25  C   UNL     1       6.545   5.073  17.643  0.00  0.00    +0.000 A 
ATOM     26  C   UNL     1       6.811   6.208  16.891  0.00  0.00    +0.000 A 
ATOM     27  C   UNL     1       7.661   7.175  17.429  0.00  0.00    +0.000 A 
ATOM     28  C   UNL     1       8.210   6.974  18.689  0.00  0.00    +0.000 A 
ATOM     29  C   UNL     1       7.906   5.798  19.355  0.00  0.00    +0.000 A 
ATOM     30  N   UNL     1       7.104   4.837  18.852  0.00  0.00    +0.000 NA
ENDBRANCH  24  25
ENDBRANCH  22  24
ENDBRANCH   3  18
TORSDOF 5
ENDMDL
