MODEL 1
REMARK VINA RESULT:      -9.0      0.000      0.000
REMARK  Name = 
REMARK  4 active torsions:
REMARK  status: ('A' for Active; 'I' for Inactive)
REMARK    1  A    between atoms: C_2  and  C_18
REMARK    2  A    between atoms: N_3  and  C_4
REMARK    3  A    between atoms: C_8  and  S_9
REMARK    4  A    between atoms: S_9  and  C_12
REMARK                            x       y       z     vdW  Elec       q    Type
REMARK                         _______ _______ _______ _____ _____    ______ ____
ROOT
ATOM      1  O   UNL     1       2.205   5.023  17.793  0.00  0.00    +0.000 OA
ATOM      2  C   UNL     1       3.146   5.800  17.675  0.00  0.00    +0.000 C 
ATOM      3  N   UNL     1       3.184   7.102  18.132  0.00  0.00    +0.000 N 
ATOM      4  H   UNL     1       4.033   7.635  17.945  0.00  0.00    +0.000 HD
ENDROOT
BRANCH   2   5
ATOM      5  C   UNL     1       4.443   5.291  17.144  0.00  0.00    +0.000 A 
ATOM      6  C   UNL     1       4.970   4.226  17.780  0.00  0.00    +0.000 A 
ATOM      7  N   UNL     1       6.339   4.046  17.979  0.00  0.00    +0.000 N 
ATOM      8  C   UNL     1       7.028   5.295  18.035  0.00  0.00    +0.000 A 
ATOM      9  C   UNL     1       7.877   5.590  19.095  0.00  0.00    +0.000 A 
ATOM     10  C   UNL     1       8.427   6.869  19.195  0.00  0.00    +0.000 A 
ATOM     11  C   UNL     1       8.196   7.829  18.201  0.00  0.00    +0.000 A 
ATOM     12  C   UNL     1       7.332   7.552  17.143  0.00  0.00    +0.000 A 
ATOM     13  C   UNL     1       6.701   6.312  17.117  0.00  0.00    +0.000 A 
ATOM     14  C   UNL     1       5.406   6.155  16.410  0.00  0.00    +0.000 A 
ATOM     15  O   UNL     1       5.086   6.808  15.427  0.00  0.00    +0.000 OA
ATOM     16  H   UNL     1       6.710   3.542  17.163  0.00  0.00    +0.000 HD
ENDBRANCH   2   5
BRANCH   3  17
ATOM     17  C   UNL     1       2.253   7.680  19.026  0.00  0.00    +0.000 A 
ATOM     18  C   UNL     1       1.925   7.126  20.270  0.00  0.00    +0.000 A 
ATOM     19  C   UNL     1       1.099   7.802  21.173  0.00  0.00    +0.000 A 
ATOM     20  C   UNL     1       0.574   9.045  20.834  0.00  0.00    +0.000 A 
ATOM     21  C   UNL     1       0.856   9.583  19.579  0.00  0.00    +0.000 A 
ATOM     22  C   UNL     1       1.693   8.915  18.672  0.00  0.00    +0.000 A 
BRANCH  21  23
ATOM     23  S   UNL     1       0.298  11.221  19.202  0.00  0.00    +0.000 S 
ATOM     24  O   UNL     1      -0.268  11.773  20.412  0.00  0.00    +0.000 OA
ATOM     25  O   UNL     1       1.389  11.897  18.525  0.00  0.00    +0.000 OA
BRANCH  23  26
ATOM     26  C   UNL     1      -1.024  10.991  18.010  0.00  0.00    +0.000 C 
ATOM     27  C   UNL     1      -2.125  12.027  18.213  0.00  0.00    +0.000 C 
ATOM     28  C   UNL     1      -3.407  11.383  17.710  0.00  0.00    +0.000 C 
ATOM     29  C   UNL     1      -3.110   9.903  17.507  0.00  0.00    +0.000 C 
ATOM     30  C   UNL     1      -1.742   9.655  18.130  0.00  0.00    +0.000 C 
ENDBRANCH  23  26
ENDBRANCH  21  23
ENDBRANCH   3  17
TORSDOF 4
ENDMDL
MODEL 2
REMARK VINA RESULT:      -8.8      2.902      8.036
REMARK  Name = 
REMARK  4 active torsions:
REMARK  status: ('A' for Active; 'I' for Inactive)
REMARK    1  A    between atoms: C_2  and  C_18
REMARK    2  A    between atoms: N_3  and  C_4
REMARK    3  A    between atoms: C_8  and  S_9
REMARK    4  A    between atoms: S_9  and  C_12
REMARK                            x       y       z     vdW  Elec       q    Type
REMARK                         _______ _______ _______ _____ _____    ______ ____
ROOT
ATOM      1  O   UNL     1       1.497   7.929  20.979  0.00  0.00    +0.000 OA
ATOM      2  C   UNL     1       1.504   8.605  19.955  0.00  0.00    +0.000 C 
ATOM      3  N   UNL     1       2.120   8.267  18.767  0.00  0.00    +0.000 N 
ATOM      4  H   UNL     1       2.055   8.939  18.003  0.00  0.00    +0.000 HD
ENDROOT
BRANCH   2   5
ATOM      5  C   UNL     1       0.653   9.826  19.887  0.00  0.00    +0.000 A 
ATOM      6  C   UNL     1       0.158  10.140  18.673  0.00  0.00    +0.000 A 
ATOM      7  N   UNL     1       0.006  11.450  18.217  0.00  0.00    +0.000 N 
ATOM      8  C   UNL     1       0.951  12.329  18.827  0.00  0.00    +0.000 A 
ATOM      9  C   UNL     1       1.749  13.160  18.050  0.00  0.00    +0.000 A 
ATOM     10  C   UNL     1       2.759  13.906  18.663  0.00  0.00    +0.000 A 
ATOM     11  C   UNL     1       2.922  13.884  20.054  0.00  0.00    +0.000 A 
ATOM     12  C   UNL     1       2.140  13.042  20.842  0.00  0.00    +0.000 A 
ATOM     13  C   UNL     1       1.215  12.219  20.206  0.00  0.00    +0.000 A 
ATOM     14  C   UNL     1       0.785  10.954  20.849  0.00  0.00    +0.000 A 
ATOM     15  O   UNL     1       0.723  10.794  22.060  0.00  0.00    +0.000 OA
ATOM     16  H   UNL     1      -0.927  11.775  18.506  0.00  0.00    +0.000 HD
ENDBRANCH   2   5
BRANCH   3  17
ATOM     17  C   UNL     1       2.631   6.988  18.447  0.00  0.00    +0.000 A 
ATOM     18  C   UNL     1       2.030   5.789  18.855  0.00  0.00    +0.000 A 
ATOM     19  C   UNL     1       2.498   4.551  18.405  0.00  0.00    +0.000 A 
ATOM     20  C   UNL     1       3.590   4.494  17.544  0.00  0.00    +0.000 A 
ATOM     21  C   UNL     1       4.223   5.678  17.171  0.00  0.00    +0.000 A 
ATOM     22  C   UNL     1       3.753   6.926  17.610  0.00  0.00    +0.000 A 
BRANCH  21  23
ATOM     23  S   UNL     1       5.526   5.615  15.973  0.00  0.00    +0.000 S 
ATOM     24  O   UNL     1       5.537   4.280  15.418  0.00  0.00    +0.000 OA
ATOM     25  O   UNL     1       5.368   6.769  15.109  0.00  0.00    +0.000 OA
BRANCH  23  26
ATOM     26  C   UNL     1       7.032   5.847  16.921  0.00  0.00    +0.000 C 
ATOM     27  C   UNL     1       6.980   5.061  18.227  0.00  0.00    +0.000 C 
ATOM     28  C   UNL     1       7.869   5.811  19.207  0.00  0.00    +0.000 C 
ATOM     29  C   UNL     1       8.181   7.162  18.577  0.00  0.00    +0.000 C 
ATOM     30  C   UNL     1       7.272   7.285  17.361  0.00  0.00    +0.000 C 
ENDBRANCH  23  26
ENDBRANCH  21  23
ENDBRANCH   3  17
TORSDOF 4
ENDMDL
MODEL 3
REMARK VINA RESULT:      -8.6      1.626      2.237
REMARK  Name = 
REMARK  4 active torsions:
REMARK  status: ('A' for Active; 'I' for Inactive)
REMARK    1  A    between atoms: C_2  and  C_18
REMARK    2  A    between atoms: N_3  and  C_4
REMARK    3  A    between atoms: C_8  and  S_9
REMARK    4  A    between atoms: S_9  and  C_12
REMARK                            x       y       z     vdW  Elec       q    Type
REMARK                         _______ _______ _______ _____ _____    ______ ____
ROOT
ATOM      1  O   UNL     1       2.236   6.898  17.827  0.00  0.00    +0.000 OA
ATOM      2  C   UNL     1       2.761   6.503  18.863  0.00  0.00    +0.000 C 
ATOM      3  N   UNL     1       2.560   7.027  20.124  0.00  0.00    +0.000 N 
ATOM      4  H   UNL     1       3.082   6.604  20.892  0.00  0.00    +0.000 HD
ENDROOT
BRANCH   2   5
ATOM      5  C   UNL     1       3.569   5.251  18.833  0.00  0.00    +0.000 A 
ATOM      6  C   UNL     1       4.689   5.246  19.584  0.00  0.00    +0.000 A 
ATOM      7  N   UNL     1       5.871   4.611  19.201  0.00  0.00    +0.000 N 
ATOM      8  C   UNL     1       5.990   4.540  17.781  0.00  0.00    +0.000 A 
ATOM      9  C   UNL     1       7.141   4.985  17.142  0.00  0.00    +0.000 A 
ATOM     10  C   UNL     1       7.174   5.032  15.748  0.00  0.00    +0.000 A 
ATOM     11  C   UNL     1       6.095   4.562  14.988  0.00  0.00    +0.000 A 
ATOM     12  C   UNL     1       4.929   4.129  15.616  0.00  0.00    +0.000 A 
ATOM     13  C   UNL     1       4.867   4.195  17.005  0.00  0.00    +0.000 A 
ATOM     14  C   UNL     1       3.552   4.309  17.682  0.00  0.00    +0.000 A 
ATOM     15  O   UNL     1       2.516   3.832  17.239  0.00  0.00    +0.000 OA
ATOM     16  H   UNL     1       5.829   3.642  19.543  0.00  0.00    +0.000 HD
ENDBRANCH   2   5
BRANCH   3  17
ATOM     17  C   UNL     1       1.535   7.936  20.476  0.00  0.00    +0.000 A 
ATOM     18  C   UNL     1       0.699   7.768  21.588  0.00  0.00    +0.000 A 
ATOM     19  C   UNL     1      -0.211   8.759  21.969  0.00  0.00    +0.000 A 
ATOM     20  C   UNL     1      -0.307   9.934  21.229  0.00  0.00    +0.000 A 
ATOM     21  C   UNL     1       0.488  10.089  20.095  0.00  0.00    +0.000 A 
ATOM     22  C   UNL     1       1.412   9.103  19.711  0.00  0.00    +0.000 A 
BRANCH  21  23
ATOM     23  S   UNL     1       0.462  11.636  19.233  0.00  0.00    +0.000 S 
ATOM     24  O   UNL     1       0.232  12.672  20.214  0.00  0.00    +0.000 OA
ATOM     25  O   UNL     1       1.640  11.672  18.386  0.00  0.00    +0.000 OA
BRANCH  23  26
ATOM     26  C   UNL     1      -0.975  11.540  18.162  0.00  0.00    +0.000 C 
ATOM     27  C   UNL     1      -2.235  11.978  18.901  0.00  0.00    +0.000 C 
ATOM     28  C   UNL     1      -3.390  11.246  18.238  0.00  0.00    +0.000 C 
ATOM     29  C   UNL     1      -2.780  10.178  17.339  0.00  0.00    +0.000 C 
ATOM     30  C   UNL     1      -1.296  10.132  17.680  0.00  0.00    +0.000 C 
ENDBRANCH  23  26
ENDBRANCH  21  23
ENDBRANCH   3  17
TORSDOF 4
ENDMDL
MODEL 4
REMARK VINA RESULT:      -8.6      1.384      1.806
REMARK  Name = 
REMARK  4 active torsions:
REMARK  status: ('A' for Active; 'I' for Inactive)
REMARK    1  A    between atoms: C_2  and  C_18
REMARK    2  A    between atoms: N_3  and  C_4
REMARK    3  A    between atoms: C_8  and  S_9
REMARK    4  A    between atoms: S_9  and  C_12
REMARK                            x       y       z     vdW  Elec       q    Type
REMARK                         _______ _______ _______ _____ _____    ______ ____
ROOT
ATOM      1  O   UNL     1       2.142   5.106  17.828  0.00  0.00    +0.000 OA
ATOM      2  C   UNL     1       3.088   5.873  17.686  0.00  0.00    +0.000 C 
ATOM      3  N   UNL     1       3.138   7.185  18.112  0.00  0.00    +0.000 N 
ATOM      4  H   UNL     1       3.990   7.707  17.909  0.00  0.00    +0.000 HD
ENDROOT
BRANCH   2   5
ATOM      5  C   UNL     1       4.379   5.341  17.163  0.00  0.00    +0.000 A 
ATOM      6  C   UNL     1       4.899   4.285  17.820  0.00  0.00    +0.000 A 
ATOM      7  N   UNL     1       6.267   4.098  18.019  0.00  0.00    +0.000 N 
ATOM      8  C   UNL     1       6.967   5.342  18.046  0.00  0.00    +0.000 A 
ATOM      9  C   UNL     1       7.822   5.652  19.097  0.00  0.00    +0.000 A 
ATOM     10  C   UNL     1       8.383   6.928  19.168  0.00  0.00    +0.000 A 
ATOM     11  C   UNL     1       8.157   7.868  18.154  0.00  0.00    +0.000 A 
ATOM     12  C   UNL     1       7.288   7.576  17.105  0.00  0.00    +0.000 A 
ATOM     13  C   UNL     1       6.646   6.342  17.107  0.00  0.00    +0.000 A 
ATOM     14  C   UNL     1       5.348   6.181  16.408  0.00  0.00    +0.000 A 
ATOM     15  O   UNL     1       5.030   6.816  15.411  0.00  0.00    +0.000 OA
ATOM     16  H   UNL     1       6.631   3.573  17.212  0.00  0.00    +0.000 HD
ENDBRANCH   2   5
BRANCH   3  17
ATOM     17  C   UNL     1       2.215   7.792  18.995  0.00  0.00    +0.000 A 
ATOM     18  C   UNL     1       2.030   7.384  20.323  0.00  0.00    +0.000 A 
ATOM     19  C   UNL     1       1.201   8.099  21.194  0.00  0.00    +0.000 A 
ATOM     20  C   UNL     1       0.531   9.231  20.740  0.00  0.00    +0.000 A 
ATOM     21  C   UNL     1       0.673   9.617  19.408  0.00  0.00    +0.000 A 
ATOM     22  C   UNL     1       1.511   8.911  18.530  0.00  0.00    +0.000 A 
BRANCH  21  23
ATOM     23  S   UNL     1      -0.071  11.130  18.869  0.00  0.00    +0.000 S 
ATOM     24  O   UNL     1       0.999  12.065  18.600  0.00  0.00    +0.000 OA
ATOM     25  O   UNL     1      -1.027  10.790  17.832  0.00  0.00    +0.000 OA
BRANCH  23  26
ATOM     26  C   UNL     1      -0.996  11.719  20.290  0.00  0.00    +0.000 C 
ATOM     27  C   UNL     1      -2.339  12.300  19.862  0.00  0.00    +0.000 C 
ATOM     28  C   UNL     1      -2.705  13.336  20.914  0.00  0.00    +0.000 C 
ATOM     29  C   UNL     1      -1.460  13.565  21.761  0.00  0.00    +0.000 C 
ATOM     30  C   UNL     1      -0.320  12.856  21.042  0.00  0.00    +0.000 C 
ENDBRANCH  23  26
ENDBRANCH  21  23
ENDBRANCH   3  17
TORSDOF 4
ENDMDL
MODEL 5
REMARK VINA RESULT:      -8.4      2.589      3.578
REMARK  Name = 
REMARK  4 active torsions:
REMARK  status: ('A' for Active; 'I' for Inactive)
REMARK    1  A    between atoms: C_2  and  C_18
REMARK    2  A    between atoms: N_3  and  C_4
REMARK    3  A    between atoms: C_8  and  S_9
REMARK    4  A    between atoms: S_9  and  C_12
REMARK                            x       y       z     vdW  Elec       q    Type
REMARK                         _______ _______ _______ _____ _____    ______ ____
ROOT
ATOM      1  O   UNL     1       2.124   5.190  19.968  0.00  0.00    +0.000 OA
ATOM      2  C   UNL     1       3.008   5.518  19.184  0.00  0.00    +0.000 C 
ATOM      3  N   UNL     1       3.061   6.699  18.470  0.00  0.00    +0.000 N 
ATOM      4  H   UNL     1       3.854   6.826  17.841  0.00  0.00    +0.000 HD
ENDROOT
BRANCH   2   5
ATOM      5  C   UNL     1       4.235   4.676  19.082  0.00  0.00    +0.000 A 
ATOM      6  C   UNL     1       5.384   5.245  19.498  0.00  0.00    +0.000 A 
ATOM      7  N   UNL     1       6.619   5.026  18.886  0.00  0.00    +0.000 N 
ATOM      8  C   UNL     1       6.468   4.704  17.504  0.00  0.00    +0.000 A 
ATOM      9  C   UNL     1       7.180   5.397  16.533  0.00  0.00    +0.000 A 
ATOM     10  C   UNL     1       6.909   5.155  15.184  0.00  0.00    +0.000 A 
ATOM     11  C   UNL     1       5.989   4.170  14.803  0.00  0.00    +0.000 A 
ATOM     12  C   UNL     1       5.256   3.481  15.767  0.00  0.00    +0.000 A 
ATOM     13  C   UNL     1       5.454   3.812  17.104  0.00  0.00    +0.000 A 
ATOM     14  C   UNL     1       4.374   3.574  18.093  0.00  0.00    +0.000 A 
ATOM     15  O   UNL     1       3.559   2.665  18.003  0.00  0.00    +0.000 OA
ATOM     16  H   UNL     1       7.048   4.206  19.335  0.00  0.00    +0.000 HD
ENDBRANCH   2   5
BRANCH   3  17
ATOM     17  C   UNL     1       2.245   7.830  18.703  0.00  0.00    +0.000 A 
ATOM     18  C   UNL     1       1.770   8.666  17.684  0.00  0.00    +0.000 A 
ATOM     19  C   UNL     1       0.860   9.694  17.951  0.00  0.00    +0.000 A 
ATOM     20  C   UNL     1       0.421   9.908  19.254  0.00  0.00    +0.000 A 
ATOM     21  C   UNL     1       0.924   9.112  20.281  0.00  0.00    +0.000 A 
ATOM     22  C   UNL     1       1.830   8.071  20.020  0.00  0.00    +0.000 A 
BRANCH  21  23
ATOM     23  S   UNL     1       0.265   9.298  21.914  0.00  0.00    +0.000 S 
ATOM     24  O   UNL     1      -0.647   8.199  22.139  0.00  0.00    +0.000 OA
ATOM     25  O   UNL     1       1.389   9.515  22.806  0.00  0.00    +0.000 OA
BRANCH  23  26
ATOM     26  C   UNL     1      -0.683  10.820  21.855  0.00  0.00    +0.000 C 
ATOM     27  C   UNL     1       0.234  12.027  21.688  0.00  0.00    +0.000 C 
ATOM     28  C   UNL     1      -0.495  13.202  22.321  0.00  0.00    +0.000 C 
ATOM     29  C   UNL     1      -1.667  12.626  23.105  0.00  0.00    +0.000 C 
ATOM     30  C   UNL     1      -1.462  11.116  23.129  0.00  0.00    +0.000 C 
ENDBRANCH  23  26
ENDBRANCH  21  23
ENDBRANCH   3  17
TORSDOF 4
ENDMDL
MODEL 6
REMARK VINA RESULT:      -8.4      1.864      2.572
REMARK  Name = 
REMARK  4 active torsions:
REMARK  status: ('A' for Active; 'I' for Inactive)
REMARK    1  A    between atoms: C_2  and  C_18
REMARK    2  A    between atoms: N_3  and  C_4
REMARK    3  A    between atoms: C_8  and  S_9
REMARK    4  A    between atoms: S_9  and  C_12
REMARK                            x       y       z     vdW  Elec       q    Type
REMARK                         _______ _______ _______ _____ _____    ______ ____
ROOT
ATOM      1  O   UNL     1       2.168   5.024  18.055  0.00  0.00    +0.000 OA
ATOM      2  C   UNL     1       3.077   5.821  17.845  0.00  0.00    +0.000 C 
ATOM      3  N   UNL     1       3.099   7.145  18.235  0.00  0.00    +0.000 N 
ATOM      4  H   UNL     1       3.920   7.692  17.974  0.00  0.00    +0.000 HD
ENDROOT
BRANCH   2   5
ATOM      5  C   UNL     1       4.358   5.323  17.267  0.00  0.00    +0.000 A 
ATOM      6  C   UNL     1       4.922   4.269  17.890  0.00  0.00    +0.000 A 
ATOM      7  N   UNL     1       6.301   4.107  18.037  0.00  0.00    +0.000 N 
ATOM      8  C   UNL     1       6.976   5.365  18.056  0.00  0.00    +0.000 A 
ATOM      9  C   UNL     1       7.863   5.678  19.078  0.00  0.00    +0.000 A 
ATOM     10  C   UNL     1       8.401   6.964  19.147  0.00  0.00    +0.000 A 
ATOM     11  C   UNL     1       8.119   7.913  18.155  0.00  0.00    +0.000 A 
ATOM     12  C   UNL     1       7.218   7.617  17.134  0.00  0.00    +0.000 A 
ATOM     13  C   UNL     1       6.601   6.370  17.143  0.00  0.00    +0.000 A 
ATOM     14  C   UNL     1       5.281   6.192  16.489  0.00  0.00    +0.000 A 
ATOM     15  O   UNL     1       4.914   6.833  15.514  0.00  0.00    +0.000 OA
ATOM     16  H   UNL     1       6.645   3.601  17.210  0.00  0.00    +0.000 HD
ENDBRANCH   2   5
BRANCH   3  17
ATOM     17  C   UNL     1       2.201   7.741  19.150  0.00  0.00    +0.000 A 
ATOM     18  C   UNL     1       1.863   7.174  20.386  0.00  0.00    +0.000 A 
ATOM     19  C   UNL     1       1.074   7.863  21.312  0.00  0.00    +0.000 A 
ATOM     20  C   UNL     1       0.597   9.134  21.005  0.00  0.00    +0.000 A 
ATOM     21  C   UNL     1       0.889   9.687  19.759  0.00  0.00    +0.000 A 
ATOM     22  C   UNL     1       1.690   9.005  18.828  0.00  0.00    +0.000 A 
BRANCH  21  23
ATOM     23  S   UNL     1       0.395  11.354  19.422  0.00  0.00    +0.000 S 
ATOM     24  O   UNL     1      -0.235  11.362  18.121  0.00  0.00    +0.000 OA
ATOM     25  O   UNL     1      -0.321  11.831  20.590  0.00  0.00    +0.000 OA
BRANCH  23  26
ATOM     26  C   UNL     1       1.932  12.274  19.314  0.00  0.00    +0.000 C 
ATOM     27  C   UNL     1       1.980  13.380  20.362  0.00  0.00    +0.000 C 
ATOM     28  C   UNL     1       2.878  14.466  19.791  0.00  0.00    +0.000 C 
ATOM     29  C   UNL     1       3.097  14.131  18.321  0.00  0.00    +0.000 C 
ATOM     30  C   UNL     1       2.126  13.004  17.992  0.00  0.00    +0.000 C 
ENDBRANCH  23  26
ENDBRANCH  21  23
ENDBRANCH   3  17
TORSDOF 4
ENDMDL
MODEL 7
REMARK VINA RESULT:      -8.4      2.872      8.456
REMARK  Name = 
REMARK  4 active torsions:
REMARK  status: ('A' for Active; 'I' for Inactive)
REMARK    1  A    between atoms: C_2  and  C_18
REMARK    2  A    between atoms: N_3  and  C_4
REMARK    3  A    between atoms: C_8  and  S_9
REMARK    4  A    between atoms: S_9  and  C_12
REMARK                            x       y       z     vdW  Elec       q    Type
REMARK                         _______ _______ _______ _____ _____    ______ ____
ROOT
ATOM      1  O   UNL     1       0.662   8.319  21.481  0.00  0.00    +0.000 OA
ATOM      2  C   UNL     1       1.281   8.542  20.446  0.00  0.00    +0.000 C 
ATOM      3  N   UNL     1       2.053   7.631  19.752  0.00  0.00    +0.000 N 
ATOM      4  H   UNL     1       2.524   7.967  18.912  0.00  0.00    +0.000 HD
ENDROOT
BRANCH   2   5
ATOM      5  C   UNL     1       1.084   9.845  19.750  0.00  0.00    +0.000 A 
ATOM      6  C   UNL     1       0.708  10.883  20.524  0.00  0.00    +0.000 A 
ATOM      7  N   UNL     1      -0.177  11.877  20.106  0.00  0.00    +0.000 N 
ATOM      8  C   UNL     1      -1.084  11.387  19.119  0.00  0.00    +0.000 A 
ATOM      9  C   UNL     1      -2.455  11.558  19.268  0.00  0.00    +0.000 A 
ATOM     10  C   UNL     1      -3.323  10.949  18.360  0.00  0.00    +0.000 A 
ATOM     11  C   UNL     1      -2.826  10.237  17.260  0.00  0.00    +0.000 A 
ATOM     12  C   UNL     1      -1.454  10.044  17.109  0.00  0.00    +0.000 A 
ATOM     13  C   UNL     1      -0.606  10.560  18.084  0.00  0.00    +0.000 A 
ATOM     14  C   UNL     1       0.723   9.942  18.310  0.00  0.00    +0.000 A 
ATOM     15  O   UNL     1       1.378   9.399  17.431  0.00  0.00    +0.000 OA
ATOM     16  H   UNL     1       0.376  12.618  19.656  0.00  0.00    +0.000 HD
ENDBRANCH   2   5
BRANCH   3  17
ATOM     17  C   UNL     1       2.063   6.235  19.973  0.00  0.00    +0.000 A 
ATOM     18  C   UNL     1       1.034   5.547  20.630  0.00  0.00    +0.000 A 
ATOM     19  C   UNL     1       1.026   4.150  20.709  0.00  0.00    +0.000 A 
ATOM     20  C   UNL     1       2.064   3.419  20.137  0.00  0.00    +0.000 A 
ATOM     21  C   UNL     1       3.115   4.097  19.522  0.00  0.00    +0.000 A 
ATOM     22  C   UNL     1       3.124   5.499  19.431  0.00  0.00    +0.000 A 
BRANCH  21  23
ATOM     23  S   UNL     1       4.363   3.165  18.681  0.00  0.00    +0.000 S 
ATOM     24  O   UNL     1       5.300   2.699  19.680  0.00  0.00    +0.000 OA
ATOM     25  O   UNL     1       3.681   2.221  17.816  0.00  0.00    +0.000 OA
BRANCH  23  26
ATOM     26  C   UNL     1       5.199   4.358  17.633  0.00  0.00    +0.000 C 
ATOM     27  C   UNL     1       5.283   3.855  16.196  0.00  0.00    +0.000 C 
ATOM     28  C   UNL     1       6.516   4.507  15.591  0.00  0.00    +0.000 C 
ATOM     29  C   UNL     1       7.297   5.129  16.742  0.00  0.00    +0.000 C 
ATOM     30  C   UNL     1       6.647   4.619  18.022  0.00  0.00    +0.000 C 
ENDBRANCH  23  26
ENDBRANCH  21  23
ENDBRANCH   3  17
TORSDOF 4
ENDMDL
MODEL 8
REMARK VINA RESULT:      -8.2      1.688      2.198
REMARK  Name = 
REMARK  4 active torsions:
REMARK  status: ('A' for Active; 'I' for Inactive)
REMARK    1  A    between atoms: C_2  and  C_18
REMARK    2  A    between atoms: N_3  and  C_4
REMARK    3  A    between atoms: C_8  and  S_9
REMARK    4  A    between atoms: S_9  and  C_12
REMARK                            x       y       z     vdW  Elec       q    Type
REMARK                         _______ _______ _______ _____ _____    ______ ____
ROOT
ATOM      1  O   UNL     1       1.091   4.554  19.689  0.00  0.00    +0.000 OA
ATOM      2  C   UNL     1       2.137   4.974  19.206  0.00  0.00    +0.000 C 
ATOM      3  N   UNL     1       2.514   6.299  19.117  0.00  0.00    +0.000 N 
ATOM      4  H   UNL     1       3.410   6.498  18.673  0.00  0.00    +0.000 HD
ENDROOT
BRANCH   2   5
ATOM      5  C   UNL     1       3.196   4.000  18.815  0.00  0.00    +0.000 A 
ATOM      6  C   UNL     1       4.255   3.907  19.644  0.00  0.00    +0.000 A 
ATOM      7  N   UNL     1       5.563   3.697  19.206  0.00  0.00    +0.000 N 
ATOM      8  C   UNL     1       5.760   4.208  17.887  0.00  0.00    +0.000 A 
ATOM      9  C   UNL     1       6.816   5.068  17.611  0.00  0.00    +0.000 A 
ATOM     10  C   UNL     1       6.903   5.659  16.349  0.00  0.00    +0.000 A 
ATOM     11  C   UNL     1       5.987   5.335  15.340  0.00  0.00    +0.000 A 
ATOM     12  C   UNL     1       4.914   4.487  15.610  0.00  0.00    +0.000 A 
ATOM     13  C   UNL     1       4.775   3.995  16.904  0.00  0.00    +0.000 A 
ATOM     14  C   UNL     1       3.436   3.596  17.404  0.00  0.00    +0.000 A 
ATOM     15  O   UNL     1       2.550   3.149  16.688  0.00  0.00    +0.000 OA
ATOM     16  H   UNL     1       5.715   2.681  19.154  0.00  0.00    +0.000 HD
ENDBRANCH   2   5
BRANCH   3  17
ATOM     17  C   UNL     1       1.882   7.373  19.785  0.00  0.00    +0.000 A 
ATOM     18  C   UNL     1       1.456   7.313  21.119  0.00  0.00    +0.000 A 
ATOM     19  C   UNL     1       0.956   8.443  21.775  0.00  0.00    +0.000 A 
ATOM     20  C   UNL     1       0.862   9.653  21.094  0.00  0.00    +0.000 A 
ATOM     21  C   UNL     1       1.239   9.711  19.753  0.00  0.00    +0.000 A 
ATOM     22  C   UNL     1       1.752   8.583  19.092  0.00  0.00    +0.000 A 
BRANCH  21  23
ATOM     23  S   UNL     1       1.245  11.278  18.929  0.00  0.00    +0.000 S 
ATOM     24  O   UNL     1       1.385  12.298  19.944  0.00  0.00    +0.000 OA
ATOM     25  O   UNL     1       2.202  11.185  17.843  0.00  0.00    +0.000 OA
BRANCH  23  26
ATOM     26  C   UNL     1      -0.390  11.420  18.203  0.00  0.00    +0.000 C 
ATOM     27  C   UNL     1      -1.358  12.092  19.170  0.00  0.00    +0.000 C 
ATOM     28  C   UNL     1      -2.741  11.567  18.818  0.00  0.00    +0.000 C 
ATOM     29  C   UNL     1      -2.539  10.389  17.874  0.00  0.00    +0.000 C 
ATOM     30  C   UNL     1      -1.047  10.083  17.888  0.00  0.00    +0.000 C 
ENDBRANCH  23  26
ENDBRANCH  21  23
ENDBRANCH   3  17
TORSDOF 4
ENDMDL
MODEL 9
REMARK VINA RESULT:      -8.0      2.522      8.289
REMARK  Name = 
REMARK  4 active torsions:
REMARK  status: ('A' for Active; 'I' for Inactive)
REMARK    1  A    between atoms: C_2  and  C_18
REMARK    2  A    between atoms: N_3  and  C_4
REMARK    3  A    between atoms: C_8  and  S_9
REMARK    4  A    between atoms: S_9  and  C_12
REMARK                            x       y       z     vdW  Elec       q    Type
REMARK                         _______ _______ _______ _____ _____    ______ ____
ROOT
ATOM      1  O   UNL     1       1.425   8.629  17.514  0.00  0.00    +0.000 OA
ATOM      2  C   UNL     1       1.723   8.546  18.701  0.00  0.00    +0.000 C 
ATOM      3  N   UNL     1       2.238   7.430  19.331  0.00  0.00    +0.000 N 
ATOM      4  H   UNL     1       2.423   7.505  20.330  0.00  0.00    +0.000 HD
ENDROOT
BRANCH   2   5
ATOM      5  C   UNL     1       1.701   9.777  19.542  0.00  0.00    +0.000 A 
ATOM      6  C   UNL     1       1.241   9.630  20.800  0.00  0.00    +0.000 A 
ATOM      7  N   UNL     1       0.481  10.595  21.461  0.00  0.00    +0.000 N 
ATOM      8  C   UNL     1      -0.264  11.394  20.542  0.00  0.00    +0.000 A 
ATOM      9  C   UNL     1      -1.632  11.574  20.705  0.00  0.00    +0.000 A 
ATOM     10  C   UNL     1      -2.356  12.243  19.717  0.00  0.00    +0.000 A 
ATOM     11  C   UNL     1      -1.708  12.802  18.607  0.00  0.00    +0.000 A 
ATOM     12  C   UNL     1      -0.339  12.614  18.424  0.00  0.00    +0.000 A 
ATOM     13  C   UNL     1       0.350  11.847  19.358  0.00  0.00    +0.000 A 
ATOM     14  C   UNL     1       1.596  11.144  18.964  0.00  0.00    +0.000 A 
ATOM     15  O   UNL     1       2.368  11.558  18.111  0.00  0.00    +0.000 OA
ATOM     16  H   UNL     1       1.132  11.229  21.943  0.00  0.00    +0.000 HD
ENDBRANCH   2   5
BRANCH   3  17
ATOM     17  C   UNL     1       2.739   6.281  18.675  0.00  0.00    +0.000 A 
ATOM     18  C   UNL     1       2.138   5.018  18.758  0.00  0.00    +0.000 A 
ATOM     19  C   UNL     1       2.594   3.944  17.988  0.00  0.00    +0.000 A 
ATOM     20  C   UNL     1       3.673   4.118  17.126  0.00  0.00    +0.000 A 
ATOM     21  C   UNL     1       4.306   5.359  17.071  0.00  0.00    +0.000 A 
ATOM     22  C   UNL     1       3.848   6.445  17.834  0.00  0.00    +0.000 A 
BRANCH  21  23
ATOM     23  S   UNL     1       5.591   5.616  15.880  0.00  0.00    +0.000 S 
ATOM     24  O   UNL     1       5.734   4.388  15.129  0.00  0.00    +0.000 OA
ATOM     25  O   UNL     1       5.299   6.864  15.200  0.00  0.00    +0.000 OA
BRANCH  23  26
ATOM     26  C   UNL     1       7.077   5.862  16.855  0.00  0.00    +0.000 C 
ATOM     27  C   UNL     1       7.044   5.013  18.121  0.00  0.00    +0.000 C 
ATOM     28  C   UNL     1       7.893   5.749  19.145  0.00  0.00    +0.000 C 
ATOM     29  C   UNL     1       8.158   7.140  18.584  0.00  0.00    +0.000 C 
ATOM     30  C   UNL     1       7.256   7.285  17.364  0.00  0.00    +0.000 C 
ENDBRANCH  23  26
ENDBRANCH  21  23
ENDBRANCH   3  17
TORSDOF 4
ENDMDL
