MODEL 1
REMARK VINA RESULT:      -8.2      0.000      0.000
REMARK  Name = 
REMARK  3 active torsions:
REMARK  status: ('A' for Active; 'I' for Inactive)
REMARK    1  A    between atoms: C_2  and  C_17
REMARK    2  A    between atoms: C_7  and  C_8
REMARK    3  A    between atoms: C_8  and  C_9
REMARK                            x       y       z     vdW  Elec       q    Type
REMARK                         _______ _______ _______ _____ _____    ______ ____
ROOT
ATOM      1  O   UNL     1       7.619   9.936  17.302  0.00  0.00    +0.000 OA
ATOM      2  C   UNL     1       8.472   9.588  18.112  0.00  0.00    +0.000 C 
ATOM      3  N   UNL     1       8.657   8.330  18.644  0.00  0.00    +0.000 N 
ATOM      4  C   UNL     1       7.839   7.297  18.274  0.00  0.00    +0.000 A 
ATOM      5  N   UNL     1       7.026   7.227  17.254  0.00  0.00    +0.000 NA
ATOM      6  C   UNL     1       6.293   6.064  17.331  0.00  0.00    +0.000 A 
ATOM      7  C   UNL     1       6.568   5.254  18.415  0.00  0.00    +0.000 A 
ATOM      8  S   UNL     1       7.871   5.940  19.309  0.00  0.00    +0.000 S 
ATOM      9  H   UNL     1       9.252   8.179  19.444  0.00  0.00    +0.000 HD
ENDROOT
BRANCH   2  10
ATOM     10  C   UNL     1       9.356  10.649  18.651  0.00  0.00    +0.000 A 
ATOM     11  C   UNL     1       9.446  10.793  20.037  0.00  0.00    +0.000 A 
ATOM     12  C   UNL     1      10.239  11.801  20.581  0.00  0.00    +0.000 A 
ATOM     13  C   UNL     1      10.934  12.680  19.766  0.00  0.00    +0.000 A 
ATOM     14  N   UNL     1      11.685  13.647  20.326  0.00  0.00    +0.000 NA
ATOM     15  C   UNL     1      12.322  14.479  19.475  0.00  0.00    +0.000 A 
ATOM     16  C   UNL     1      12.219  14.351  18.104  0.00  0.00    +0.000 A 
ATOM     17  N   UNL     1      11.478  13.381  17.523  0.00  0.00    +0.000 NA
ATOM     18  C   UNL     1      10.831  12.542  18.355  0.00  0.00    +0.000 A 
ATOM     19  C   UNL     1      10.047  11.532  17.817  0.00  0.00    +0.000 A 
ENDBRANCH   2  10
BRANCH   7  20
ATOM     20  C   UNL     1       5.879   3.996  18.838  0.00  0.00    +0.000 C 
BRANCH  20  21
ATOM     21  C   UNL     1       4.399   4.025  18.511  0.00  0.00    +0.000 A 
ATOM     22  C   UNL     1       3.496   4.706  19.344  0.00  0.00    +0.000 A 
ATOM     23  C   UNL     1       2.124   4.657  19.088  0.00  0.00    +0.000 A 
ATOM     24  C   UNL     1       1.655   3.930  18.002  0.00  0.00    +0.000 A 
ATOM     25  F   UNL     1       0.338   3.864  17.769  0.00  0.00    +0.000 F 
ATOM     26  C   UNL     1       2.532   3.260  17.157  0.00  0.00    +0.000 A 
ATOM     27  C   UNL     1       3.904   3.307  17.411  0.00  0.00    +0.000 A 
ENDBRANCH  20  21
ENDBRANCH   7  20
TORSDOF 3
ENDMDL
MODEL 2
REMARK VINA RESULT:      -8.1      0.900      1.300
REMARK  Name = 
REMARK  3 active torsions:
REMARK  status: ('A' for Active; 'I' for Inactive)
REMARK    1  A    between atoms: C_2  and  C_17
REMARK    2  A    between atoms: C_7  and  C_8
REMARK    3  A    between atoms: C_8  and  C_9
REMARK                            x       y       z     vdW  Elec       q    Type
REMARK                         _______ _______ _______ _____ _____    ______ ____
ROOT
ATOM      1  O   UNL     1       7.329   9.824  17.092  0.00  0.00    +0.000 OA
ATOM      2  C   UNL     1       8.184   9.444  17.884  0.00  0.00    +0.000 C 
ATOM      3  N   UNL     1       8.383   8.160  18.349  0.00  0.00    +0.000 N 
ATOM      4  C   UNL     1       7.579   7.140  17.921  0.00  0.00    +0.000 A 
ATOM      5  N   UNL     1       6.768   7.115  16.897  0.00  0.00    +0.000 NA
ATOM      6  C   UNL     1       6.049   5.941  16.909  0.00  0.00    +0.000 A 
ATOM      7  C   UNL     1       6.331   5.078  17.949  0.00  0.00    +0.000 A 
ATOM      8  S   UNL     1       7.624   5.729  18.882  0.00  0.00    +0.000 S 
ATOM      9  H   UNL     1       8.979   7.974  19.141  0.00  0.00    +0.000 HD
ENDROOT
BRANCH   2  10
ATOM     10  C   UNL     1       9.055  10.484  18.482  0.00  0.00    +0.000 A 
ATOM     11  C   UNL     1       9.378  10.378  19.836  0.00  0.00    +0.000 A 
ATOM     12  C   UNL     1      10.164  11.355  20.442  0.00  0.00    +0.000 A 
ATOM     13  C   UNL     1      10.624  12.447  19.725  0.00  0.00    +0.000 A 
ATOM     14  N   UNL     1      11.376  13.377  20.344  0.00  0.00    +0.000 NA
ATOM     15  C   UNL     1      11.777  14.422  19.591  0.00  0.00    +0.000 A 
ATOM     16  C   UNL     1      11.443  14.540  18.257  0.00  0.00    +0.000 A 
ATOM     17  N   UNL     1      10.697  13.613  17.615  0.00  0.00    +0.000 NA
ATOM     18  C   UNL     1      10.283  12.563  18.349  0.00  0.00    +0.000 A 
ATOM     19  C   UNL     1       9.507  11.584  17.747  0.00  0.00    +0.000 A 
ENDBRANCH   2  10
BRANCH   7  20
ATOM     20  C   UNL     1       5.657   3.790  18.301  0.00  0.00    +0.000 C 
BRANCH  20  21
ATOM     21  C   UNL     1       4.288   4.019  18.911  0.00  0.00    +0.000 A 
ATOM     22  C   UNL     1       3.240   3.114  18.674  0.00  0.00    +0.000 A 
ATOM     23  C   UNL     1       1.958   3.374  19.165  0.00  0.00    +0.000 A 
ATOM     24  C   UNL     1       1.724   4.535  19.890  0.00  0.00    +0.000 A 
ATOM     25  F   UNL     1       0.490   4.795  20.341  0.00  0.00    +0.000 F 
ATOM     26  C   UNL     1       2.749   5.437  20.147  0.00  0.00    +0.000 A 
ATOM     27  C   UNL     1       4.031   5.180  19.658  0.00  0.00    +0.000 A 
ENDBRANCH  20  21
ENDBRANCH   7  20
TORSDOF 3
ENDMDL
MODEL 3
REMARK VINA RESULT:      -8.0      8.231     11.153
REMARK  Name = 
REMARK  3 active torsions:
REMARK  status: ('A' for Active; 'I' for Inactive)
REMARK    1  A    between atoms: C_2  and  C_17
REMARK    2  A    between atoms: C_7  and  C_8
REMARK    3  A    between atoms: C_8  and  C_9
REMARK                            x       y       z     vdW  Elec       q    Type
REMARK                         _______ _______ _______ _____ _____    ______ ____
ROOT
ATOM      1  O   UNL     1      -1.674  10.756  17.194  0.00  0.00    +0.000 OA
ATOM      2  C   UNL     1      -1.737  10.965  18.401  0.00  0.00    +0.000 C 
ATOM      3  N   UNL     1      -0.862  10.528  19.373  0.00  0.00    +0.000 N 
ATOM      4  C   UNL     1       0.226   9.772  19.032  0.00  0.00    +0.000 A 
ATOM      5  N   UNL     1       0.756   9.592  17.851  0.00  0.00    +0.000 NA
ATOM      6  C   UNL     1       1.755   8.649  17.936  0.00  0.00    +0.000 A 
ATOM      7  C   UNL     1       1.978   8.125  19.194  0.00  0.00    +0.000 A 
ATOM      8  S   UNL     1       0.958   8.931  20.325  0.00  0.00    +0.000 S 
ATOM      9  H   UNL     1      -1.095  10.581  20.352  0.00  0.00    +0.000 HD
ENDROOT
BRANCH   2  10
ATOM     10  C   UNL     1      -2.928  11.699  18.892  0.00  0.00    +0.000 A 
ATOM     11  C   UNL     1      -2.790  12.492  20.033  0.00  0.00    +0.000 A 
ATOM     12  C   UNL     1      -3.894  13.169  20.547  0.00  0.00    +0.000 A 
ATOM     13  C   UNL     1      -5.140  13.058  19.950  0.00  0.00    +0.000 A 
ATOM     14  N   UNL     1      -6.187  13.721  20.477  0.00  0.00    +0.000 NA
ATOM     15  C   UNL     1      -7.374  13.556  19.856  0.00  0.00    +0.000 A 
ATOM     16  C   UNL     1      -7.517  12.757  18.739  0.00  0.00    +0.000 A 
ATOM     17  N   UNL     1      -6.476  12.092  18.189  0.00  0.00    +0.000 NA
ATOM     18  C   UNL     1      -5.283  12.240  18.796  0.00  0.00    +0.000 A 
ATOM     19  C   UNL     1      -4.179  11.574  18.283  0.00  0.00    +0.000 A 
ENDBRANCH   2  10
BRANCH   7  20
ATOM     20  C   UNL     1       2.903   7.021  19.594  0.00  0.00    +0.000 C 
BRANCH  20  21
ATOM     21  C   UNL     1       2.283   5.656  19.371  0.00  0.00    +0.000 A 
ATOM     22  C   UNL     1       2.295   5.064  18.097  0.00  0.00    +0.000 A 
ATOM     23  C   UNL     1       1.646   3.847  17.877  0.00  0.00    +0.000 A 
ATOM     24  C   UNL     1       0.986   3.223  18.927  0.00  0.00    +0.000 A 
ATOM     25  F   UNL     1       0.344   2.067  18.711  0.00  0.00    +0.000 F 
ATOM     26  C   UNL     1       0.972   3.784  20.198  0.00  0.00    +0.000 A 
ATOM     27  C   UNL     1       1.620   5.000  20.421  0.00  0.00    +0.000 A 
ENDBRANCH  20  21
ENDBRANCH   7  20
TORSDOF 3
ENDMDL
MODEL 4
REMARK VINA RESULT:      -8.0      6.536      9.430
REMARK  Name = 
REMARK  3 active torsions:
REMARK  status: ('A' for Active; 'I' for Inactive)
REMARK    1  A    between atoms: C_2  and  C_17
REMARK    2  A    between atoms: C_7  and  C_8
REMARK    3  A    between atoms: C_8  and  C_9
REMARK                            x       y       z     vdW  Elec       q    Type
REMARK                         _______ _______ _______ _____ _____    ______ ____
ROOT
ATOM      1  O   UNL     1       1.884   6.523  20.073  0.00  0.00    +0.000 OA
ATOM      2  C   UNL     1       2.402   7.040  19.090  0.00  0.00    +0.000 C 
ATOM      3  N   UNL     1       2.257   8.340  18.654  0.00  0.00    +0.000 N 
ATOM      4  C   UNL     1       1.464   9.215  19.344  0.00  0.00    +0.000 A 
ATOM      5  N   UNL     1       0.991   9.104  20.558  0.00  0.00    +0.000 NA
ATOM      6  C   UNL     1       0.127  10.145  20.810  0.00  0.00    +0.000 A 
ATOM      7  C   UNL     1      -0.041  11.047  19.778  0.00  0.00    +0.000 A 
ATOM      8  S   UNL     1       1.010  10.618  18.483  0.00  0.00    +0.000 S 
ATOM      9  H   UNL     1       2.561   8.624  17.735  0.00  0.00    +0.000 HD
ENDROOT
BRANCH   2  10
ATOM     10  C   UNL     1       3.212   6.157  18.217  0.00  0.00    +0.000 A 
ATOM     11  C   UNL     1       2.903   4.796  18.185  0.00  0.00    +0.000 A 
ATOM     12  C   UNL     1       3.663   3.928  17.404  0.00  0.00    +0.000 A 
ATOM     13  C   UNL     1       4.739   4.392  16.663  0.00  0.00    +0.000 A 
ATOM     14  N   UNL     1       5.456   3.524  15.925  0.00  0.00    +0.000 NA
ATOM     15  C   UNL     1       6.499   4.040  15.241  0.00  0.00    +0.000 A 
ATOM     16  C   UNL     1       6.819   5.381  15.286  0.00  0.00    +0.000 A 
ATOM     17  N   UNL     1       6.105   6.270  16.013  0.00  0.00    +0.000 NA
ATOM     18  C   UNL     1       5.062   5.775  16.707  0.00  0.00    +0.000 A 
ATOM     19  C   UNL     1       4.297   6.638  17.479  0.00  0.00    +0.000 A 
ENDBRANCH   2  10
BRANCH   7  20
ATOM     20  C   UNL     1      -0.979  12.209  19.699  0.00  0.00    +0.000 C 
BRANCH  20  21
ATOM     21  C   UNL     1      -2.351  11.794  19.204  0.00  0.00    +0.000 A 
ATOM     22  C   UNL     1      -2.484  10.830  18.190  0.00  0.00    +0.000 A 
ATOM     23  C   UNL     1      -3.745  10.515  17.676  0.00  0.00    +0.000 A 
ATOM     24  C   UNL     1      -4.869  11.160  18.175  0.00  0.00    +0.000 A 
ATOM     25  F   UNL     1      -6.075  10.874  17.667  0.00  0.00    +0.000 F 
ATOM     26  C   UNL     1      -4.761  12.106  19.187  0.00  0.00    +0.000 A 
ATOM     27  C   UNL     1      -3.503  12.423  19.702  0.00  0.00    +0.000 A 
ENDBRANCH  20  21
ENDBRANCH   7  20
TORSDOF 3
ENDMDL
MODEL 5
REMARK VINA RESULT:      -7.8      7.070     10.610
REMARK  Name = 
REMARK  3 active torsions:
REMARK  status: ('A' for Active; 'I' for Inactive)
REMARK    1  A    between atoms: C_2  and  C_17
REMARK    2  A    between atoms: C_7  and  C_8
REMARK    3  A    between atoms: C_8  and  C_9
REMARK                            x       y       z     vdW  Elec       q    Type
REMARK                         _______ _______ _______ _____ _____    ______ ____
ROOT
ATOM      1  O   UNL     1       2.711   8.943  17.282  0.00  0.00    +0.000 OA
ATOM      2  C   UNL     1       2.297   8.162  18.132  0.00  0.00    +0.000 C 
ATOM      3  N   UNL     1       1.487   8.451  19.210  0.00  0.00    +0.000 N 
ATOM      4  C   UNL     1       1.050   9.730  19.422  0.00  0.00    +0.000 A 
ATOM      5  N   UNL     1       1.055  10.741  18.594  0.00  0.00    +0.000 NA
ATOM      6  C   UNL     1       0.652  11.878  19.256  0.00  0.00    +0.000 A 
ATOM      7  C   UNL     1       0.335  11.713  20.589  0.00  0.00    +0.000 A 
ATOM      8  S   UNL     1       0.452  10.042  20.990  0.00  0.00    +0.000 S 
ATOM      9  H   UNL     1       1.357   7.792  19.962  0.00  0.00    +0.000 HD
ENDROOT
BRANCH   2  10
ATOM     10  C   UNL     1       2.783   6.764  18.051  0.00  0.00    +0.000 A 
ATOM     11  C   UNL     1       4.056   6.536  17.524  0.00  0.00    +0.000 A 
ATOM     12  C   UNL     1       4.534   5.234  17.399  0.00  0.00    +0.000 A 
ATOM     13  C   UNL     1       3.758   4.150  17.778  0.00  0.00    +0.000 A 
ATOM     14  N   UNL     1       4.249   2.904  17.636  0.00  0.00    +0.000 NA
ATOM     15  C   UNL     1       3.435   1.894  18.009  0.00  0.00    +0.000 A 
ATOM     16  C   UNL     1       2.169   2.115  18.512  0.00  0.00    +0.000 A 
ATOM     17  N   UNL     1       1.662   3.358  18.671  0.00  0.00    +0.000 NA
ATOM     18  C   UNL     1       2.457   4.381  18.301  0.00  0.00    +0.000 A 
ATOM     19  C   UNL     1       1.987   5.680  18.432  0.00  0.00    +0.000 A 
ENDBRANCH   2  10
BRANCH   7  20
ATOM     20  C   UNL     1      -0.027  12.757  21.598  0.00  0.00    +0.000 C 
BRANCH  20  21
ATOM     21  C   UNL     1      -1.503  12.721  21.942  0.00  0.00    +0.000 A 
ATOM     22  C   UNL     1      -2.461  13.201  21.034  0.00  0.00    +0.000 A 
ATOM     23  C   UNL     1      -3.811  13.247  21.390  0.00  0.00    +0.000 A 
ATOM     24  C   UNL     1      -4.203  12.815  22.650  0.00  0.00    +0.000 A 
ATOM     25  F   UNL     1      -5.494  12.880  22.999  0.00  0.00    +0.000 F 
ATOM     26  C   UNL     1      -3.273  12.323  23.559  0.00  0.00    +0.000 A 
ATOM     27  C   UNL     1      -1.924  12.276  23.206  0.00  0.00    +0.000 A 
ENDBRANCH  20  21
ENDBRANCH   7  20
TORSDOF 3
ENDMDL
MODEL 6
REMARK VINA RESULT:      -7.8      6.757      9.819
REMARK  Name = 
REMARK  3 active torsions:
REMARK  status: ('A' for Active; 'I' for Inactive)
REMARK    1  A    between atoms: C_2  and  C_17
REMARK    2  A    between atoms: C_7  and  C_8
REMARK    3  A    between atoms: C_8  and  C_9
REMARK                            x       y       z     vdW  Elec       q    Type
REMARK                         _______ _______ _______ _____ _____    ______ ____
ROOT
ATOM      1  O   UNL     1       2.235   6.361  20.145  0.00  0.00    +0.000 OA
ATOM      2  C   UNL     1       2.535   6.865  19.068  0.00  0.00    +0.000 C 
ATOM      3  N   UNL     1       2.154   8.099  18.586  0.00  0.00    +0.000 N 
ATOM      4  C   UNL     1       1.352   8.915  19.336  0.00  0.00    +0.000 A 
ATOM      5  N   UNL     1       1.074   8.837  20.611  0.00  0.00    +0.000 NA
ATOM      6  C   UNL     1       0.119   9.775  20.930  0.00  0.00    +0.000 A 
ATOM      7  C   UNL     1      -0.314  10.567  19.886  0.00  0.00    +0.000 A 
ATOM      8  S   UNL     1       0.594  10.180  18.475  0.00  0.00    +0.000 S 
ATOM      9  H   UNL     1       2.284   8.349  17.618  0.00  0.00    +0.000 HD
ENDROOT
BRANCH   2  10
ATOM     10  C   UNL     1       3.328   6.029  18.135  0.00  0.00    +0.000 A 
ATOM     11  C   UNL     1       3.011   4.673  18.030  0.00  0.00    +0.000 A 
ATOM     12  C   UNL     1       3.755   3.848  17.191  0.00  0.00    +0.000 A 
ATOM     13  C   UNL     1       4.824   4.348  16.463  0.00  0.00    +0.000 A 
ATOM     14  N   UNL     1       5.526   3.520  15.667  0.00  0.00    +0.000 NA
ATOM     15  C   UNL     1       6.564   4.068  14.999  0.00  0.00    +0.000 A 
ATOM     16  C   UNL     1       6.892   5.403  15.116  0.00  0.00    +0.000 A 
ATOM     17  N   UNL     1       6.192   6.253  15.902  0.00  0.00    +0.000 NA
ATOM     18  C   UNL     1       5.155   5.725  16.581  0.00  0.00    +0.000 A 
ATOM     19  C   UNL     1       4.406   6.545  17.411  0.00  0.00    +0.000 A 
ENDBRANCH   2  10
BRANCH   7  20
ATOM     20  C   UNL     1      -1.405  11.591  19.881  0.00  0.00    +0.000 C 
BRANCH  20  21
ATOM     21  C   UNL     1      -1.371  12.456  21.126  0.00  0.00    +0.000 A 
ATOM     22  C   UNL     1      -0.363  13.419  21.300  0.00  0.00    +0.000 A 
ATOM     23  C   UNL     1      -0.285  14.153  22.486  0.00  0.00    +0.000 A 
ATOM     24  C   UNL     1      -1.211  13.926  23.495  0.00  0.00    +0.000 A 
ATOM     25  F   UNL     1      -1.123  14.614  24.640  0.00  0.00    +0.000 F 
ATOM     26  C   UNL     1      -2.225  12.988  23.338  0.00  0.00    +0.000 A 
ATOM     27  C   UNL     1      -2.306  12.253  22.154  0.00  0.00    +0.000 A 
ENDBRANCH  20  21
ENDBRANCH   7  20
TORSDOF 3
ENDMDL
MODEL 7
REMARK VINA RESULT:      -7.8      7.244     10.561
REMARK  Name = 
REMARK  3 active torsions:
REMARK  status: ('A' for Active; 'I' for Inactive)
REMARK    1  A    between atoms: C_2  and  C_17
REMARK    2  A    between atoms: C_7  and  C_8
REMARK    3  A    between atoms: C_8  and  C_9
REMARK                            x       y       z     vdW  Elec       q    Type
REMARK                         _______ _______ _______ _____ _____    ______ ____
ROOT
ATOM      1  O   UNL     1       2.238   8.995  17.422  0.00  0.00    +0.000 OA
ATOM      2  C   UNL     1       2.048   8.366  18.456  0.00  0.00    +0.000 C 
ATOM      3  N   UNL     1       1.312   8.761  19.554  0.00  0.00    +0.000 N 
ATOM      4  C   UNL     1       0.691   9.980  19.565  0.00  0.00    +0.000 A 
ATOM      5  N   UNL     1       0.445  10.779  18.561  0.00  0.00    +0.000 NA
ATOM      6  C   UNL     1      -0.075  11.962  19.033  0.00  0.00    +0.000 A 
ATOM      7  C   UNL     1      -0.226  12.045  20.403  0.00  0.00    +0.000 A 
ATOM      8  S   UNL     1       0.208  10.534  21.106  0.00  0.00    +0.000 S 
ATOM      9  H   UNL     1       1.370   8.268  20.431  0.00  0.00    +0.000 HD
ENDROOT
BRANCH   2  10
ATOM     10  C   UNL     1       2.751   7.067  18.589  0.00  0.00    +0.000 A 
ATOM     11  C   UNL     1       3.783   6.780  17.695  0.00  0.00    +0.000 A 
ATOM     12  C   UNL     1       4.444   5.556  17.765  0.00  0.00    +0.000 A 
ATOM     13  C   UNL     1       4.083   4.603  18.704  0.00  0.00    +0.000 A 
ATOM     14  N   UNL     1       4.738   3.427  18.739  0.00  0.00    +0.000 NA
ATOM     15  C   UNL     1       4.325   2.539  19.668  0.00  0.00    +0.000 A 
ATOM     16  C   UNL     1       3.292   2.812  20.541  0.00  0.00    +0.000 A 
ATOM     17  N   UNL     1       2.628   3.991  20.528  0.00  0.00    +0.000 NA
ATOM     18  C   UNL     1       3.022   4.890  19.606  0.00  0.00    +0.000 A 
ATOM     19  C   UNL     1       2.372   6.113  19.538  0.00  0.00    +0.000 A 
ENDBRANCH   2  10
BRANCH   7  20
ATOM     20  C   UNL     1      -0.655  13.219  21.225  0.00  0.00    +0.000 C 
BRANCH  20  21
ATOM     21  C   UNL     1      -2.033  13.015  21.823  0.00  0.00    +0.000 A 
ATOM     22  C   UNL     1      -3.185  13.184  21.037  0.00  0.00    +0.000 A 
ATOM     23  C   UNL     1      -4.454  13.082  21.613  0.00  0.00    +0.000 A 
ATOM     24  C   UNL     1      -4.571  12.812  22.970  0.00  0.00    +0.000 A 
ATOM     25  F   UNL     1      -5.787  12.736  23.526  0.00  0.00    +0.000 F 
ATOM     26  C   UNL     1      -3.445  12.628  23.763  0.00  0.00    +0.000 A 
ATOM     27  C   UNL     1      -2.176  12.729  23.190  0.00  0.00    +0.000 A 
ENDBRANCH  20  21
ENDBRANCH   7  20
TORSDOF 3
ENDMDL
MODEL 8
REMARK VINA RESULT:      -7.8      8.046     10.514
REMARK  Name = 
REMARK  3 active torsions:
REMARK  status: ('A' for Active; 'I' for Inactive)
REMARK    1  A    between atoms: C_2  and  C_17
REMARK    2  A    between atoms: C_7  and  C_8
REMARK    3  A    between atoms: C_8  and  C_9
REMARK                            x       y       z     vdW  Elec       q    Type
REMARK                         _______ _______ _______ _____ _____    ______ ____
ROOT
ATOM      1  O   UNL     1      -1.360  10.974  17.502  0.00  0.00    +0.000 OA
ATOM      2  C   UNL     1      -1.407  11.041  18.725  0.00  0.00    +0.000 C 
ATOM      3  N   UNL     1      -0.555  10.443  19.630  0.00  0.00    +0.000 N 
ATOM      4  C   UNL     1       0.489   9.675  19.191  0.00  0.00    +0.000 A 
ATOM      5  N   UNL     1       1.005   9.610  17.992  0.00  0.00    +0.000 NA
ATOM      6  C   UNL     1       1.950   8.610  17.954  0.00  0.00    +0.000 A 
ATOM      7  C   UNL     1       2.148   7.928  19.138  0.00  0.00    +0.000 A 
ATOM      8  S   UNL     1       1.177   8.647  20.367  0.00  0.00    +0.000 S 
ATOM      9  H   UNL     1      -0.782  10.391  20.611  0.00  0.00    +0.000 HD
ENDROOT
BRANCH   2  10
ATOM     10  C   UNL     1      -2.555  11.774  19.312  0.00  0.00    +0.000 A 
ATOM     11  C   UNL     1      -3.788  11.703  18.660  0.00  0.00    +0.000 A 
ATOM     12  C   UNL     1      -4.880  12.406  19.161  0.00  0.00    +0.000 A 
ATOM     13  C   UNL     1      -4.763  13.194  20.296  0.00  0.00    +0.000 A 
ATOM     14  N   UNL     1      -5.838  13.866  20.748  0.00  0.00    +0.000 NA
ATOM     15  C   UNL     1      -5.649  14.627  21.847  0.00  0.00    +0.000 A 
ATOM     16  C   UNL     1      -4.427  14.715  22.482  0.00  0.00    +0.000 A 
ATOM     17  N   UNL     1      -3.338  14.040  22.049  0.00  0.00    +0.000 NA
ATOM     18  C   UNL     1      -3.504  13.277  20.951  0.00  0.00    +0.000 A 
ATOM     19  C   UNL     1      -2.420  12.569  20.454  0.00  0.00    +0.000 A 
ENDBRANCH   2  10
BRANCH   7  20
ATOM     20  C   UNL     1       3.012   6.735  19.395  0.00  0.00    +0.000 C 
BRANCH  20  21
ATOM     21  C   UNL     1       2.257   5.437  19.189  0.00  0.00    +0.000 A 
ATOM     22  C   UNL     1       1.611   4.807  20.266  0.00  0.00    +0.000 A 
ATOM     23  C   UNL     1       0.992   3.567  20.091  0.00  0.00    +0.000 A 
ATOM     24  C   UNL     1       1.018   2.958  18.843  0.00  0.00    +0.000 A 
ATOM     25  F   UNL     1       0.443   1.759  18.680  0.00  0.00    +0.000 F 
ATOM     26  C   UNL     1       1.640   3.570  17.761  0.00  0.00    +0.000 A 
ATOM     27  C   UNL     1       2.259   4.809  17.933  0.00  0.00    +0.000 A 
ENDBRANCH  20  21
ENDBRANCH   7  20
TORSDOF 3
ENDMDL
MODEL 9
REMARK VINA RESULT:      -7.8      6.667      8.350
REMARK  Name = 
REMARK  3 active torsions:
REMARK  status: ('A' for Active; 'I' for Inactive)
REMARK    1  A    between atoms: C_2  and  C_17
REMARK    2  A    between atoms: C_7  and  C_8
REMARK    3  A    between atoms: C_8  and  C_9
REMARK                            x       y       z     vdW  Elec       q    Type
REMARK                         _______ _______ _______ _____ _____    ______ ____
ROOT
ATOM      1  O   UNL     1       2.076   6.480  20.363  0.00  0.00    +0.000 OA
ATOM      2  C   UNL     1       2.160   7.355  19.508  0.00  0.00    +0.000 C 
ATOM      3  N   UNL     1       2.951   7.349  18.379  0.00  0.00    +0.000 N 
ATOM      4  C   UNL     1       3.761   6.279  18.109  0.00  0.00    +0.000 A 
ATOM      5  N   UNL     1       3.727   5.081  18.628  0.00  0.00    +0.000 NA
ATOM      6  C   UNL     1       4.806   4.355  18.176  0.00  0.00    +0.000 A 
ATOM      7  C   UNL     1       5.649   5.016  17.304  0.00  0.00    +0.000 A 
ATOM      8  S   UNL     1       4.995   6.574  16.967  0.00  0.00    +0.000 S 
ATOM      9  H   UNL     1       3.103   8.187  17.839  0.00  0.00    +0.000 HD
ENDROOT
BRANCH   2  10
ATOM     10  C   UNL     1       1.392   8.601  19.747  0.00  0.00    +0.000 A 
ATOM     11  C   UNL     1       1.141   9.441  18.661  0.00  0.00    +0.000 A 
ATOM     12  C   UNL     1       0.454  10.637  18.851  0.00  0.00    +0.000 A 
ATOM     13  C   UNL     1       0.024  11.020  20.112  0.00  0.00    +0.000 A 
ATOM     14  N   UNL     1      -0.631  12.187  20.261  0.00  0.00    +0.000 NA
ATOM     15  C   UNL     1      -1.007  12.506  21.518  0.00  0.00    +0.000 A 
ATOM     16  C   UNL     1      -0.743  11.687  22.597  0.00  0.00    +0.000 A 
ATOM     17  N   UNL     1      -0.095  10.507  22.466  0.00  0.00    +0.000 NA
ATOM     18  C   UNL     1       0.292  10.171  21.220  0.00  0.00    +0.000 A 
ATOM     19  C   UNL     1       0.969   8.977  21.025  0.00  0.00    +0.000 A 
ENDBRANCH   2  10
BRANCH   7  20
ATOM     20  C   UNL     1       6.947   4.549  16.728  0.00  0.00    +0.000 C 
BRANCH  20  21
ATOM     21  C   UNL     1       6.925   4.552  15.212  0.00  0.00    +0.000 A 
ATOM     22  C   UNL     1       6.031   3.727  14.508  0.00  0.00    +0.000 A 
ATOM     23  C   UNL     1       6.074   3.668  13.113  0.00  0.00    +0.000 A 
ATOM     24  C   UNL     1       7.007   4.430  12.423  0.00  0.00    +0.000 A 
ATOM     25  F   UNL     1       7.062   4.356  11.087  0.00  0.00    +0.000 F 
ATOM     26  C   UNL     1       7.891   5.262  13.098  0.00  0.00    +0.000 A 
ATOM     27  C   UNL     1       7.850   5.324  14.492  0.00  0.00    +0.000 A 
ENDBRANCH  20  21
ENDBRANCH   7  20
TORSDOF 3
ENDMDL
