MODEL 1
REMARK VINA RESULT:      -9.0      0.000      0.000
REMARK  Name = 
REMARK  8 active torsions:
REMARK  status: ('A' for Active; 'I' for Inactive)
REMARK    1  A    between atoms: C_1  and  C_2
REMARK    2  A    between atoms: C_2  and  C_3
REMARK    3  A    between atoms: C_7  and  C_8
REMARK    4  A    between atoms: N_13  and  C_14
REMARK    5  A    between atoms: C_18  and  C_19
REMARK    6  A    between atoms: C_19  and  C_20
REMARK    7  A    between atoms: C_20  and  C_21
REMARK    8  A    between atoms: N_25  and  C_26
REMARK                            x       y       z     vdW  Elec       q    Type
REMARK                         _______ _______ _______ _____ _____    ______ ____
ROOT
ATOM      1  C   UNL     1       2.850   6.438  19.028  0.00  0.00    +0.000 A 
ATOM      2  C   UNL     1       2.727   5.486  20.042  0.00  0.00    +0.000 A 
ATOM      3  C   UNL     1       3.386   4.262  19.961  0.00  0.00    +0.000 A 
ATOM      4  C   UNL     1       4.198   3.982  18.868  0.00  0.00    +0.000 A 
ATOM      5  C   UNL     1       4.365   4.903  17.817  0.00  0.00    +0.000 A 
ATOM      6  C   UNL     1       3.618   6.100  17.900  0.00  0.00    +0.000 A 
ENDROOT
BRANCH   1  14
ATOM      7  C   UNL     1      -0.665  11.182  18.749  0.00  0.00    +0.000 A 
ATOM      8  C   UNL     1       0.273  10.496  17.992  0.00  0.00    +0.000 A 
ATOM      9  C   UNL     1       1.039   9.585  18.678  0.00  0.00    +0.000 A 
ATOM     10  C   UNL     1       0.896   9.348  20.034  0.00  0.00    +0.000 A 
ATOM     11  C   UNL     1      -0.033  10.081  20.727  0.00  0.00    +0.000 A 
ATOM     12  N   UNL     1      -0.818  10.993  20.095  0.00  0.00    +0.000 NA
ATOM     13  C   UNL     1       1.780   8.231  20.452  0.00  0.00    +0.000 C 
ATOM     14  N   UNL     1       2.331   7.754  19.183  0.00  0.00    +0.000 N 
ATOM     15  C   UNL     1       1.984   8.612  18.132  0.00  0.00    +0.000 C 
ATOM     16  O   UNL     1       2.291   8.613  16.957  0.00  0.00    +0.000 OA
BRANCH  11  17
ATOM     17  C   UNL     1      -0.262   9.892  22.116  0.00  0.00    +0.000 C 
ATOM     18  C   UNL     1      -0.012   9.299  23.251  0.00  0.00    +0.000 C 
ATOM     19  C   UNL     1      -1.015  10.326  23.258  0.00  0.00    +0.000 C 
ENDBRANCH  11  17
BRANCH   7  21
ATOM     20  C   UNL     1      -2.744  11.388  17.363  0.00  0.00    +0.000 C 
ATOM     21  C   UNL     1      -1.619  12.131  18.070  0.00  0.00    +0.000 C 
ENDBRANCH   7  21
ENDBRANCH   1  14
BRANCH   5  22
ATOM     22  C   UNL     1       5.440   4.650  16.654  0.00  0.00    +0.000 C 
ATOM     23  C   UNL     1       5.283   5.583  15.416  0.00  0.00    +0.000 C 
ATOM     24  O   UNL     1       5.482   4.470  14.513  0.00  0.00    +0.000 OA
ATOM     25  C   UNL     1       5.146   3.551  15.589  0.00  0.00    +0.000 C 
BRANCH  22  26
ATOM     26  C   UNL     1       6.884   4.646  17.178  0.00  0.00    +0.000 C 
BRANCH  26  27
ATOM     27  C   UNL     1       7.420   6.005  17.476  0.00  0.00    +0.000 A 
ATOM     28  N   UNL     1       7.456   7.025  16.641  0.00  0.00    +0.000 NA
ATOM     29  N   UNL     1       7.947   8.117  17.314  0.00  0.00    +0.000 NA
ATOM     30  C   UNL     1       8.202   7.744  18.546  0.00  0.00    +0.000 A 
ATOM     31  N   UNL     1       7.909   6.422  18.687  0.00  0.00    +0.000 N 
ATOM     32  C   UNL     1       8.079   5.651  19.889  0.00  0.00    +0.000 C 
ENDBRANCH  26  27
ENDBRANCH  22  26
ENDBRANCH   5  22
TORSDOF 6
ENDMDL
MODEL 2
REMARK VINA RESULT:      -8.9      1.604      2.593
REMARK  Name = 
REMARK  8 active torsions:
REMARK  status: ('A' for Active; 'I' for Inactive)
REMARK    1  A    between atoms: C_1  and  C_2
REMARK    2  A    between atoms: C_2  and  C_3
REMARK    3  A    between atoms: C_7  and  C_8
REMARK    4  A    between atoms: N_13  and  C_14
REMARK    5  A    between atoms: C_18  and  C_19
REMARK    6  A    between atoms: C_19  and  C_20
REMARK    7  A    between atoms: C_20  and  C_21
REMARK    8  A    between atoms: N_25  and  C_26
REMARK                            x       y       z     vdW  Elec       q    Type
REMARK                         _______ _______ _______ _____ _____    ______ ____
ROOT
ATOM      1  C   UNL     1       2.989   6.779  19.222  0.00  0.00    +0.000 A 
ATOM      2  C   UNL     1       2.481   5.633  19.839  0.00  0.00    +0.000 A 
ATOM      3  C   UNL     1       3.246   4.473  19.940  0.00  0.00    +0.000 A 
ATOM      4  C   UNL     1       4.543   4.451  19.440  0.00  0.00    +0.000 A 
ATOM      5  C   UNL     1       5.112   5.576  18.813  0.00  0.00    +0.000 A 
ATOM      6  C   UNL     1       4.276   6.706  18.662  0.00  0.00    +0.000 A 
ENDROOT
BRANCH   1  14
ATOM      7  C   UNL     1      -1.182  10.926  18.646  0.00  0.00    +0.000 A 
ATOM      8  C   UNL     1      -0.178  10.307  17.918  0.00  0.00    +0.000 A 
ATOM      9  C   UNL     1       0.732   9.587  18.654  0.00  0.00    +0.000 A 
ATOM     10  C   UNL     1       0.666   9.471  20.031  0.00  0.00    +0.000 A 
ATOM     11  C   UNL     1      -0.338  10.131  20.691  0.00  0.00    +0.000 A 
ATOM     12  N   UNL     1      -1.265  10.854  20.010  0.00  0.00    +0.000 NA
ATOM     13  C   UNL     1       1.715   8.537  20.514  0.00  0.00    +0.000 C 
ATOM     14  N   UNL     1       2.290   8.017  19.274  0.00  0.00    +0.000 N 
ATOM     15  C   UNL     1       1.791   8.707  18.162  0.00  0.00    +0.000 C 
ATOM     16  O   UNL     1       2.060   8.632  16.979  0.00  0.00    +0.000 OA
BRANCH  11  17
ATOM     17  C   UNL     1      -0.495  10.053  22.101  0.00  0.00    +0.000 C 
ATOM     18  C   UNL     1      -1.039  10.449  23.219  0.00  0.00    +0.000 C 
ATOM     19  C   UNL     1      -0.089   9.375  23.299  0.00  0.00    +0.000 C 
ENDBRANCH  11  17
BRANCH   7  21
ATOM     20  C   UNL     1      -3.457  10.741  17.611  0.00  0.00    +0.000 C 
ATOM     21  C   UNL     1      -2.283  11.658  17.923  0.00  0.00    +0.000 C 
ENDBRANCH   7  21
ENDBRANCH   1  14
BRANCH   5  22
ATOM     22  C   UNL     1       6.661   5.602  18.404  0.00  0.00    +0.000 C 
ATOM     23  C   UNL     1       7.642   5.796  19.600  0.00  0.00    +0.000 C 
ATOM     24  O   UNL     1       8.423   6.752  18.844  0.00  0.00    +0.000 OA
ATOM     25  C   UNL     1       7.293   6.952  17.951  0.00  0.00    +0.000 C 
BRANCH  22  26
ATOM     26  C   UNL     1       7.062   4.400  17.535  0.00  0.00    +0.000 C 
BRANCH  26  27
ATOM     27  C   UNL     1       6.805   4.597  16.080  0.00  0.00    +0.000 A 
ATOM     28  N   UNL     1       7.643   5.124  15.208  0.00  0.00    +0.000 NA
ATOM     29  N   UNL     1       7.067   5.058  13.962  0.00  0.00    +0.000 NA
ATOM     30  C   UNL     1       5.891   4.494  14.097  0.00  0.00    +0.000 A 
ATOM     31  N   UNL     1       5.672   4.210  15.410  0.00  0.00    +0.000 N 
ATOM     32  C   UNL     1       4.484   3.608  15.950  0.00  0.00    +0.000 C 
ENDBRANCH  26  27
ENDBRANCH  22  26
ENDBRANCH   5  22
TORSDOF 6
ENDMDL
MODEL 3
REMARK VINA RESULT:      -8.8      2.027      8.236
REMARK  Name = 
REMARK  8 active torsions:
REMARK  status: ('A' for Active; 'I' for Inactive)
REMARK    1  A    between atoms: C_1  and  C_2
REMARK    2  A    between atoms: C_2  and  C_3
REMARK    3  A    between atoms: C_7  and  C_8
REMARK    4  A    between atoms: N_13  and  C_14
REMARK    5  A    between atoms: C_18  and  C_19
REMARK    6  A    between atoms: C_19  and  C_20
REMARK    7  A    between atoms: C_20  and  C_21
REMARK    8  A    between atoms: N_25  and  C_26
REMARK                            x       y       z     vdW  Elec       q    Type
REMARK                         _______ _______ _______ _____ _____    ______ ____
ROOT
ATOM      1  C   UNL     1       2.987   5.136  19.568  0.00  0.00    +0.000 A 
ATOM      2  C   UNL     1       2.070   4.108  19.796  0.00  0.00    +0.000 A 
ATOM      3  C   UNL     1       0.852   4.358  20.423  0.00  0.00    +0.000 A 
ATOM      4  C   UNL     1       0.525   5.651  20.813  0.00  0.00    +0.000 A 
ATOM      5  C   UNL     1       1.406   6.730  20.607  0.00  0.00    +0.000 A 
ATOM      6  C   UNL     1       2.663   6.421  20.038  0.00  0.00    +0.000 A 
ENDROOT
BRANCH   1  14
ATOM      7  C   UNL     1       6.708   4.887  14.983  0.00  0.00    +0.000 A 
ATOM      8  C   UNL     1       5.686   4.161  15.575  0.00  0.00    +0.000 A 
ATOM      9  C   UNL     1       5.346   4.545  16.850  0.00  0.00    +0.000 A 
ATOM     10  C   UNL     1       5.967   5.588  17.515  0.00  0.00    +0.000 A 
ATOM     11  C   UNL     1       6.988   6.246  16.881  0.00  0.00    +0.000 A 
ATOM     12  N   UNL     1       7.361   5.908  15.618  0.00  0.00    +0.000 NA
ATOM     13  C   UNL     1       5.299   5.829  18.819  0.00  0.00    +0.000 C 
ATOM     14  N   UNL     1       4.148   4.927  18.772  0.00  0.00    +0.000 N 
ATOM     15  C   UNL     1       4.219   4.082  17.658  0.00  0.00    +0.000 C 
ATOM     16  O   UNL     1       3.513   3.161  17.298  0.00  0.00    +0.000 OA
BRANCH  11  17
ATOM     17  C   UNL     1       7.669   7.341  17.478  0.00  0.00    +0.000 C 
ATOM     18  C   UNL     1       8.053   8.588  17.487  0.00  0.00    +0.000 C 
ATOM     19  C   UNL     1       8.443   7.777  18.606  0.00  0.00    +0.000 C 
ENDBRANCH  11  17
BRANCH   7  21
ATOM     20  C   UNL     1       6.143   3.605  12.905  0.00  0.00    +0.000 C 
ATOM     21  C   UNL     1       7.088   4.607  13.551  0.00  0.00    +0.000 C 
ENDBRANCH   7  21
ENDBRANCH   1  14
BRANCH   5  22
ATOM     22  C   UNL     1       0.950   8.240  20.892  0.00  0.00    +0.000 C 
ATOM     23  C   UNL     1       1.492   8.837  22.226  0.00  0.00    +0.000 C 
ATOM     24  O   UNL     1       0.200   9.412  22.530  0.00  0.00    +0.000 OA
ATOM     25  C   UNL     1      -0.419   8.489  21.592  0.00  0.00    +0.000 C 
BRANCH  22  26
ATOM     26  C   UNL     1       1.227   9.174  19.704  0.00  0.00    +0.000 C 
BRANCH  26  27
ATOM     27  C   UNL     1       0.141  10.165  19.453  0.00  0.00    +0.000 A 
ATOM     28  N   UNL     1      -0.998   9.928  18.832  0.00  0.00    +0.000 NA
ATOM     29  N   UNL     1      -1.759  11.071  18.874  0.00  0.00    +0.000 NA
ATOM     30  C   UNL     1      -1.071  11.983  19.519  0.00  0.00    +0.000 A 
ATOM     31  N   UNL     1       0.136  11.468  19.881  0.00  0.00    +0.000 N 
ATOM     32  C   UNL     1       1.171  12.176  20.584  0.00  0.00    +0.000 C 
ENDBRANCH  26  27
ENDBRANCH  22  26
ENDBRANCH   5  22
TORSDOF 6
ENDMDL
MODEL 4
REMARK VINA RESULT:      -8.8      2.484      8.507
REMARK  Name = 
REMARK  8 active torsions:
REMARK  status: ('A' for Active; 'I' for Inactive)
REMARK    1  A    between atoms: C_1  and  C_2
REMARK    2  A    between atoms: C_2  and  C_3
REMARK    3  A    between atoms: C_7  and  C_8
REMARK    4  A    between atoms: N_13  and  C_14
REMARK    5  A    between atoms: C_18  and  C_19
REMARK    6  A    between atoms: C_19  and  C_20
REMARK    7  A    between atoms: C_20  and  C_21
REMARK    8  A    between atoms: N_25  and  C_26
REMARK                            x       y       z     vdW  Elec       q    Type
REMARK                         _______ _______ _______ _____ _____    ______ ____
ROOT
ATOM      1  C   UNL     1       1.620   8.292  19.861  0.00  0.00    +0.000 A 
ATOM      2  C   UNL     1       1.426   7.988  21.210  0.00  0.00    +0.000 A 
ATOM      3  C   UNL     1       0.692   8.832  22.039  0.00  0.00    +0.000 A 
ATOM      4  C   UNL     1       0.121   9.989  21.520  0.00  0.00    +0.000 A 
ATOM      5  C   UNL     1       0.277  10.347  20.168  0.00  0.00    +0.000 A 
ATOM      6  C   UNL     1       1.094   9.504  19.380  0.00  0.00    +0.000 A 
ENDROOT
BRANCH   1  14
ATOM      7  C   UNL     1       5.560   5.253  16.672  0.00  0.00    +0.000 A 
ATOM      8  C   UNL     1       4.837   6.435  16.639  0.00  0.00    +0.000 A 
ATOM      9  C   UNL     1       3.795   6.520  17.531  0.00  0.00    +0.000 A 
ATOM     10  C   UNL     1       3.475   5.505  18.416  0.00  0.00    +0.000 A 
ATOM     11  C   UNL     1       4.216   4.353  18.377  0.00  0.00    +0.000 A 
ATOM     12  N   UNL     1       5.258   4.219  17.516  0.00  0.00    +0.000 NA
ATOM     13  C   UNL     1       2.383   5.945  19.321  0.00  0.00    +0.000 C 
ATOM     14  N   UNL     1       2.210   7.354  18.969  0.00  0.00    +0.000 N 
ATOM     15  C   UNL     1       2.966   7.684  17.837  0.00  0.00    +0.000 C 
ATOM     16  O   UNL     1       3.046   8.711  17.193  0.00  0.00    +0.000 OA
BRANCH  11  17
ATOM     17  C   UNL     1       3.972   3.267  19.261  0.00  0.00    +0.000 C 
ATOM     18  C   UNL     1       4.382   2.350  20.094  0.00  0.00    +0.000 C 
ATOM     19  C   UNL     1       2.970   2.425  19.850  0.00  0.00    +0.000 C 
ENDBRANCH  11  17
BRANCH   7  21
ATOM     20  C   UNL     1       6.476   4.310  14.537  0.00  0.00    +0.000 C 
ATOM     21  C   UNL     1       6.781   5.102  15.801  0.00  0.00    +0.000 C 
ENDBRANCH   7  21
ENDBRANCH   1  14
BRANCH   5  22
ATOM     22  C   UNL     1      -0.530  11.580  19.538  0.00  0.00    +0.000 C 
ATOM     23  C   UNL     1      -1.734  12.072  20.398  0.00  0.00    +0.000 C 
ATOM     24  O   UNL     1      -2.572  12.175  19.222  0.00  0.00    +0.000 OA
ATOM     25  C   UNL     1      -1.666  11.286  18.512  0.00  0.00    +0.000 C 
BRANCH  22  26
ATOM     26  C   UNL     1       0.390  12.744  19.138  0.00  0.00    +0.000 C 
BRANCH  26  27
ATOM     27  C   UNL     1       0.765  13.631  20.276  0.00  0.00    +0.000 A 
ATOM     28  N   UNL     1       1.627  13.345  21.233  0.00  0.00    +0.000 NA
ATOM     29  N   UNL     1       1.754  14.446  22.044  0.00  0.00    +0.000 NA
ATOM     30  C   UNL     1       0.969  15.383  21.569  0.00  0.00    +0.000 A 
ATOM     31  N   UNL     1       0.310  14.910  20.475  0.00  0.00    +0.000 N 
ATOM     32  C   UNL     1      -0.653  15.641  19.698  0.00  0.00    +0.000 C 
ENDBRANCH  26  27
ENDBRANCH  22  26
ENDBRANCH   5  22
TORSDOF 6
ENDMDL
MODEL 5
REMARK VINA RESULT:      -8.7      3.173      9.363
REMARK  Name = 
REMARK  8 active torsions:
REMARK  status: ('A' for Active; 'I' for Inactive)
REMARK    1  A    between atoms: C_1  and  C_2
REMARK    2  A    between atoms: C_2  and  C_3
REMARK    3  A    between atoms: C_7  and  C_8
REMARK    4  A    between atoms: N_13  and  C_14
REMARK    5  A    between atoms: C_18  and  C_19
REMARK    6  A    between atoms: C_19  and  C_20
REMARK    7  A    between atoms: C_20  and  C_21
REMARK    8  A    between atoms: N_25  and  C_26
REMARK                            x       y       z     vdW  Elec       q    Type
REMARK                         _______ _______ _______ _____ _____    ______ ____
ROOT
ATOM      1  C   UNL     1       0.837  10.066  18.716  0.00  0.00    +0.000 A 
ATOM      2  C   UNL     1       1.082  11.367  19.159  0.00  0.00    +0.000 A 
ATOM      3  C   UNL     1       0.194  12.402  18.876  0.00  0.00    +0.000 A 
ATOM      4  C   UNL     1      -0.968  12.142  18.159  0.00  0.00    +0.000 A 
ATOM      5  C   UNL     1      -1.274  10.851  17.690  0.00  0.00    +0.000 A 
ATOM      6  C   UNL     1      -0.309   9.846  17.931  0.00  0.00    +0.000 A 
ENDROOT
BRANCH   1  14
ATOM      7  C   UNL     1       2.628   4.644  20.241  0.00  0.00    +0.000 A 
ATOM      8  C   UNL     1       1.955   5.738  20.764  0.00  0.00    +0.000 A 
ATOM      9  C   UNL     1       2.076   6.906  20.051  0.00  0.00    +0.000 A 
ATOM     10  C   UNL     1       2.811   7.004  18.882  0.00  0.00    +0.000 A 
ATOM     11  C   UNL     1       3.472   5.890  18.435  0.00  0.00    +0.000 A 
ATOM     12  N   UNL     1       3.384   4.709  19.102  0.00  0.00    +0.000 NA
ATOM     13  C   UNL     1       2.649   8.357  18.292  0.00  0.00    +0.000 C 
ATOM     14  N   UNL     1       1.638   8.973  19.150  0.00  0.00    +0.000 N 
ATOM     15  C   UNL     1       1.364   8.166  20.261  0.00  0.00    +0.000 C 
ATOM     16  O   UNL     1       0.652   8.341  21.230  0.00  0.00    +0.000 OA
BRANCH  11  17
ATOM     17  C   UNL     1       4.234   5.893  17.236  0.00  0.00    +0.000 C 
ATOM     18  C   UNL     1       4.797   5.278  16.232  0.00  0.00    +0.000 C 
ATOM     19  C   UNL     1       4.925   6.707  16.278  0.00  0.00    +0.000 C 
ENDBRANCH  11  17
BRANCH   7  21
ATOM     20  C   UNL     1       1.561   2.380  20.098  0.00  0.00    +0.000 C 
ATOM     21  C   UNL     1       2.478   3.295  20.897  0.00  0.00    +0.000 C 
ENDBRANCH   7  21
ENDBRANCH   1  14
BRANCH   5  22
ATOM     22  C   UNL     1      -2.695  10.524  17.025  0.00  0.00    +0.000 C 
ATOM     23  C   UNL     1      -2.645   9.467  15.880  0.00  0.00    +0.000 C 
ATOM     24  O   UNL     1      -3.533  10.265  15.062  0.00  0.00    +0.000 OA
ATOM     25  C   UNL     1      -3.207  11.432  15.867  0.00  0.00    +0.000 C 
BRANCH  22  26
ATOM     26  C   UNL     1      -3.767  10.174  18.068  0.00  0.00    +0.000 C 
BRANCH  26  27
ATOM     27  C   UNL     1      -4.812  11.225  18.231  0.00  0.00    +0.000 A 
ATOM     28  N   UNL     1      -5.943  11.306  17.556  0.00  0.00    +0.000 NA
ATOM     29  N   UNL     1      -6.667  12.364  18.051  0.00  0.00    +0.000 NA
ATOM     30  C   UNL     1      -5.965  12.908  19.016  0.00  0.00    +0.000 A 
ATOM     31  N   UNL     1      -4.785  12.244  19.149  0.00  0.00    +0.000 N 
ATOM     32  C   UNL     1      -3.745  12.564  20.087  0.00  0.00    +0.000 C 
ENDBRANCH  26  27
ENDBRANCH  22  26
ENDBRANCH   5  22
TORSDOF 6
ENDMDL
MODEL 6
REMARK VINA RESULT:      -8.6      3.555      5.625
REMARK  Name = 
REMARK  8 active torsions:
REMARK  status: ('A' for Active; 'I' for Inactive)
REMARK    1  A    between atoms: C_1  and  C_2
REMARK    2  A    between atoms: C_2  and  C_3
REMARK    3  A    between atoms: C_7  and  C_8
REMARK    4  A    between atoms: N_13  and  C_14
REMARK    5  A    between atoms: C_18  and  C_19
REMARK    6  A    between atoms: C_19  and  C_20
REMARK    7  A    between atoms: C_20  and  C_21
REMARK    8  A    between atoms: N_25  and  C_26
REMARK                            x       y       z     vdW  Elec       q    Type
REMARK                         _______ _______ _______ _____ _____    ______ ____
ROOT
ATOM      1  C   UNL     1       1.150   9.831  19.444  0.00  0.00    +0.000 A 
ATOM      2  C   UNL     1       0.878   9.624  20.798  0.00  0.00    +0.000 A 
ATOM      3  C   UNL     1       1.159   8.405  21.409  0.00  0.00    +0.000 A 
ATOM      4  C   UNL     1       1.739   7.378  20.674  0.00  0.00    +0.000 A 
ATOM      5  C   UNL     1       2.041   7.527  19.307  0.00  0.00    +0.000 A 
ATOM      6  C   UNL     1       1.669   8.752  18.707  0.00  0.00    +0.000 A 
ENDROOT
BRANCH   1  14
ATOM      7  C   UNL     1       0.109  15.595  18.656  0.00  0.00    +0.000 A 
ATOM      8  C   UNL     1      -0.555  14.378  18.675  0.00  0.00    +0.000 A 
ATOM      9  C   UNL     1       0.245  13.264  18.607  0.00  0.00    +0.000 A 
ATOM     10  C   UNL     1       1.625  13.329  18.529  0.00  0.00    +0.000 A 
ATOM     11  C   UNL     1       2.215  14.565  18.488  0.00  0.00    +0.000 A 
ATOM     12  N   UNL     1       1.469  15.699  18.555  0.00  0.00    +0.000 NA
ATOM     13  C   UNL     1       2.203  11.962  18.589  0.00  0.00    +0.000 C 
ATOM     14  N   UNL     1       1.037  11.122  18.856  0.00  0.00    +0.000 N 
ATOM     15  C   UNL     1      -0.148  11.864  18.766  0.00  0.00    +0.000 C 
ATOM     16  O   UNL     1      -1.314  11.534  18.848  0.00  0.00    +0.000 OA
BRANCH  11  17
ATOM     17  C   UNL     1       3.626  14.729  18.428  0.00  0.00    +0.000 C 
ATOM     18  C   UNL     1       4.784  14.509  17.869  0.00  0.00    +0.000 C 
ATOM     19  C   UNL     1       4.770  15.340  19.040  0.00  0.00    +0.000 C 
ENDBRANCH  11  17
BRANCH   7  21
ATOM     20  C   UNL     1      -0.116  17.992  17.955  0.00  0.00    +0.000 C 
ATOM     21  C   UNL     1      -0.673  16.873  18.825  0.00  0.00    +0.000 C 
ENDBRANCH   7  21
ENDBRANCH   1  14
BRANCH   5  22
ATOM     22  C   UNL     1       2.872   6.409  18.514  0.00  0.00    +0.000 C 
ATOM     23  C   UNL     1       4.065   5.802  19.313  0.00  0.00    +0.000 C 
ATOM     24  O   UNL     1       4.924   5.883  18.151  0.00  0.00    +0.000 OA
ATOM     25  C   UNL     1       4.022   6.862  17.566  0.00  0.00    +0.000 C 
BRANCH  22  26
ATOM     26  C   UNL     1       1.971   5.312  17.927  0.00  0.00    +0.000 C 
BRANCH  26  27
ATOM     27  C   UNL     1       1.789   4.137  18.827  0.00  0.00    +0.000 A 
ATOM     28  N   UNL     1       0.993   4.079  19.877  0.00  0.00    +0.000 NA
ATOM     29  N   UNL     1       1.049   2.806  20.392  0.00  0.00    +0.000 NA
ATOM     30  C   UNL     1       1.877   2.113  19.648  0.00  0.00    +0.000 A 
ATOM     31  N   UNL     1       2.384   2.911  18.669  0.00  0.00    +0.000 N 
ATOM     32  C   UNL     1       3.341   2.511  17.674  0.00  0.00    +0.000 C 
ENDBRANCH  26  27
ENDBRANCH  22  26
ENDBRANCH   5  22
TORSDOF 6
ENDMDL
MODEL 7
REMARK VINA RESULT:      -8.5      2.254      8.733
REMARK  Name = 
REMARK  8 active torsions:
REMARK  status: ('A' for Active; 'I' for Inactive)
REMARK    1  A    between atoms: C_1  and  C_2
REMARK    2  A    between atoms: C_2  and  C_3
REMARK    3  A    between atoms: C_7  and  C_8
REMARK    4  A    between atoms: N_13  and  C_14
REMARK    5  A    between atoms: C_18  and  C_19
REMARK    6  A    between atoms: C_19  and  C_20
REMARK    7  A    between atoms: C_20  and  C_21
REMARK    8  A    between atoms: N_25  and  C_26
REMARK                            x       y       z     vdW  Elec       q    Type
REMARK                         _______ _______ _______ _____ _____    ______ ____
ROOT
ATOM      1  C   UNL     1       1.556   8.342  19.784  0.00  0.00    +0.000 A 
ATOM      2  C   UNL     1       1.552   8.097  21.159  0.00  0.00    +0.000 A 
ATOM      3  C   UNL     1       0.808   8.891  22.028  0.00  0.00    +0.000 A 
ATOM      4  C   UNL     1       0.037   9.933  21.527  0.00  0.00    +0.000 A 
ATOM      5  C   UNL     1      -0.005  10.226  20.151  0.00  0.00    +0.000 A 
ATOM      6  C   UNL     1       0.824   9.446  19.313  0.00  0.00    +0.000 A 
ENDROOT
BRANCH   1  14
ATOM      7  C   UNL     1       5.565   5.344  16.642  0.00  0.00    +0.000 A 
ATOM      8  C   UNL     1       4.883   6.551  16.637  0.00  0.00    +0.000 A 
ATOM      9  C   UNL     1       3.797   6.623  17.476  0.00  0.00    +0.000 A 
ATOM     10  C   UNL     1       3.398   5.574  18.285  0.00  0.00    +0.000 A 
ATOM     11  C   UNL     1       4.102   4.400  18.221  0.00  0.00    +0.000 A 
ATOM     12  N   UNL     1       5.185   4.277  17.410  0.00  0.00    +0.000 NA
ATOM     13  C   UNL     1       2.272   6.002  19.155  0.00  0.00    +0.000 C 
ATOM     14  N   UNL     1       2.163   7.433  18.873  0.00  0.00    +0.000 N 
ATOM     15  C   UNL     1       2.990   7.798  17.803  0.00  0.00    +0.000 C 
ATOM     16  O   UNL     1       3.138   8.855  17.223  0.00  0.00    +0.000 OA
BRANCH  11  17
ATOM     17  C   UNL     1       3.776   3.277  19.029  0.00  0.00    +0.000 C 
ATOM     18  C   UNL     1       3.048   2.228  19.297  0.00  0.00    +0.000 C 
ATOM     19  C   UNL     1       4.126   2.522  20.198  0.00  0.00    +0.000 C 
ENDBRANCH  11  17
BRANCH   7  21
ATOM     20  C   UNL     1       6.533   4.710  14.418  0.00  0.00    +0.000 C 
ATOM     21  C   UNL     1       6.826   5.199  15.830  0.00  0.00    +0.000 C 
ENDBRANCH   7  21
ENDBRANCH   1  14
BRANCH   5  22
ATOM     22  C   UNL     1      -1.032  11.307  19.564  0.00  0.00    +0.000 C 
ATOM     23  C   UNL     1      -0.461  12.178  18.404  0.00  0.00    +0.000 C 
ATOM     24  O   UNL     1      -1.033  13.376  18.981  0.00  0.00    +0.000 OA
ATOM     25  C   UNL     1      -1.139  12.696  20.262  0.00  0.00    +0.000 C 
BRANCH  22  26
ATOM     26  C   UNL     1      -2.388  10.689  19.188  0.00  0.00    +0.000 C 
BRANCH  26  27
ATOM     27  C   UNL     1      -2.602  10.556  17.719  0.00  0.00    +0.000 A 
ATOM     28  N   UNL     1      -1.853   9.861  16.884  0.00  0.00    +0.000 NA
ATOM     29  N   UNL     1      -2.423   9.926  15.636  0.00  0.00    +0.000 NA
ATOM     30  C   UNL     1      -3.507  10.658  15.731  0.00  0.00    +0.000 A 
ATOM     31  N   UNL     1      -3.647  11.095  17.013  0.00  0.00    +0.000 N 
ATOM     32  C   UNL     1      -4.704  11.941  17.498  0.00  0.00    +0.000 C 
ENDBRANCH  26  27
ENDBRANCH  22  26
ENDBRANCH   5  22
TORSDOF 6
ENDMDL
MODEL 8
REMARK VINA RESULT:      -8.5      2.557      8.746
REMARK  Name = 
REMARK  8 active torsions:
REMARK  status: ('A' for Active; 'I' for Inactive)
REMARK    1  A    between atoms: C_1  and  C_2
REMARK    2  A    between atoms: C_2  and  C_3
REMARK    3  A    between atoms: C_7  and  C_8
REMARK    4  A    between atoms: N_13  and  C_14
REMARK    5  A    between atoms: C_18  and  C_19
REMARK    6  A    between atoms: C_19  and  C_20
REMARK    7  A    between atoms: C_20  and  C_21
REMARK    8  A    between atoms: N_25  and  C_26
REMARK                            x       y       z     vdW  Elec       q    Type
REMARK                         _______ _______ _______ _____ _____    ______ ____
ROOT
ATOM      1  C   UNL     1       1.464   8.600  20.185  0.00  0.00    +0.000 A 
ATOM      2  C   UNL     1       1.274   8.290  21.534  0.00  0.00    +0.000 A 
ATOM      3  C   UNL     1       0.596   9.161  22.383  0.00  0.00    +0.000 A 
ATOM      4  C   UNL     1       0.078  10.351  21.886  0.00  0.00    +0.000 A 
ATOM      5  C   UNL     1       0.232  10.717  20.535  0.00  0.00    +0.000 A 
ATOM      6  C   UNL     1       0.993   9.843  19.726  0.00  0.00    +0.000 A 
ENDROOT
BRANCH   1  14
ATOM      7  C   UNL     1       5.178   5.498  16.793  0.00  0.00    +0.000 A 
ATOM      8  C   UNL     1       4.451   6.678  16.786  0.00  0.00    +0.000 A 
ATOM      9  C   UNL     1       3.474   6.780  17.746  0.00  0.00    +0.000 A 
ATOM     10  C   UNL     1       3.221   5.785  18.674  0.00  0.00    +0.000 A 
ATOM     11  C   UNL     1       3.959   4.633  18.608  0.00  0.00    +0.000 A 
ATOM     12  N   UNL     1       4.939   4.482  17.678  0.00  0.00    +0.000 NA
ATOM     13  C   UNL     1       2.193   6.243  19.643  0.00  0.00    +0.000 C 
ATOM     14  N   UNL     1       1.992   7.644  19.274  0.00  0.00    +0.000 N 
ATOM     15  C   UNL     1       2.666   7.951  18.085  0.00  0.00    +0.000 C 
ATOM     16  O   UNL     1       2.698   8.964  17.415  0.00  0.00    +0.000 OA
BRANCH  11  17
ATOM     17  C   UNL     1       3.781   3.566  19.529  0.00  0.00    +0.000 C 
ATOM     18  C   UNL     1       3.092   2.942  20.445  0.00  0.00    +0.000 C 
ATOM     19  C   UNL     1       4.345   2.358  20.060  0.00  0.00    +0.000 C 
ENDBRANCH  11  17
BRANCH   7  21
ATOM     20  C   UNL     1       6.090   4.199  14.852  0.00  0.00    +0.000 C 
ATOM     21  C   UNL     1       6.335   5.330  15.842  0.00  0.00    +0.000 C 
ENDBRANCH   7  21
ENDBRANCH   1  14
BRANCH   5  22
ATOM     22  C   UNL     1      -0.521  11.997  19.931  0.00  0.00    +0.000 C 
ATOM     23  C   UNL     1      -1.423  11.693  18.697  0.00  0.00    +0.000 C 
ATOM     24  O   UNL     1      -0.928  12.865  18.007  0.00  0.00    +0.000 OA
ATOM     25  C   UNL     1       0.227  12.884  18.890  0.00  0.00    +0.000 C 
BRANCH  22  26
ATOM     26  C   UNL     1      -1.281  12.794  21.002  0.00  0.00    +0.000 C 
BRANCH  26  27
ATOM     27  C   UNL     1      -0.521  13.960  21.536  0.00  0.00    +0.000 A 
ATOM     28  N   UNL     1       0.583  13.904  22.256  0.00  0.00    +0.000 NA
ATOM     29  N   UNL     1       1.016  15.187  22.484  0.00  0.00    +0.000 NA
ATOM     30  C   UNL     1       0.170  16.002  21.900  0.00  0.00    +0.000 A 
ATOM     31  N   UNL     1      -0.823  15.279  21.314  0.00  0.00    +0.000 N 
ATOM     32  C   UNL     1      -1.944  15.825  20.598  0.00  0.00    +0.000 C 
ENDBRANCH  26  27
ENDBRANCH  22  26
ENDBRANCH   5  22
TORSDOF 6
ENDMDL
MODEL 9
REMARK VINA RESULT:      -8.5      2.002      8.219
REMARK  Name = 
REMARK  8 active torsions:
REMARK  status: ('A' for Active; 'I' for Inactive)
REMARK    1  A    between atoms: C_1  and  C_2
REMARK    2  A    between atoms: C_2  and  C_3
REMARK    3  A    between atoms: C_7  and  C_8
REMARK    4  A    between atoms: N_13  and  C_14
REMARK    5  A    between atoms: C_18  and  C_19
REMARK    6  A    between atoms: C_19  and  C_20
REMARK    7  A    between atoms: C_20  and  C_21
REMARK    8  A    between atoms: N_25  and  C_26
REMARK                            x       y       z     vdW  Elec       q    Type
REMARK                         _______ _______ _______ _____ _____    ______ ____
ROOT
ATOM      1  C   UNL     1       2.990   5.121  19.566  0.00  0.00    +0.000 A 
ATOM      2  C   UNL     1       2.079   4.086  19.791  0.00  0.00    +0.000 A 
ATOM      3  C   UNL     1       0.855   4.328  20.409  0.00  0.00    +0.000 A 
ATOM      4  C   UNL     1       0.516   5.620  20.793  0.00  0.00    +0.000 A 
ATOM      5  C   UNL     1       1.389   6.705  20.590  0.00  0.00    +0.000 A 
ATOM      6  C   UNL     1       2.652   6.405  20.031  0.00  0.00    +0.000 A 
ENDROOT
BRANCH   1  14
ATOM      7  C   UNL     1       6.761   4.946  15.019  0.00  0.00    +0.000 A 
ATOM      8  C   UNL     1       5.725   4.216  15.581  0.00  0.00    +0.000 A 
ATOM      9  C   UNL     1       5.374   4.572  16.861  0.00  0.00    +0.000 A 
ATOM     10  C   UNL     1       5.998   5.592  17.559  0.00  0.00    +0.000 A 
ATOM     11  C   UNL     1       7.033   6.255  16.952  0.00  0.00    +0.000 A 
ATOM     12  N   UNL     1       7.417   5.944  15.686  0.00  0.00    +0.000 NA
ATOM     13  C   UNL     1       5.317   5.808  18.860  0.00  0.00    +0.000 C 
ATOM     14  N   UNL     1       4.158   4.920  18.778  0.00  0.00    +0.000 N 
ATOM     15  C   UNL     1       4.233   4.101  17.644  0.00  0.00    +0.000 C 
ATOM     16  O   UNL     1       3.521   3.197  17.254  0.00  0.00    +0.000 OA
BRANCH  11  17
ATOM     17  C   UNL     1       7.718   7.327  17.584  0.00  0.00    +0.000 C 
ATOM     18  C   UNL     1       8.486   7.803  18.525  0.00  0.00    +0.000 C 
ATOM     19  C   UNL     1       8.018   8.730  17.534  0.00  0.00    +0.000 C 
ENDBRANCH  11  17
BRANCH   7  21
ATOM     20  C   UNL     1       6.241   3.676  12.921  0.00  0.00    +0.000 C 
ATOM     21  C   UNL     1       7.155   4.697  13.585  0.00  0.00    +0.000 C 
ENDBRANCH   7  21
ENDBRANCH   1  14
BRANCH   5  22
ATOM     22  C   UNL     1       0.919   8.212  20.869  0.00  0.00    +0.000 C 
ATOM     23  C   UNL     1       1.463   8.823  22.196  0.00  0.00    +0.000 C 
ATOM     24  O   UNL     1       0.166   9.387  22.503  0.00  0.00    +0.000 OA
ATOM     25  C   UNL     1      -0.449   8.452  21.574  0.00  0.00    +0.000 C 
BRANCH  22  26
ATOM     26  C   UNL     1       1.179   9.141  19.672  0.00  0.00    +0.000 C 
BRANCH  26  27
ATOM     27  C   UNL     1       0.589  10.501  19.828  0.00  0.00    +0.000 A 
ATOM     28  N   UNL     1       1.129  11.513  20.480  0.00  0.00    +0.000 NA
ATOM     29  N   UNL     1       0.317  12.610  20.327  0.00  0.00    +0.000 NA
ATOM     30  C   UNL     1      -0.703  12.248  19.586  0.00  0.00    +0.000 A 
ATOM     31  N   UNL     1      -0.589  10.929  19.269  0.00  0.00    +0.000 N 
ATOM     32  C   UNL     1      -1.528  10.171  18.489  0.00  0.00    +0.000 C 
ENDBRANCH  26  27
ENDBRANCH  22  26
ENDBRANCH   5  22
TORSDOF 6
ENDMDL
