MODEL 1
REMARK VINA RESULT:      -8.5      0.000      0.000
REMARK  Name = 
REMARK  6 active torsions:
REMARK  status: ('A' for Active; 'I' for Inactive)
REMARK    1  A    between atoms: C_1  and  C_2
REMARK    2  A    between atoms: C_3  and  C_4
REMARK    3  A    between atoms: N_6  and  C_7
REMARK    4  A    between atoms: C_7  and  C_8
REMARK    5  A    between atoms: C_12  and  O_13
REMARK    6  A    between atoms: N_17  and  C_18
REMARK                            x       y       z     vdW  Elec       q    Type
REMARK                         _______ _______ _______ _____ _____    ______ ____
ROOT
ATOM      1  C   UNL     1       2.519   8.199  17.590  0.00  0.00    +0.000 C 
ATOM      2  C   UNL     1       2.106   8.000  19.002  0.00  0.00    +0.000 A 
ATOM      3  C   UNL     1       1.306   8.781  19.829  0.00  0.00    +0.000 A 
ATOM      4  N   UNL     1       1.122   8.127  21.017  0.00  0.00    +0.000 NA
ATOM      5  N   UNL     1       1.765   6.976  20.965  0.00  0.00    +0.000 NA
ATOM      6  N   UNL     1       2.378   6.857  19.764  0.00  0.00    +0.000 N 
ENDROOT
BRANCH   6   7
ATOM      7  C   UNL     1       3.174   5.703  19.462  0.00  0.00    +0.000 A 
ATOM      8  C   UNL     1       4.569   5.860  19.354  0.00  0.00    +0.000 A 
ATOM      9  C   UNL     1       5.391   4.777  19.049  0.00  0.00    +0.000 A 
ATOM     10  C   UNL     1       4.836   3.519  18.861  0.00  0.00    +0.000 A 
ATOM     11  C   UNL     1       3.455   3.321  18.988  0.00  0.00    +0.000 A 
ATOM     12  C   UNL     1       2.912   2.046  18.800  0.00  0.00    +0.000 A 
ATOM     13  N   UNL     1       1.602   1.740  18.885  0.00  0.00    +0.000 NA
ATOM     14  C   UNL     1       0.778   2.763  19.166  0.00  0.00    +0.000 A 
ATOM     15  C   UNL     1       1.206   4.069  19.361  0.00  0.00    +0.000 A 
ATOM     16  C   UNL     1       2.585   4.399  19.294  0.00  0.00    +0.000 A 
ENDBRANCH   6   7
BRANCH   3  17
ATOM     17  C   UNL     1       0.683  10.081  19.567  0.00  0.00    +0.000 C 
ATOM     18  O   UNL     1       1.324  11.096  19.320  0.00  0.00    +0.000 OA
ATOM     19  N   UNL     1      -0.696  10.049  19.626  0.00  0.00    +0.000 N 
ATOM     20  H   UNL     1      -1.138   9.140  19.719  0.00  0.00    +0.000 HD
BRANCH  19  21
ATOM     21  C   UNL     1      -1.518  11.195  19.313  0.00  0.00    +0.000 C 
BRANCH  21  22
ATOM     22  C   UNL     1      -2.349  10.971  18.072  0.00  0.00    +0.000 A 
ATOM     23  C   UNL     1      -1.870  10.157  17.032  0.00  0.00    +0.000 A 
ATOM     24  C   UNL     1      -2.651   9.912  15.898  0.00  0.00    +0.000 A 
ATOM     25  C   UNL     1      -3.922  10.472  15.786  0.00  0.00    +0.000 A 
ATOM     26  C   UNL     1      -4.404  11.277  16.813  0.00  0.00    +0.000 A 
ATOM     27  C   UNL     1      -3.631  11.528  17.949  0.00  0.00    +0.000 A 
BRANCH  26  28
ATOM     28  O   UNL     1      -5.643  11.840  16.750  0.00  0.00    +0.000 OA
ATOM     29  H   UNL     1      -6.306  11.140  16.859  0.00  0.00    +0.000 HD
ENDBRANCH  26  28
ENDBRANCH  21  22
ENDBRANCH  19  21
ENDBRANCH   3  17
TORSDOF 5
ENDMDL
MODEL 2
REMARK VINA RESULT:      -8.3      1.287      1.593
REMARK  Name = 
REMARK  6 active torsions:
REMARK  status: ('A' for Active; 'I' for Inactive)
REMARK    1  A    between atoms: C_1  and  C_2
REMARK    2  A    between atoms: C_3  and  C_4
REMARK    3  A    between atoms: N_6  and  C_7
REMARK    4  A    between atoms: C_7  and  C_8
REMARK    5  A    between atoms: C_12  and  O_13
REMARK    6  A    between atoms: N_17  and  C_18
REMARK                            x       y       z     vdW  Elec       q    Type
REMARK                         _______ _______ _______ _____ _____    ______ ____
ROOT
ATOM      1  C   UNL     1       1.848   8.962  17.497  0.00  0.00    +0.000 C 
ATOM      2  C   UNL     1       1.842   8.402  18.872  0.00  0.00    +0.000 A 
ATOM      3  C   UNL     1       1.264   8.883  20.042  0.00  0.00    +0.000 A 
ATOM      4  N   UNL     1       1.436   7.958  21.036  0.00  0.00    +0.000 NA
ATOM      5  N   UNL     1       2.089   6.925  20.538  0.00  0.00    +0.000 NA
ATOM      6  N   UNL     1       2.359   7.151  19.230  0.00  0.00    +0.000 N 
ENDROOT
BRANCH   6   7
ATOM      7  C   UNL     1       3.090   6.188  18.460  0.00  0.00    +0.000 A 
ATOM      8  C   UNL     1       4.293   6.594  17.848  0.00  0.00    +0.000 A 
ATOM      9  C   UNL     1       5.039   5.706  17.077  0.00  0.00    +0.000 A 
ATOM     10  C   UNL     1       4.605   4.398  16.913  0.00  0.00    +0.000 A 
ATOM     11  C   UNL     1       3.428   3.953  17.529  0.00  0.00    +0.000 A 
ATOM     12  C   UNL     1       3.007   2.630  17.358  0.00  0.00    +0.000 A 
ATOM     13  N   UNL     1       1.889   2.097  17.890  0.00  0.00    +0.000 NA
ATOM     14  C   UNL     1       1.138   2.928  18.631  0.00  0.00    +0.000 A 
ATOM     15  C   UNL     1       1.455   4.261  18.858  0.00  0.00    +0.000 A 
ATOM     16  C   UNL     1       2.640   4.828  18.320  0.00  0.00    +0.000 A 
ENDBRANCH   6   7
BRANCH   3  17
ATOM     17  C   UNL     1       0.539  10.134  20.278  0.00  0.00    +0.000 C 
ATOM     18  O   UNL     1       0.940  11.011  21.035  0.00  0.00    +0.000 OA
ATOM     19  N   UNL     1      -0.640  10.226  19.566  0.00  0.00    +0.000 N 
ATOM     20  H   UNL     1      -0.827   9.504  18.878  0.00  0.00    +0.000 HD
BRANCH  19  21
ATOM     21  C   UNL     1      -1.469  11.409  19.577  0.00  0.00    +0.000 C 
BRANCH  21  22
ATOM     22  C   UNL     1      -2.530  11.365  18.502  0.00  0.00    +0.000 A 
ATOM     23  C   UNL     1      -3.841  11.783  18.779  0.00  0.00    +0.000 A 
ATOM     24  C   UNL     1      -4.818  11.785  17.778  0.00  0.00    +0.000 A 
ATOM     25  C   UNL     1      -4.499  11.372  16.486  0.00  0.00    +0.000 A 
ATOM     26  C   UNL     1      -3.201  10.960  16.204  0.00  0.00    +0.000 A 
ATOM     27  C   UNL     1      -2.220  10.954  17.197  0.00  0.00    +0.000 A 
BRANCH  26  28
ATOM     28  O   UNL     1      -2.842  10.554  14.953  0.00  0.00    +0.000 OA
ATOM     29  H   UNL     1      -3.334  11.083  14.305  0.00  0.00    +0.000 HD
ENDBRANCH  26  28
ENDBRANCH  21  22
ENDBRANCH  19  21
ENDBRANCH   3  17
TORSDOF 5
ENDMDL
MODEL 3
REMARK VINA RESULT:      -8.2      1.307      1.825
REMARK  Name = 
REMARK  6 active torsions:
REMARK  status: ('A' for Active; 'I' for Inactive)
REMARK    1  A    between atoms: C_1  and  C_2
REMARK    2  A    between atoms: C_3  and  C_4
REMARK    3  A    between atoms: N_6  and  C_7
REMARK    4  A    between atoms: C_7  and  C_8
REMARK    5  A    between atoms: C_12  and  O_13
REMARK    6  A    between atoms: N_17  and  C_18
REMARK                            x       y       z     vdW  Elec       q    Type
REMARK                         _______ _______ _______ _____ _____    ______ ____
ROOT
ATOM      1  C   UNL     1       1.735   7.448  20.845  0.00  0.00    +0.000 C 
ATOM      2  C   UNL     1       2.046   7.816  19.441  0.00  0.00    +0.000 A 
ATOM      3  C   UNL     1       1.700   8.943  18.704  0.00  0.00    +0.000 A 
ATOM      4  N   UNL     1       2.314   8.881  17.482  0.00  0.00    +0.000 NA
ATOM      5  N   UNL     1       3.026   7.772  17.428  0.00  0.00    +0.000 NA
ATOM      6  N   UNL     1       2.892   7.093  18.591  0.00  0.00    +0.000 N 
ENDROOT
BRANCH   6   7
ATOM      7  C   UNL     1       3.545   5.830  18.779  0.00  0.00    +0.000 A 
ATOM      8  C   UNL     1       4.935   5.822  19.008  0.00  0.00    +0.000 A 
ATOM      9  C   UNL     1       5.625   4.625  19.184  0.00  0.00    +0.000 A 
ATOM     10  C   UNL     1       4.939   3.419  19.148  0.00  0.00    +0.000 A 
ATOM     11  C   UNL     1       3.553   3.391  18.949  0.00  0.00    +0.000 A 
ATOM     12  C   UNL     1       2.876   2.168  18.920  0.00  0.00    +0.000 A 
ATOM     13  N   UNL     1       1.550   2.020  18.724  0.00  0.00    +0.000 NA
ATOM     14  C   UNL     1       0.854   3.153  18.539  0.00  0.00    +0.000 A 
ATOM     15  C   UNL     1       1.424   4.419  18.538  0.00  0.00    +0.000 A 
ATOM     16  C   UNL     1       2.816   4.589  18.763  0.00  0.00    +0.000 A 
ENDBRANCH   6   7
BRANCH   3  17
ATOM     17  C   UNL     1       0.861  10.083  19.082  0.00  0.00    +0.000 C 
ATOM     18  O   UNL     1       1.313  11.131  19.532  0.00  0.00    +0.000 OA
ATOM     19  N   UNL     1      -0.486   9.861  18.883  0.00  0.00    +0.000 N 
ATOM     20  H   UNL     1      -0.752   9.011  18.397  0.00  0.00    +0.000 HD
BRANCH  19  21
ATOM     21  C   UNL     1      -1.487  10.879  19.103  0.00  0.00    +0.000 C 
BRANCH  21  22
ATOM     22  C   UNL     1      -2.480  10.949  17.966  0.00  0.00    +0.000 A 
ATOM     23  C   UNL     1      -3.755  11.503  18.168  0.00  0.00    +0.000 A 
ATOM     24  C   UNL     1      -4.664  11.609  17.111  0.00  0.00    +0.000 A 
ATOM     25  C   UNL     1      -4.314  11.166  15.837  0.00  0.00    +0.000 A 
ATOM     26  C   UNL     1      -3.053  10.619  15.629  0.00  0.00    +0.000 A 
ATOM     27  C   UNL     1      -2.138  10.509  16.678  0.00  0.00    +0.000 A 
BRANCH  26  28
ATOM     28  O   UNL     1      -2.664  10.180  14.399  0.00  0.00    +0.000 OA
ATOM     29  H   UNL     1      -2.255  10.920  13.922  0.00  0.00    +0.000 HD
ENDBRANCH  26  28
ENDBRANCH  21  22
ENDBRANCH  19  21
ENDBRANCH   3  17
TORSDOF 5
ENDMDL
MODEL 4
REMARK VINA RESULT:      -8.2      1.030      1.393
REMARK  Name = 
REMARK  6 active torsions:
REMARK  status: ('A' for Active; 'I' for Inactive)
REMARK    1  A    between atoms: C_1  and  C_2
REMARK    2  A    between atoms: C_3  and  C_4
REMARK    3  A    between atoms: N_6  and  C_7
REMARK    4  A    between atoms: C_7  and  C_8
REMARK    5  A    between atoms: C_12  and  O_13
REMARK    6  A    between atoms: N_17  and  C_18
REMARK                            x       y       z     vdW  Elec       q    Type
REMARK                         _______ _______ _______ _____ _____    ______ ____
ROOT
ATOM      1  C   UNL     1       1.739   7.403  20.725  0.00  0.00    +0.000 C 
ATOM      2  C   UNL     1       2.128   7.740  19.332  0.00  0.00    +0.000 A 
ATOM      3  C   UNL     1       1.845   8.862  18.561  0.00  0.00    +0.000 A 
ATOM      4  N   UNL     1       2.518   8.765  17.373  0.00  0.00    +0.000 NA
ATOM      5  N   UNL     1       3.208   7.640  17.372  0.00  0.00    +0.000 NA
ATOM      6  N   UNL     1       3.001   6.985  18.538  0.00  0.00    +0.000 N 
ENDROOT
BRANCH   6   7
ATOM      7  C   UNL     1       3.616   5.712  18.780  0.00  0.00    +0.000 A 
ATOM      8  C   UNL     1       4.999   5.675  19.041  0.00  0.00    +0.000 A 
ATOM      9  C   UNL     1       5.654   4.467  19.270  0.00  0.00    +0.000 A 
ATOM     10  C   UNL     1       4.937   3.279  19.254  0.00  0.00    +0.000 A 
ATOM     11  C   UNL     1       3.555   3.280  19.024  0.00  0.00    +0.000 A 
ATOM     12  C   UNL     1       2.847   2.074  19.016  0.00  0.00    +0.000 A 
ATOM     13  N   UNL     1       1.522   1.954  18.794  0.00  0.00    +0.000 NA
ATOM     14  C   UNL     1       0.861   3.099  18.558  0.00  0.00    +0.000 A 
ATOM     15  C   UNL     1       1.464   4.349  18.532  0.00  0.00    +0.000 A 
ATOM     16  C   UNL     1       2.854   4.491  18.784  0.00  0.00    +0.000 A 
ENDBRANCH   6   7
BRANCH   3  17
ATOM     17  C   UNL     1       1.013  10.025  18.876  0.00  0.00    +0.000 C 
ATOM     18  O   UNL     1       1.472  11.144  19.079  0.00  0.00    +0.000 OA
ATOM     19  N   UNL     1      -0.336   9.736  18.925  0.00  0.00    +0.000 N 
ATOM     20  H   UNL     1      -0.626   8.811  18.628  0.00  0.00    +0.000 HD
BRANCH  19  21
ATOM     21  C   UNL     1      -1.344  10.750  19.131  0.00  0.00    +0.000 C 
BRANCH  21  22
ATOM     22  C   UNL     1      -2.314  10.824  17.975  0.00  0.00    +0.000 A 
ATOM     23  C   UNL     1      -2.125  10.027  16.835  0.00  0.00    +0.000 A 
ATOM     24  C   UNL     1      -3.041  10.060  15.779  0.00  0.00    +0.000 A 
ATOM     25  C   UNL     1      -4.160  10.886  15.846  0.00  0.00    +0.000 A 
ATOM     26  C   UNL     1      -4.356  11.677  16.974  0.00  0.00    +0.000 A 
ATOM     27  C   UNL     1      -3.447  11.651  18.033  0.00  0.00    +0.000 A 
BRANCH  26  28
ATOM     28  O   UNL     1      -5.440  12.495  17.086  0.00  0.00    +0.000 OA
ATOM     29  H   UNL     1      -5.146  13.348  17.444  0.00  0.00    +0.000 HD
ENDBRANCH  26  28
ENDBRANCH  21  22
ENDBRANCH  19  21
ENDBRANCH   3  17
TORSDOF 5
ENDMDL
MODEL 5
REMARK VINA RESULT:      -8.1      3.021      8.526
REMARK  Name = 
REMARK  6 active torsions:
REMARK  status: ('A' for Active; 'I' for Inactive)
REMARK    1  A    between atoms: C_1  and  C_2
REMARK    2  A    between atoms: C_3  and  C_4
REMARK    3  A    between atoms: N_6  and  C_7
REMARK    4  A    between atoms: C_7  and  C_8
REMARK    5  A    between atoms: C_12  and  O_13
REMARK    6  A    between atoms: N_17  and  C_18
REMARK                            x       y       z     vdW  Elec       q    Type
REMARK                         _______ _______ _______ _____ _____    ______ ____
ROOT
ATOM      1  C   UNL     1       1.159   7.905  20.622  0.00  0.00    +0.000 C 
ATOM      2  C   UNL     1       1.627   8.514  19.352  0.00  0.00    +0.000 A 
ATOM      3  C   UNL     1       2.378   7.975  18.313  0.00  0.00    +0.000 A 
ATOM      4  N   UNL     1       2.463   8.894  17.302  0.00  0.00    +0.000 NA
ATOM      5  N   UNL     1       1.796   9.975  17.662  0.00  0.00    +0.000 NA
ATOM      6  N   UNL     1       1.275   9.792  18.898  0.00  0.00    +0.000 N 
ENDROOT
BRANCH   6   7
ATOM      7  C   UNL     1       0.525  10.834  19.535  0.00  0.00    +0.000 A 
ATOM      8  C   UNL     1       1.173  11.635  20.496  0.00  0.00    +0.000 A 
ATOM      9  C   UNL     1       0.492  12.654  21.158  0.00  0.00    +0.000 A 
ATOM     10  C   UNL     1      -0.842  12.899  20.863  0.00  0.00    +0.000 A 
ATOM     11  C   UNL     1      -1.511  12.140  19.893  0.00  0.00    +0.000 A 
ATOM     12  C   UNL     1      -2.854  12.403  19.605  0.00  0.00    +0.000 A 
ATOM     13  N   UNL     1      -3.599  11.732  18.703  0.00  0.00    +0.000 NA
ATOM     14  C   UNL     1      -2.977  10.734  18.054  0.00  0.00    +0.000 A 
ATOM     15  C   UNL     1      -1.652  10.380  18.269  0.00  0.00    +0.000 A 
ATOM     16  C   UNL     1      -0.851  11.092  19.201  0.00  0.00    +0.000 A 
ENDBRANCH   6   7
BRANCH   3  17
ATOM     17  C   UNL     1       2.993   6.651  18.197  0.00  0.00    +0.000 C 
ATOM     18  O   UNL     1       4.186   6.444  18.394  0.00  0.00    +0.000 OA
ATOM     19  N   UNL     1       2.099   5.661  17.843  0.00  0.00    +0.000 N 
ATOM     20  H   UNL     1       1.115   5.908  17.819  0.00  0.00    +0.000 HD
BRANCH  19  21
ATOM     21  C   UNL     1       2.469   4.267  17.759  0.00  0.00    +0.000 C 
BRANCH  21  22
ATOM     22  C   UNL     1       2.553   3.622  19.123  0.00  0.00    +0.000 A 
ATOM     23  C   UNL     1       1.430   3.593  19.966  0.00  0.00    +0.000 A 
ATOM     24  C   UNL     1       1.488   2.962  21.212  0.00  0.00    +0.000 A 
ATOM     25  C   UNL     1       2.666   2.348  21.634  0.00  0.00    +0.000 A 
ATOM     26  C   UNL     1       3.781   2.371  20.803  0.00  0.00    +0.000 A 
ATOM     27  C   UNL     1       3.732   2.999  19.557  0.00  0.00    +0.000 A 
BRANCH  26  28
ATOM     28  O   UNL     1       4.951   1.778  21.171  0.00  0.00    +0.000 OA
ATOM     29  H   UNL     1       4.840   1.401  22.059  0.00  0.00    +0.000 HD
ENDBRANCH  26  28
ENDBRANCH  21  22
ENDBRANCH  19  21
ENDBRANCH   3  17
TORSDOF 5
ENDMDL
MODEL 6
REMARK VINA RESULT:      -8.1      3.714      9.258
REMARK  Name = 
REMARK  6 active torsions:
REMARK  status: ('A' for Active; 'I' for Inactive)
REMARK    1  A    between atoms: C_1  and  C_2
REMARK    2  A    between atoms: C_3  and  C_4
REMARK    3  A    between atoms: N_6  and  C_7
REMARK    4  A    between atoms: C_7  and  C_8
REMARK    5  A    between atoms: C_12  and  O_13
REMARK    6  A    between atoms: N_17  and  C_18
REMARK                            x       y       z     vdW  Elec       q    Type
REMARK                         _______ _______ _______ _____ _____    ______ ____
ROOT
ATOM      1  C   UNL     1      -0.586  11.200  19.644  0.00  0.00    +0.000 C 
ATOM      2  C   UNL     1      -0.053  10.558  20.872  0.00  0.00    +0.000 A 
ATOM      3  C   UNL     1       0.847   9.509  21.026  0.00  0.00    +0.000 A 
ATOM      4  N   UNL     1       1.115   9.345  22.359  0.00  0.00    +0.000 NA
ATOM      5  N   UNL     1       0.427  10.244  23.037  0.00  0.00    +0.000 NA
ATOM      6  N   UNL     1      -0.298  10.999  22.179  0.00  0.00    +0.000 N 
ENDROOT
BRANCH   6   7
ATOM      7  C   UNL     1      -1.160  12.035  22.667  0.00  0.00    +0.000 A 
ATOM      8  C   UNL     1      -2.365  11.664  23.296  0.00  0.00    +0.000 A 
ATOM      9  C   UNL     1      -3.248  12.627  23.778  0.00  0.00    +0.000 A 
ATOM     10  C   UNL     1      -2.939  13.973  23.652  0.00  0.00    +0.000 A 
ATOM     11  C   UNL     1      -1.737  14.378  23.057  0.00  0.00    +0.000 A 
ATOM     12  C   UNL     1      -1.438  15.740  22.943  0.00  0.00    +0.000 A 
ATOM     13  N   UNL     1      -0.321  16.244  22.379  0.00  0.00    +0.000 NA
ATOM     14  C   UNL     1       0.548  15.344  21.893  0.00  0.00    +0.000 A 
ATOM     15  C   UNL     1       0.348  13.971  21.943  0.00  0.00    +0.000 A 
ATOM     16  C   UNL     1      -0.813  13.427  22.551  0.00  0.00    +0.000 A 
ENDBRANCH   6   7
BRANCH   3  17
ATOM     17  C   UNL     1       1.492   8.677  20.008  0.00  0.00    +0.000 C 
ATOM     18  O   UNL     1       1.598   9.012  18.833  0.00  0.00    +0.000 OA
ATOM     19  N   UNL     1       1.967   7.478  20.501  0.00  0.00    +0.000 N 
ATOM     20  H   UNL     1       1.938   7.343  21.506  0.00  0.00    +0.000 HD
BRANCH  19  21
ATOM     21  C   UNL     1       2.716   6.543  19.694  0.00  0.00    +0.000 C 
BRANCH  21  22
ATOM     22  C   UNL     1       2.133   5.150  19.756  0.00  0.00    +0.000 A 
ATOM     23  C   UNL     1       1.707   4.504  18.584  0.00  0.00    +0.000 A 
ATOM     24  C   UNL     1       1.205   3.200  18.629  0.00  0.00    +0.000 A 
ATOM     25  C   UNL     1       1.122   2.521  19.843  0.00  0.00    +0.000 A 
ATOM     26  C   UNL     1       1.544   3.154  21.007  0.00  0.00    +0.000 A 
ATOM     27  C   UNL     1       2.047   4.456  20.972  0.00  0.00    +0.000 A 
BRANCH  26  28
ATOM     28  O   UNL     1       1.488   2.526  22.215  0.00  0.00    +0.000 OA
ATOM     29  H   UNL     1       0.600   2.151  22.327  0.00  0.00    +0.000 HD
ENDBRANCH  26  28
ENDBRANCH  21  22
ENDBRANCH  19  21
ENDBRANCH   3  17
TORSDOF 5
ENDMDL
MODEL 7
REMARK VINA RESULT:      -8.0      1.594      2.047
REMARK  Name = 
REMARK  6 active torsions:
REMARK  status: ('A' for Active; 'I' for Inactive)
REMARK    1  A    between atoms: C_1  and  C_2
REMARK    2  A    between atoms: C_3  and  C_4
REMARK    3  A    between atoms: N_6  and  C_7
REMARK    4  A    between atoms: C_7  and  C_8
REMARK    5  A    between atoms: C_12  and  O_13
REMARK    6  A    between atoms: N_17  and  C_18
REMARK                            x       y       z     vdW  Elec       q    Type
REMARK                         _______ _______ _______ _____ _____    ______ ____
ROOT
ATOM      1  C   UNL     1       1.850   7.323  20.493  0.00  0.00    +0.000 C 
ATOM      2  C   UNL     1       2.015   7.930  19.148  0.00  0.00    +0.000 A 
ATOM      3  C   UNL     1       1.473   9.090  18.606  0.00  0.00    +0.000 A 
ATOM      4  N   UNL     1       2.007   9.292  17.362  0.00  0.00    +0.000 NA
ATOM      5  N   UNL     1       2.858   8.316  17.108  0.00  0.00    +0.000 NA
ATOM      6  N   UNL     1       2.894   7.465  18.161  0.00  0.00    +0.000 N 
ENDROOT
BRANCH   6   7
ATOM      7  C   UNL     1       3.722   6.295  18.126  0.00  0.00    +0.000 A 
ATOM      8  C   UNL     1       5.121   6.464  18.138  0.00  0.00    +0.000 A 
ATOM      9  C   UNL     1       5.976   5.365  18.092  0.00  0.00    +0.000 A 
ATOM     10  C   UNL     1       5.450   4.082  18.046  0.00  0.00    +0.000 A 
ATOM     11  C   UNL     1       4.065   3.876  18.060  0.00  0.00    +0.000 A 
ATOM     12  C   UNL     1       3.551   2.575  18.018  0.00  0.00    +0.000 A 
ATOM     13  N   UNL     1       2.241   2.259  18.014  0.00  0.00    +0.000 NA
ATOM     14  C   UNL     1       1.387   3.294  18.046  0.00  0.00    +0.000 A 
ATOM     15  C   UNL     1       1.785   4.624  18.078  0.00  0.00    +0.000 A 
ATOM     16  C   UNL     1       3.162   4.970  18.103  0.00  0.00    +0.000 A 
ENDBRANCH   6   7
BRANCH   3  17
ATOM     17  C   UNL     1       0.514  10.032  19.189  0.00  0.00    +0.000 C 
ATOM     18  O   UNL     1       0.213  10.035  20.378  0.00  0.00    +0.000 OA
ATOM     19  N   UNL     1      -0.017  10.913  18.269  0.00  0.00    +0.000 N 
ATOM     20  H   UNL     1       0.382  10.910  17.336  0.00  0.00    +0.000 HD
BRANCH  19  21
ATOM     21  C   UNL     1      -0.913  11.984  18.639  0.00  0.00    +0.000 C 
BRANCH  21  22
ATOM     22  C   UNL     1      -2.335  11.703  18.212  0.00  0.00    +0.000 A 
ATOM     23  C   UNL     1      -3.406  11.992  19.072  0.00  0.00    +0.000 A 
ATOM     24  C   UNL     1      -4.727  11.774  18.667  0.00  0.00    +0.000 A 
ATOM     25  C   UNL     1      -4.997  11.266  17.398  0.00  0.00    +0.000 A 
ATOM     26  C   UNL     1      -3.941  10.981  16.540  0.00  0.00    +0.000 A 
ATOM     27  C   UNL     1      -2.619  11.195  16.935  0.00  0.00    +0.000 A 
BRANCH  26  28
ATOM     28  O   UNL     1      -4.158  10.490  15.287  0.00  0.00    +0.000 OA
ATOM     29  H   UNL     1      -3.435   9.882  15.065  0.00  0.00    +0.000 HD
ENDBRANCH  26  28
ENDBRANCH  21  22
ENDBRANCH  19  21
ENDBRANCH   3  17
TORSDOF 5
ENDMDL
MODEL 8
REMARK VINA RESULT:      -8.0      5.418      8.453
REMARK  Name = 
REMARK  6 active torsions:
REMARK  status: ('A' for Active; 'I' for Inactive)
REMARK    1  A    between atoms: C_1  and  C_2
REMARK    2  A    between atoms: C_3  and  C_4
REMARK    3  A    between atoms: N_6  and  C_7
REMARK    4  A    between atoms: C_7  and  C_8
REMARK    5  A    between atoms: C_12  and  O_13
REMARK    6  A    between atoms: N_17  and  C_18
REMARK                            x       y       z     vdW  Elec       q    Type
REMARK                         _______ _______ _______ _____ _____    ______ ____
ROOT
ATOM      1  C   UNL     1       4.893   6.127  16.651  0.00  0.00    +0.000 C 
ATOM      2  C   UNL     1       5.814   5.831  17.777  0.00  0.00    +0.000 A 
ATOM      3  C   UNL     1       7.029   6.409  18.128  0.00  0.00    +0.000 A 
ATOM      4  N   UNL     1       7.452   5.871  19.314  0.00  0.00    +0.000 NA
ATOM      5  N   UNL     1       6.556   4.991  19.717  0.00  0.00    +0.000 NA
ATOM      6  N   UNL     1       5.547   4.930  18.816  0.00  0.00    +0.000 N 
ENDROOT
BRANCH   6   7
ATOM      7  C   UNL     1       4.453   4.022  19.005  0.00  0.00    +0.000 A 
ATOM      8  C   UNL     1       4.630   2.674  18.637  0.00  0.00    +0.000 A 
ATOM      9  C   UNL     1       3.598   1.750  18.785  0.00  0.00    +0.000 A 
ATOM     10  C   UNL     1       2.380   2.152  19.314  0.00  0.00    +0.000 A 
ATOM     11  C   UNL     1       2.178   3.479  19.716  0.00  0.00    +0.000 A 
ATOM     12  C   UNL     1       0.946   3.867  20.251  0.00  0.00    +0.000 A 
ATOM     13  N   UNL     1       0.636   5.114  20.659  0.00  0.00    +0.000 NA
ATOM     14  C   UNL     1       1.603   6.035  20.520  0.00  0.00    +0.000 A 
ATOM     15  C   UNL     1       2.858   5.763  19.992  0.00  0.00    +0.000 A 
ATOM     16  C   UNL     1       3.204   4.450  19.578  0.00  0.00    +0.000 A 
ENDBRANCH   6   7
BRANCH   3  17
ATOM     17  C   UNL     1       7.800   7.449  17.442  0.00  0.00    +0.000 C 
ATOM     18  O   UNL     1       8.207   7.335  16.291  0.00  0.00    +0.000 OA
ATOM     19  N   UNL     1       8.022   8.568  18.219  0.00  0.00    +0.000 N 
ATOM     20  H   UNL     1       7.545   8.618  19.113  0.00  0.00    +0.000 HD
BRANCH  19  21
ATOM     21  C   UNL     1       8.681   9.751  17.715  0.00  0.00    +0.000 C 
BRANCH  21  22
ATOM     22  C   UNL     1       9.372  10.523  18.814  0.00  0.00    +0.000 A 
ATOM     23  C   UNL     1      10.501  11.308  18.531  0.00  0.00    +0.000 A 
ATOM     24  C   UNL     1      11.122  12.058  19.534  0.00  0.00    +0.000 A 
ATOM     25  C   UNL     1      10.623  12.038  20.835  0.00  0.00    +0.000 A 
ATOM     26  C   UNL     1       9.503  11.265  21.123  0.00  0.00    +0.000 A 
ATOM     27  C   UNL     1       8.877  10.513  20.127  0.00  0.00    +0.000 A 
BRANCH  26  28
ATOM     28  O   UNL     1       8.976  11.221  22.379  0.00  0.00    +0.000 OA
ATOM     29  H   UNL     1       9.706  11.176  23.018  0.00  0.00    +0.000 HD
ENDBRANCH  26  28
ENDBRANCH  21  22
ENDBRANCH  19  21
ENDBRANCH   3  17
TORSDOF 5
ENDMDL
MODEL 9
REMARK VINA RESULT:      -8.0      3.351      8.686
REMARK  Name = 
REMARK  6 active torsions:
REMARK  status: ('A' for Active; 'I' for Inactive)
REMARK    1  A    between atoms: C_1  and  C_2
REMARK    2  A    between atoms: C_3  and  C_4
REMARK    3  A    between atoms: N_6  and  C_7
REMARK    4  A    between atoms: C_7  and  C_8
REMARK    5  A    between atoms: C_12  and  O_13
REMARK    6  A    between atoms: N_17  and  C_18
REMARK                            x       y       z     vdW  Elec       q    Type
REMARK                         _______ _______ _______ _____ _____    ______ ____
ROOT
ATOM      1  C   UNL     1       1.406   7.788  20.819  0.00  0.00    +0.000 C 
ATOM      2  C   UNL     1       1.813   8.234  19.463  0.00  0.00    +0.000 A 
ATOM      3  C   UNL     1       2.603   7.608  18.504  0.00  0.00    +0.000 A 
ATOM      4  N   UNL     1       2.603   8.366  17.364  0.00  0.00    +0.000 NA
ATOM      5  N   UNL     1       1.848   9.428  17.568  0.00  0.00    +0.000 NA
ATOM      6  N   UNL     1       1.350   9.393  18.827  0.00  0.00    +0.000 N 
ENDROOT
BRANCH   6   7
ATOM      7  C   UNL     1       0.517  10.454  19.312  0.00  0.00    +0.000 A 
ATOM      8  C   UNL     1       1.043  11.328  20.283  0.00  0.00    +0.000 A 
ATOM      9  C   UNL     1       0.276  12.369  20.801  0.00  0.00    +0.000 A 
ATOM     10  C   UNL     1      -1.023  12.561  20.351  0.00  0.00    +0.000 A 
ATOM     11  C   UNL     1      -1.569  11.726  19.368  0.00  0.00    +0.000 A 
ATOM     12  C   UNL     1      -2.878  11.937  18.922  0.00  0.00    +0.000 A 
ATOM     13  N   UNL     1      -3.510  11.192  17.992  0.00  0.00    +0.000 NA
ATOM     14  C   UNL     1      -2.803  10.172  17.478  0.00  0.00    +0.000 A 
ATOM     15  C   UNL     1      -1.502   9.866  17.855  0.00  0.00    +0.000 A 
ATOM     16  C   UNL     1      -0.820  10.655  18.818  0.00  0.00    +0.000 A 
ENDBRANCH   6   7
BRANCH   3  17
ATOM     17  C   UNL     1       3.329   6.338  18.579  0.00  0.00    +0.000 C 
ATOM     18  O   UNL     1       2.805   5.283  18.918  0.00  0.00    +0.000 OA
ATOM     19  N   UNL     1       4.661   6.448  18.232  0.00  0.00    +0.000 N 
ATOM     20  H   UNL     1       4.973   7.335  17.853  0.00  0.00    +0.000 HD
BRANCH  19  21
ATOM     21  C   UNL     1       5.543   5.306  18.149  0.00  0.00    +0.000 C 
BRANCH  21  22
ATOM     22  C   UNL     1       5.824   4.914  16.717  0.00  0.00    +0.000 A 
ATOM     23  C   UNL     1       4.953   4.052  16.031  0.00  0.00    +0.000 A 
ATOM     24  C   UNL     1       5.184   3.717  14.694  0.00  0.00    +0.000 A 
ATOM     25  C   UNL     1       6.286   4.239  14.020  0.00  0.00    +0.000 A 
ATOM     26  C   UNL     1       7.152   5.095  14.692  0.00  0.00    +0.000 A 
ATOM     27  C   UNL     1       6.929   5.435  16.028  0.00  0.00    +0.000 A 
BRANCH  26  28
ATOM     28  O   UNL     1       8.239   5.635  14.071  0.00  0.00    +0.000 OA
ATOM     29  H   UNL     1       9.010   5.524  14.649  0.00  0.00    +0.000 HD
ENDBRANCH  26  28
ENDBRANCH  21  22
ENDBRANCH  19  21
ENDBRANCH   3  17
TORSDOF 5
ENDMDL
