MODEL 1
REMARK VINA RESULT:     -10.0      0.000      0.000
REMARK  Name = 
REMARK  4 active torsions:
REMARK  status: ('A' for Active; 'I' for Inactive)
REMARK    1  A    between atoms: C_2  and  C_3
REMARK    2  A    between atoms: C_3  and  C_4
REMARK    3  A    between atoms: C_4  and  C_5
REMARK    4  A    between atoms: C_5  and  C_6
REMARK                            x       y       z     vdW  Elec       q    Type
REMARK                         _______ _______ _______ _____ _____    ______ ____
ROOT
ATOM      1  O   UNL     1       2.781   8.493  17.393  0.00  0.00    +0.000 OA
ATOM      2  C   UNL     1       2.367   7.965  18.429  0.00  0.00    +0.000 C 
ATOM      3  N   UNL     1       2.600   6.632  18.743  0.00  0.00    +0.000 N 
ATOM      4  C   UNL     1       2.190   5.884  19.972  0.00  0.00    +0.000 C 
ATOM      5  C   UNL     1       2.343   4.361  19.609  0.00  0.00    +0.000 C 
ATOM      6  C   UNL     1       0.932   3.715  19.851  0.00  0.00    +0.000 C 
ATOM      7  C   UNL     1       1.482   3.280  21.252  0.00  0.00    +0.000 C 
ATOM      8  C   UNL     1       2.827   3.167  20.552  0.00  0.00    +0.000 C 
ATOM      9  C   UNL     1       3.218   4.457  18.312  0.00  0.00    +0.000 A 
ATOM     10  C   UNL     1       4.045   3.518  17.689  0.00  0.00    +0.000 A 
ATOM     11  F   UNL     1       4.036   2.239  18.089  0.00  0.00    +0.000 F 
ATOM     12  C   UNL     1       4.985   3.888  16.724  0.00  0.00    +0.000 A 
ATOM     13  C   UNL     1       5.090   5.217  16.326  0.00  0.00    +0.000 A 
ATOM     14  C   UNL     1       4.262   6.171  16.907  0.00  0.00    +0.000 A 
ATOM     15  C   UNL     1       3.371   5.785  17.909  0.00  0.00    +0.000 A 
ENDROOT
BRANCH   2  16
ATOM     16  C   UNL     1       1.513   8.805  19.376  0.00  0.00    +0.000 C 
BRANCH  16  17
ATOM     17  C   UNL     1       0.864   9.957  18.574  0.00  0.00    +0.000 C 
BRANCH  17  18
ATOM     18  C   UNL     1      -0.199  10.748  19.331  0.00  0.00    +0.000 C 
BRANCH  18  19
ATOM     19  C   UNL     1      -1.499  10.819  18.549  0.00  0.00    +0.000 A 
ATOM     20  C   UNL     1      -1.680  10.011  17.392  0.00  0.00    +0.000 A 
ATOM     21  C   UNL     1      -2.865  10.053  16.639  0.00  0.00    +0.000 A 
ATOM     22  C   UNL     1      -3.840  10.920  17.069  0.00  0.00    +0.000 A 
ATOM     23  N   UNL     1      -5.102  11.175  16.541  0.00  0.00    +0.000 N 
ATOM     24  C   UNL     1      -5.732  12.143  17.332  0.00  0.00    +0.000 A 
ATOM     25  O   UNL     1      -6.851  12.606  17.170  0.00  0.00    +0.000 OA
ATOM     26  N   UNL     1      -4.829  12.477  18.355  0.00  0.00    +0.000 N 
ATOM     27  C   UNL     1      -3.671  11.726  18.190  0.00  0.00    +0.000 A 
ATOM     28  C   UNL     1      -2.519  11.705  18.946  0.00  0.00    +0.000 A 
ATOM     29  H   UNL     1      -5.523  10.754  15.730  0.00  0.00    +0.000 HD
ATOM     30  H   UNL     1      -5.019  13.159  19.070  0.00  0.00    +0.000 HD
ENDBRANCH  18  19
ENDBRANCH  17  18
ENDBRANCH  16  17
ENDBRANCH   2  16
TORSDOF 4
ENDMDL
MODEL 2
REMARK VINA RESULT:      -9.9      1.331      1.826
REMARK  Name = 
REMARK  4 active torsions:
REMARK  status: ('A' for Active; 'I' for Inactive)
REMARK    1  A    between atoms: C_2  and  C_3
REMARK    2  A    between atoms: C_3  and  C_4
REMARK    3  A    between atoms: C_4  and  C_5
REMARK    4  A    between atoms: C_5  and  C_6
REMARK                            x       y       z     vdW  Elec       q    Type
REMARK                         _______ _______ _______ _____ _____    ______ ____
ROOT
ATOM      1  O   UNL     1       2.619   8.397  18.046  0.00  0.00    +0.000 OA
ATOM      2  C   UNL     1       2.238   7.762  19.034  0.00  0.00    +0.000 C 
ATOM      3  N   UNL     1       2.474   6.403  19.197  0.00  0.00    +0.000 N 
ATOM      4  C   UNL     1       2.102   5.529  20.352  0.00  0.00    +0.000 C 
ATOM      5  C   UNL     1       2.233   4.053  19.824  0.00  0.00    +0.000 C 
ATOM      6  C   UNL     1       0.827   3.389  20.045  0.00  0.00    +0.000 C 
ATOM      7  C   UNL     1       1.422   2.805  21.372  0.00  0.00    +0.000 C 
ATOM      8  C   UNL     1       2.741   2.765  20.617  0.00  0.00    +0.000 C 
ATOM      9  C   UNL     1       3.063   4.285  18.515  0.00  0.00    +0.000 A 
ATOM     10  C   UNL     1       3.862   3.416  17.767  0.00  0.00    +0.000 A 
ATOM     11  F   UNL     1       3.860   2.102  18.029  0.00  0.00    +0.000 F 
ATOM     12  C   UNL     1       4.771   3.885  16.815  0.00  0.00    +0.000 A 
ATOM     13  C   UNL     1       4.870   5.248  16.557  0.00  0.00    +0.000 A 
ATOM     14  C   UNL     1       4.068   6.137  17.265  0.00  0.00    +0.000 A 
ATOM     15  C   UNL     1       3.210   5.648  18.250  0.00  0.00    +0.000 A 
ENDROOT
BRANCH   2  16
ATOM     16  C   UNL     1       1.422   8.499  20.094  0.00  0.00    +0.000 C 
BRANCH  16  17
ATOM     17  C   UNL     1       1.011   9.881  19.537  0.00  0.00    +0.000 C 
BRANCH  17  18
ATOM     18  C   UNL     1      -0.294  10.440  20.100  0.00  0.00    +0.000 C 
BRANCH  18  19
ATOM     19  C   UNL     1      -1.305  10.706  18.999  0.00  0.00    +0.000 A 
ATOM     20  C   UNL     1      -2.336  11.667  19.195  0.00  0.00    +0.000 A 
ATOM     21  C   UNL     1      -3.293  11.937  18.203  0.00  0.00    +0.000 A 
ATOM     22  C   UNL     1      -3.192  11.219  17.035  0.00  0.00    +0.000 A 
ATOM     23  N   UNL     1      -3.978  11.268  15.888  0.00  0.00    +0.000 N 
ATOM     24  C   UNL     1      -3.479  10.345  14.962  0.00  0.00    +0.000 A 
ATOM     25  O   UNL     1      -3.916  10.121  13.843  0.00  0.00    +0.000 OA
ATOM     26  N   UNL     1      -2.370   9.729  15.566  0.00  0.00    +0.000 N 
ATOM     27  C   UNL     1      -2.198  10.267  16.837  0.00  0.00    +0.000 A 
ATOM     28  C   UNL     1      -1.247   9.983  17.792  0.00  0.00    +0.000 A 
ATOM     29  H   UNL     1      -4.778  11.855  15.719  0.00  0.00    +0.000 HD
ATOM     30  H   UNL     1      -1.817   9.013  15.125  0.00  0.00    +0.000 HD
ENDBRANCH  18  19
ENDBRANCH  17  18
ENDBRANCH  16  17
ENDBRANCH   2  16
TORSDOF 4
ENDMDL
MODEL 3
REMARK VINA RESULT:      -9.7      1.850      2.260
REMARK  Name = 
REMARK  4 active torsions:
REMARK  status: ('A' for Active; 'I' for Inactive)
REMARK    1  A    between atoms: C_2  and  C_3
REMARK    2  A    between atoms: C_3  and  C_4
REMARK    3  A    between atoms: C_4  and  C_5
REMARK    4  A    between atoms: C_5  and  C_6
REMARK                            x       y       z     vdW  Elec       q    Type
REMARK                         _______ _______ _______ _____ _____    ______ ____
ROOT
ATOM      1  O   UNL     1       1.978   8.708  19.154  0.00  0.00    +0.000 OA
ATOM      2  C   UNL     1       1.757   7.870  20.033  0.00  0.00    +0.000 C 
ATOM      3  N   UNL     1       2.152   6.542  19.928  0.00  0.00    +0.000 N 
ATOM      4  C   UNL     1       1.981   5.442  20.926  0.00  0.00    +0.000 C 
ATOM      5  C   UNL     1       2.223   4.108  20.129  0.00  0.00    +0.000 C 
ATOM      6  C   UNL     1       0.922   3.248  20.322  0.00  0.00    +0.000 C 
ATOM      7  C   UNL     1       1.693   2.520  21.476  0.00  0.00    +0.000 C 
ATOM      8  C   UNL     1       2.937   2.773  20.637  0.00  0.00    +0.000 C 
ATOM      9  C   UNL     1       2.902   4.662  18.831  0.00  0.00    +0.000 A 
ATOM     10  C   UNL     1       3.721   4.040  17.884  0.00  0.00    +0.000 A 
ATOM     11  F   UNL     1       3.883   2.710  17.900  0.00  0.00    +0.000 F 
ATOM     12  C   UNL     1       4.484   4.775  16.972  0.00  0.00    +0.000 A 
ATOM     13  C   UNL     1       4.412   6.164  16.962  0.00  0.00    +0.000 A 
ATOM     14  C   UNL     1       3.585   6.812  17.874  0.00  0.00    +0.000 A 
ATOM     15  C   UNL     1       2.877   6.058  18.810  0.00  0.00    +0.000 A 
ENDROOT
BRANCH   2  16
ATOM     16  C   UNL     1       0.965   8.305  21.263  0.00  0.00    +0.000 C 
BRANCH  16  17
ATOM     17  C   UNL     1       1.072   9.841  21.409  0.00  0.00    +0.000 C 
BRANCH  17  18
ATOM     18  C   UNL     1      -0.264  10.576  21.472  0.00  0.00    +0.000 C 
BRANCH  18  19
ATOM     19  C   UNL     1      -0.761  10.946  20.086  0.00  0.00    +0.000 A 
ATOM     20  C   UNL     1      -0.693  12.295  19.641  0.00  0.00    +0.000 A 
ATOM     21  C   UNL     1      -1.148  12.678  18.368  0.00  0.00    +0.000 A 
ATOM     22  C   UNL     1      -1.672  11.686  17.575  0.00  0.00    +0.000 A 
ATOM     23  N   UNL     1      -2.189  11.755  16.285  0.00  0.00    +0.000 N 
ATOM     24  C   UNL     1      -2.600  10.475  15.897  0.00  0.00    +0.000 A 
ATOM     25  O   UNL     1      -3.097  10.159  14.826  0.00  0.00    +0.000 OA
ATOM     26  N   UNL     1      -2.325   9.619  16.977  0.00  0.00    +0.000 N 
ATOM     27  C   UNL     1      -1.757  10.365  18.003  0.00  0.00    +0.000 A 
ATOM     28  C   UNL     1      -1.318   9.963  19.246  0.00  0.00    +0.000 A 
ATOM     29  H   UNL     1      -2.269  12.571  15.701  0.00  0.00    +0.000 HD
ATOM     30  H   UNL     1      -2.527   8.634  16.976  0.00  0.00    +0.000 HD
ENDBRANCH  18  19
ENDBRANCH  17  18
ENDBRANCH  16  17
ENDBRANCH   2  16
TORSDOF 4
ENDMDL
MODEL 4
REMARK VINA RESULT:      -9.4      0.442      1.221
REMARK  Name = 
REMARK  4 active torsions:
REMARK  status: ('A' for Active; 'I' for Inactive)
REMARK    1  A    between atoms: C_2  and  C_3
REMARK    2  A    between atoms: C_3  and  C_4
REMARK    3  A    between atoms: C_4  and  C_5
REMARK    4  A    between atoms: C_5  and  C_6
REMARK                            x       y       z     vdW  Elec       q    Type
REMARK                         _______ _______ _______ _____ _____    ______ ____
ROOT
ATOM      1  O   UNL     1       2.737   8.672  17.338  0.00  0.00    +0.000 OA
ATOM      2  C   UNL     1       2.330   8.132  18.371  0.00  0.00    +0.000 C 
ATOM      3  N   UNL     1       2.589   6.804  18.682  0.00  0.00    +0.000 N 
ATOM      4  C   UNL     1       2.189   6.042  19.906  0.00  0.00    +0.000 C 
ATOM      5  C   UNL     1       2.376   4.524  19.538  0.00  0.00    +0.000 C 
ATOM      6  C   UNL     1       0.977   3.848  19.772  0.00  0.00    +0.000 C 
ATOM      7  C   UNL     1       1.530   3.419  21.174  0.00  0.00    +0.000 C 
ATOM      8  C   UNL     1       2.880   3.338  20.480  0.00  0.00    +0.000 C 
ATOM      9  C   UNL     1       3.254   4.643  18.246  0.00  0.00    +0.000 A 
ATOM     10  C   UNL     1       4.103   3.724  17.623  0.00  0.00    +0.000 A 
ATOM     11  F   UNL     1       4.120   2.444  18.019  0.00  0.00    +0.000 F 
ATOM     12  C   UNL     1       5.040   4.117  16.664  0.00  0.00    +0.000 A 
ATOM     13  C   UNL     1       5.118   5.449  16.271  0.00  0.00    +0.000 A 
ATOM     14  C   UNL     1       4.268   6.384  16.852  0.00  0.00    +0.000 A 
ATOM     15  C   UNL     1       3.381   5.975  17.848  0.00  0.00    +0.000 A 
ENDROOT
BRANCH   2  16
ATOM     16  C   UNL     1       1.454   8.950  19.317  0.00  0.00    +0.000 C 
BRANCH  16  17
ATOM     17  C   UNL     1       0.695  10.020  18.496  0.00  0.00    +0.000 C 
BRANCH  17  18
ATOM     18  C   UNL     1      -0.538   9.508  17.757  0.00  0.00    +0.000 C 
BRANCH  18  19
ATOM     19  C   UNL     1      -1.745  10.394  18.012  0.00  0.00    +0.000 A 
ATOM     20  C   UNL     1      -1.750  11.291  19.116  0.00  0.00    +0.000 A 
ATOM     21  C   UNL     1      -2.849  12.122  19.389  0.00  0.00    +0.000 A 
ATOM     22  C   UNL     1      -3.926  12.019  18.543  0.00  0.00    +0.000 A 
ATOM     23  N   UNL     1      -5.138  12.704  18.554  0.00  0.00    +0.000 N 
ATOM     24  C   UNL     1      -5.918  12.252  17.484  0.00  0.00    +0.000 A 
ATOM     25  O   UNL     1      -7.039  12.635  17.182  0.00  0.00    +0.000 OA
ATOM     26  N   UNL     1      -5.160  11.276  16.816  0.00  0.00    +0.000 N 
ATOM     27  C   UNL     1      -3.941  11.135  17.468  0.00  0.00    +0.000 A 
ATOM     28  C   UNL     1      -2.876  10.310  17.178  0.00  0.00    +0.000 A 
ATOM     29  H   UNL     1      -5.436  13.410  19.207  0.00  0.00    +0.000 HD
ATOM     30  H   UNL     1      -5.481  10.774  16.006  0.00  0.00    +0.000 HD
ENDBRANCH  18  19
ENDBRANCH  17  18
ENDBRANCH  16  17
ENDBRANCH   2  16
TORSDOF 4
ENDMDL
MODEL 5
REMARK VINA RESULT:      -9.3      1.126      2.821
REMARK  Name = 
REMARK  4 active torsions:
REMARK  status: ('A' for Active; 'I' for Inactive)
REMARK    1  A    between atoms: C_2  and  C_3
REMARK    2  A    between atoms: C_3  and  C_4
REMARK    3  A    between atoms: C_4  and  C_5
REMARK    4  A    between atoms: C_5  and  C_6
REMARK                            x       y       z     vdW  Elec       q    Type
REMARK                         _______ _______ _______ _____ _____    ______ ____
ROOT
ATOM      1  O   UNL     1       1.288   7.633  21.111  0.00  0.00    +0.000 OA
ATOM      2  C   UNL     1       1.783   7.728  19.984  0.00  0.00    +0.000 C 
ATOM      3  N   UNL     1       2.477   6.691  19.373  0.00  0.00    +0.000 N 
ATOM      4  C   UNL     1       3.089   6.662  18.009  0.00  0.00    +0.000 C 
ATOM      5  C   UNL     1       4.077   5.437  18.016  0.00  0.00    +0.000 C 
ATOM      6  C   UNL     1       5.487   6.018  17.640  0.00  0.00    +0.000 C 
ATOM      7  C   UNL     1       5.173   5.562  16.173  0.00  0.00    +0.000 C 
ATOM      8  C   UNL     1       4.399   4.426  16.823  0.00  0.00    +0.000 C 
ATOM      9  C   UNL     1       3.589   4.678  19.296  0.00  0.00    +0.000 A 
ATOM     10  C   UNL     1       3.737   3.343  19.685  0.00  0.00    +0.000 A 
ATOM     11  F   UNL     1       4.555   2.527  19.005  0.00  0.00    +0.000 F 
ATOM     12  C   UNL     1       2.964   2.782  20.705  0.00  0.00    +0.000 A 
ATOM     13  C   UNL     1       2.045   3.565  21.394  0.00  0.00    +0.000 A 
ATOM     14  C   UNL     1       1.893   4.904  21.049  0.00  0.00    +0.000 A 
ATOM     15  C   UNL     1       2.636   5.425  19.990  0.00  0.00    +0.000 A 
ENDROOT
BRANCH   2  16
ATOM     16  C   UNL     1       1.671   9.066  19.256  0.00  0.00    +0.000 C 
BRANCH  16  17
ATOM     17  C   UNL     1       0.290   9.688  19.565  0.00  0.00    +0.000 C 
BRANCH  17  18
ATOM     18  C   UNL     1      -0.020  10.975  18.804  0.00  0.00    +0.000 C 
BRANCH  18  19
ATOM     19  C   UNL     1      -1.426  10.956  18.231  0.00  0.00    +0.000 A 
ATOM     20  C   UNL     1      -1.743  10.089  17.148  0.00  0.00    +0.000 A 
ATOM     21  C   UNL     1      -3.029  10.046  16.586  0.00  0.00    +0.000 A 
ATOM     22  C   UNL     1      -3.968  10.891  17.127  0.00  0.00    +0.000 A 
ATOM     23  N   UNL     1      -5.306  11.069  16.791  0.00  0.00    +0.000 N 
ATOM     24  C   UNL     1      -5.854  12.045  17.631  0.00  0.00    +0.000 A 
ATOM     25  O   UNL     1      -7.006  12.453  17.626  0.00  0.00    +0.000 OA
ATOM     26  N   UNL     1      -4.822  12.463  18.489  0.00  0.00    +0.000 N 
ATOM     27  C   UNL     1      -3.668  11.754  18.176  0.00  0.00    +0.000 A 
ATOM     28  C   UNL     1      -2.415  11.816  18.746  0.00  0.00    +0.000 A 
ATOM     29  H   UNL     1      -5.825  10.593  16.072  0.00  0.00    +0.000 HD
ATOM     30  H   UNL     1      -4.934  13.169  19.197  0.00  0.00    +0.000 HD
ENDBRANCH  18  19
ENDBRANCH  17  18
ENDBRANCH  16  17
ENDBRANCH   2  16
TORSDOF 4
ENDMDL
MODEL 6
REMARK VINA RESULT:      -9.3      1.062      3.030
REMARK  Name = 
REMARK  4 active torsions:
REMARK  status: ('A' for Active; 'I' for Inactive)
REMARK    1  A    between atoms: C_2  and  C_3
REMARK    2  A    between atoms: C_3  and  C_4
REMARK    3  A    between atoms: C_4  and  C_5
REMARK    4  A    between atoms: C_5  and  C_6
REMARK                            x       y       z     vdW  Elec       q    Type
REMARK                         _______ _______ _______ _____ _____    ______ ____
ROOT
ATOM      1  O   UNL     1       1.529   7.657  20.639  0.00  0.00    +0.000 OA
ATOM      2  C   UNL     1       2.069   7.568  19.532  0.00  0.00    +0.000 C 
ATOM      3  N   UNL     1       2.696   6.411  19.088  0.00  0.00    +0.000 N 
ATOM      4  C   UNL     1       3.351   6.160  17.767  0.00  0.00    +0.000 C 
ATOM      5  C   UNL     1       4.233   4.873  17.971  0.00  0.00    +0.000 C 
ATOM      6  C   UNL     1       5.698   5.289  17.589  0.00  0.00    +0.000 C 
ATOM      7  C   UNL     1       5.399   4.675  16.178  0.00  0.00    +0.000 C 
ATOM      8  C   UNL     1       4.512   3.695  16.930  0.00  0.00    +0.000 C 
ATOM      9  C   UNL     1       3.640   4.324  19.313  0.00  0.00    +0.000 A 
ATOM     10  C   UNL     1       3.664   3.043  19.872  0.00  0.00    +0.000 A 
ATOM     11  F   UNL     1       4.434   2.086  19.337  0.00  0.00    +0.000 F 
ATOM     12  C   UNL     1       2.812   2.679  20.919  0.00  0.00    +0.000 A 
ATOM     13  C   UNL     1       1.937   3.613  21.462  0.00  0.00    +0.000 A 
ATOM     14  C   UNL     1       1.908   4.904  20.946  0.00  0.00    +0.000 A 
ATOM     15  C   UNL     1       2.728   5.226  19.864  0.00  0.00    +0.000 A 
ENDROOT
BRANCH   2  16
ATOM     16  C   UNL     1       2.094   8.806  18.639  0.00  0.00    +0.000 C 
BRANCH  16  17
ATOM     17  C   UNL     1       0.785   9.602  18.852  0.00  0.00    +0.000 C 
BRANCH  17  18
ATOM     18  C   UNL     1      -0.194   9.556  17.681  0.00  0.00    +0.000 C 
BRANCH  18  19
ATOM     19  C   UNL     1      -1.434  10.386  17.962  0.00  0.00    +0.000 A 
ATOM     20  C   UNL     1      -1.476  11.245  19.096  0.00  0.00    +0.000 A 
ATOM     21  C   UNL     1      -2.606  12.023  19.393  0.00  0.00    +0.000 A 
ATOM     22  C   UNL     1      -3.677  11.909  18.539  0.00  0.00    +0.000 A 
ATOM     23  N   UNL     1      -4.913  12.546  18.569  0.00  0.00    +0.000 N 
ATOM     24  C   UNL     1      -5.673  12.103  17.480  0.00  0.00    +0.000 A 
ATOM     25  O   UNL     1      -6.806  12.454  17.188  0.00  0.00    +0.000 OA
ATOM     26  N   UNL     1      -4.877  11.180  16.783  0.00  0.00    +0.000 N 
ATOM     27  C   UNL     1      -3.654  11.063  17.435  0.00  0.00    +0.000 A 
ATOM     28  C   UNL     1      -2.559  10.289  17.120  0.00  0.00    +0.000 A 
ATOM     29  H   UNL     1      -5.239  13.217  19.244  0.00  0.00    +0.000 HD
ATOM     30  H   UNL     1      -5.176  10.695  15.954  0.00  0.00    +0.000 HD
ENDBRANCH  18  19
ENDBRANCH  17  18
ENDBRANCH  16  17
ENDBRANCH   2  16
TORSDOF 4
ENDMDL
MODEL 7
REMARK VINA RESULT:      -9.0      2.593      3.148
REMARK  Name = 
REMARK  4 active torsions:
REMARK  status: ('A' for Active; 'I' for Inactive)
REMARK    1  A    between atoms: C_2  and  C_3
REMARK    2  A    between atoms: C_3  and  C_4
REMARK    3  A    between atoms: C_4  and  C_5
REMARK    4  A    between atoms: C_5  and  C_6
REMARK                            x       y       z     vdW  Elec       q    Type
REMARK                         _______ _______ _______ _____ _____    ______ ____
ROOT
ATOM      1  O   UNL     1       2.613   8.563  17.920  0.00  0.00    +0.000 OA
ATOM      2  C   UNL     1       2.224   7.934  18.908  0.00  0.00    +0.000 C 
ATOM      3  N   UNL     1       2.480   6.581  19.092  0.00  0.00    +0.000 N 
ATOM      4  C   UNL     1       2.102   5.714  20.250  0.00  0.00    +0.000 C 
ATOM      5  C   UNL     1       2.270   4.235  19.742  0.00  0.00    +0.000 C 
ATOM      6  C   UNL     1       0.872   3.547  19.944  0.00  0.00    +0.000 C 
ATOM      7  C   UNL     1       1.451   2.990  21.290  0.00  0.00    +0.000 C 
ATOM      8  C   UNL     1       2.785   2.965  20.561  0.00  0.00    +0.000 C 
ATOM      9  C   UNL     1       3.120   4.466  18.447  0.00  0.00    +0.000 A 
ATOM     10  C   UNL     1       3.950   3.603  17.725  0.00  0.00    +0.000 A 
ATOM     11  F   UNL     1       3.966   2.292  18.003  0.00  0.00    +0.000 F 
ATOM     12  C   UNL     1       4.868   4.077  16.785  0.00  0.00    +0.000 A 
ATOM     13  C   UNL     1       4.948   5.438  16.513  0.00  0.00    +0.000 A 
ATOM     14  C   UNL     1       4.116   6.321  17.195  0.00  0.00    +0.000 A 
ATOM     15  C   UNL     1       3.249   5.828  18.169  0.00  0.00    +0.000 A 
ENDROOT
BRANCH   2  16
ATOM     16  C   UNL     1       1.374   8.667  19.944  0.00  0.00    +0.000 C 
BRANCH  16  17
ATOM     17  C   UNL     1       0.670   9.861  19.257  0.00  0.00    +0.000 C 
BRANCH  17  18
ATOM     18  C   UNL     1       0.824  11.199  19.975  0.00  0.00    +0.000 C 
BRANCH  18  19
ATOM     19  C   UNL     1      -0.288  11.418  20.985  0.00  0.00    +0.000 A 
ATOM     20  C   UNL     1      -0.242  10.767  22.250  0.00  0.00    +0.000 A 
ATOM     21  C   UNL     1      -1.254  10.940  23.208  0.00  0.00    +0.000 A 
ATOM     22  C   UNL     1      -2.299  11.761  22.861  0.00  0.00    +0.000 A 
ATOM     23  N   UNL     1      -3.428  12.124  23.590  0.00  0.00    +0.000 N 
ATOM     24  C   UNL     1      -4.207  12.986  22.811  0.00  0.00    +0.000 A 
ATOM     25  O   UNL     1      -5.265  13.507  23.131  0.00  0.00    +0.000 OA
ATOM     26  N   UNL     1      -3.533  13.145  21.588  0.00  0.00    +0.000 N 
ATOM     27  C   UNL     1      -2.365  12.392  21.623  0.00  0.00    +0.000 A 
ATOM     28  C   UNL     1      -1.386  12.241  20.666  0.00  0.00    +0.000 A 
ATOM     29  H   UNL     1      -3.674  11.833  24.521  0.00  0.00    +0.000 HD
ATOM     30  H   UNL     1      -3.872  13.712  20.830  0.00  0.00    +0.000 HD
ENDBRANCH  18  19
ENDBRANCH  17  18
ENDBRANCH  16  17
ENDBRANCH   2  16
TORSDOF 4
ENDMDL
MODEL 8
REMARK VINA RESULT:      -8.9      1.301      1.637
REMARK  Name = 
REMARK  4 active torsions:
REMARK  status: ('A' for Active; 'I' for Inactive)
REMARK    1  A    between atoms: C_2  and  C_3
REMARK    2  A    between atoms: C_3  and  C_4
REMARK    3  A    between atoms: C_4  and  C_5
REMARK    4  A    between atoms: C_5  and  C_6
REMARK                            x       y       z     vdW  Elec       q    Type
REMARK                         _______ _______ _______ _____ _____    ______ ____
ROOT
ATOM      1  O   UNL     1       2.842   8.510  17.450  0.00  0.00    +0.000 OA
ATOM      2  C   UNL     1       2.410   7.974  18.475  0.00  0.00    +0.000 C 
ATOM      3  N   UNL     1       2.619   6.634  18.773  0.00  0.00    +0.000 N 
ATOM      4  C   UNL     1       2.185   5.876  19.987  0.00  0.00    +0.000 C 
ATOM      5  C   UNL     1       2.318   4.356  19.605  0.00  0.00    +0.000 C 
ATOM      6  C   UNL     1       0.895   3.729  19.824  0.00  0.00    +0.000 C 
ATOM      7  C   UNL     1       1.424   3.266  21.225  0.00  0.00    +0.000 C 
ATOM      8  C   UNL     1       2.774   3.142  20.536  0.00  0.00    +0.000 C 
ATOM      9  C   UNL     1       3.207   4.456  18.319  0.00  0.00    +0.000 A 
ATOM     10  C   UNL     1       4.026   3.512  17.691  0.00  0.00    +0.000 A 
ATOM     11  F   UNL     1       3.993   2.229  18.073  0.00  0.00    +0.000 F 
ATOM     12  C   UNL     1       4.981   3.881  16.740  0.00  0.00    +0.000 A 
ATOM     13  C   UNL     1       5.110   5.213  16.361  0.00  0.00    +0.000 A 
ATOM     14  C   UNL     1       4.291   6.172  16.947  0.00  0.00    +0.000 A 
ATOM     15  C   UNL     1       3.385   5.786  17.935  0.00  0.00    +0.000 A 
ENDROOT
BRANCH   2  16
ATOM     16  C   UNL     1       1.559   8.815  19.425  0.00  0.00    +0.000 C 
BRANCH  16  17
ATOM     17  C   UNL     1       0.935   9.986  18.632  0.00  0.00    +0.000 C 
BRANCH  17  18
ATOM     18  C   UNL     1      -0.281   9.615  17.787  0.00  0.00    +0.000 C 
BRANCH  18  19
ATOM     19  C   UNL     1      -1.500  10.431  18.180  0.00  0.00    +0.000 A 
ATOM     20  C   UNL     1      -2.705  10.317  17.431  0.00  0.00    +0.000 A 
ATOM     21  C   UNL     1      -3.852  11.058  17.759  0.00  0.00    +0.000 A 
ATOM     22  C   UNL     1      -3.752  11.908  18.834  0.00  0.00    +0.000 A 
ATOM     23  N   UNL     1      -4.704  12.755  19.393  0.00  0.00    +0.000 N 
ATOM     24  C   UNL     1      -4.128  13.422  20.480  0.00  0.00    +0.000 A 
ATOM     25  O   UNL     1      -4.672  14.237  21.211  0.00  0.00    +0.000 OA
ATOM     26  N   UNL     1      -2.803  12.967  20.576  0.00  0.00    +0.000 N 
ATOM     27  C   UNL     1      -2.576  12.040  19.565  0.00  0.00    +0.000 A 
ATOM     28  C   UNL     1      -1.437  11.325  19.265  0.00  0.00    +0.000 A 
ATOM     29  H   UNL     1      -5.655  12.890  19.092  0.00  0.00    +0.000 HD
ATOM     30  H   UNL     1      -2.149  13.286  21.271  0.00  0.00    +0.000 HD
ENDBRANCH  18  19
ENDBRANCH  17  18
ENDBRANCH  16  17
ENDBRANCH   2  16
TORSDOF 4
ENDMDL
MODEL 9
REMARK VINA RESULT:      -8.9      0.820      1.528
REMARK  Name = 
REMARK  4 active torsions:
REMARK  status: ('A' for Active; 'I' for Inactive)
REMARK    1  A    between atoms: C_2  and  C_3
REMARK    2  A    between atoms: C_3  and  C_4
REMARK    3  A    between atoms: C_4  and  C_5
REMARK    4  A    between atoms: C_5  and  C_6
REMARK                            x       y       z     vdW  Elec       q    Type
REMARK                         _______ _______ _______ _____ _____    ______ ____
ROOT
ATOM      1  O   UNL     1       2.759   8.368  17.540  0.00  0.00    +0.000 OA
ATOM      2  C   UNL     1       2.351   7.826  18.571  0.00  0.00    +0.000 C 
ATOM      3  N   UNL     1       2.577   6.487  18.861  0.00  0.00    +0.000 N 
ATOM      4  C   UNL     1       2.173   5.721  20.080  0.00  0.00    +0.000 C 
ATOM      5  C   UNL     1       2.312   4.203  19.691  0.00  0.00    +0.000 C 
ATOM      6  C   UNL     1       0.898   3.563  19.935  0.00  0.00    +0.000 C 
ATOM      7  C   UNL     1       1.458   3.101  21.324  0.00  0.00    +0.000 C 
ATOM      8  C   UNL     1       2.795   2.991  20.609  0.00  0.00    +0.000 C 
ATOM      9  C   UNL     1       3.174   4.315  18.388  0.00  0.00    +0.000 A 
ATOM     10  C   UNL     1       3.989   3.380  17.742  0.00  0.00    +0.000 A 
ATOM     11  F   UNL     1       3.975   2.095  18.120  0.00  0.00    +0.000 F 
ATOM     12  C   UNL     1       4.923   3.760  16.774  0.00  0.00    +0.000 A 
ATOM     13  C   UNL     1       5.033   5.094  16.397  0.00  0.00    +0.000 A 
ATOM     14  C   UNL     1       4.217   6.045  17.002  0.00  0.00    +0.000 A 
ATOM     15  C   UNL     1       3.334   5.648  18.005  0.00  0.00    +0.000 A 
ENDROOT
BRANCH   2  16
ATOM     16  C   UNL     1       1.511   8.656  19.540  0.00  0.00    +0.000 C 
BRANCH  16  17
ATOM     17  C   UNL     1       0.996   9.914  18.803  0.00  0.00    +0.000 C 
BRANCH  17  18
ATOM     18  C   UNL     1       0.685  11.106  19.705  0.00  0.00    +0.000 C 
BRANCH  18  19
ATOM     19  C   UNL     1      -0.770  11.524  19.591  0.00  0.00    +0.000 A 
ATOM     20  C   UNL     1      -1.380  12.273  20.636  0.00  0.00    +0.000 A 
ATOM     21  C   UNL     1      -2.725  12.673  20.571  0.00  0.00    +0.000 A 
ATOM     22  C   UNL     1      -3.428  12.297  19.451  0.00  0.00    +0.000 A 
ATOM     23  N   UNL     1      -4.753  12.546  19.105  0.00  0.00    +0.000 N 
ATOM     24  C   UNL     1      -5.009  11.959  17.861  0.00  0.00    +0.000 A 
ATOM     25  O   UNL     1      -6.064  11.980  17.245  0.00  0.00    +0.000 OA
ATOM     26  N   UNL     1      -3.814  11.344  17.451  0.00  0.00    +0.000 N 
ATOM     27  C   UNL     1      -2.847  11.553  18.429  0.00  0.00    +0.000 A 
ATOM     28  C   UNL     1      -1.531  11.148  18.467  0.00  0.00    +0.000 A 
ATOM     29  H   UNL     1      -5.438  13.057  19.635  0.00  0.00    +0.000 HD
ATOM     30  H   UNL     1      -3.711  10.837  16.589  0.00  0.00    +0.000 HD
ENDBRANCH  18  19
ENDBRANCH  17  18
ENDBRANCH  16  17
ENDBRANCH   2  16
TORSDOF 4
ENDMDL
