MODEL 1
REMARK VINA RESULT:      -8.8      0.000      0.000
REMARK  Name = 
REMARK  6 active torsions:
REMARK  status: ('A' for Active; 'I' for Inactive)
REMARK    1  A    between atoms: C_1  and  C_2
REMARK    2  A    between atoms: C_4  and  C_5
REMARK    3  A    between atoms: C_5  and  C_6
REMARK    4  A    between atoms: C_9  and  C_10
REMARK    5  A    between atoms: C_13  and  C_14
REMARK    6  A    between atoms: C_17  and  C_18
REMARK                            x       y       z     vdW  Elec       q    Type
REMARK                         _______ _______ _______ _____ _____    ______ ____
ROOT
ATOM      1  C   UNL     1       2.599   7.292  18.664  0.00  0.00    +0.000 A 
ATOM      2  C   UNL     1       2.181   7.271  20.000  0.00  0.00    +0.000 A 
ATOM      3  C   UNL     1       1.366   8.287  20.513  0.00  0.00    +0.000 A 
ATOM      4  C   UNL     1       0.946   9.348  19.700  0.00  0.00    +0.000 A 
ATOM      5  C   UNL     1       1.356   9.368  18.361  0.00  0.00    +0.000 A 
ATOM      6  C   UNL     1       2.176   8.351  17.849  0.00  0.00    +0.000 A 
ENDROOT
BRANCH   1  10
ATOM      7  C   UNL     1       5.011   4.990  17.472  0.00  0.00    +0.000 A 
ATOM      8  N   UNL     1       3.930   4.198  17.440  0.00  0.00    +0.000 NA
ATOM      9  O   UNL     1       2.910   5.034  17.889  0.00  0.00    +0.000 OA
ATOM     10  C   UNL     1       3.475   6.256  18.127  0.00  0.00    +0.000 A 
ATOM     11  N   UNL     1       4.760   6.290  17.851  0.00  0.00    +0.000 NA
BRANCH   7  12
ATOM     12  C   UNL     1       6.370   4.495  17.142  0.00  0.00    +0.000 C 
BRANCH  12  16
ATOM     13  C   UNL     1       6.477   3.601  12.280  0.00  0.00    +0.000 C 
ATOM     14  C   UNL     1       6.618   4.138  13.643  0.00  0.00    +0.000 A 
ATOM     15  N   UNL     1       6.092   3.720  14.771  0.00  0.00    +0.000 NA
ATOM     16  C   UNL     1       6.632   4.596  15.684  0.00  0.00    +0.000 A 
ATOM     17  N   UNL     1       7.416   5.545  15.151  0.00  0.00    +0.000 NA
ATOM     18  O   UNL     1       7.420   5.232  13.791  0.00  0.00    +0.000 OA
ENDBRANCH  12  16
ENDBRANCH   7  12
ENDBRANCH   1  10
BRANCH   4  19
ATOM     19  C   UNL     1       0.102  10.408  20.243  0.00  0.00    +0.000 A 
ATOM     20  N   UNL     1      -0.345  11.446  19.518  0.00  0.00    +0.000 NA
ATOM     21  O   UNL     1      -1.096  12.189  20.418  0.00  0.00    +0.000 OA
ATOM     22  C   UNL     1      -1.039  11.533  21.613  0.00  0.00    +0.000 A 
ATOM     23  N   UNL     1      -0.313  10.432  21.557  0.00  0.00    +0.000 NA
BRANCH  22  24
ATOM     24  C   UNL     1      -1.782  12.165  22.733  0.00  0.00    +0.000 C 
ATOM     25  F   UNL     1      -1.001  12.978  23.496  0.00  0.00    +0.000 F 
ATOM     26  F   UNL     1      -2.817  12.932  22.297  0.00  0.00    +0.000 F 
ATOM     27  F   UNL     1      -2.313  11.243  23.581  0.00  0.00    +0.000 F 
ENDBRANCH  22  24
ENDBRANCH   4  19
TORSDOF 5
ENDMDL
MODEL 2
REMARK VINA RESULT:      -8.5      1.925      2.255
REMARK  Name = 
REMARK  6 active torsions:
REMARK  status: ('A' for Active; 'I' for Inactive)
REMARK    1  A    between atoms: C_1  and  C_2
REMARK    2  A    between atoms: C_4  and  C_5
REMARK    3  A    between atoms: C_5  and  C_6
REMARK    4  A    between atoms: C_9  and  C_10
REMARK    5  A    between atoms: C_13  and  C_14
REMARK    6  A    between atoms: C_17  and  C_18
REMARK                            x       y       z     vdW  Elec       q    Type
REMARK                         _______ _______ _______ _____ _____    ______ ____
ROOT
ATOM      1  C   UNL     1       3.201   7.013  18.663  0.00  0.00    +0.000 A 
ATOM      2  C   UNL     1       2.469   7.072  19.856  0.00  0.00    +0.000 A 
ATOM      3  C   UNL     1       1.449   8.014  20.026  0.00  0.00    +0.000 A 
ATOM      4  C   UNL     1       1.131   8.919  19.005  0.00  0.00    +0.000 A 
ATOM      5  C   UNL     1       1.856   8.860  17.808  0.00  0.00    +0.000 A 
ATOM      6  C   UNL     1       2.882   7.917  17.640  0.00  0.00    +0.000 A 
ENDROOT
BRANCH   1  10
ATOM      7  C   UNL     1       5.982   4.929  17.982  0.00  0.00    +0.000 A 
ATOM      8  N   UNL     1       5.569   4.364  19.125  0.00  0.00    +0.000 NA
ATOM      9  O   UNL     1       4.452   5.121  19.470  0.00  0.00    +0.000 OA
ATOM     10  C   UNL     1       4.289   6.058  18.486  0.00  0.00    +0.000 A 
ATOM     11  N   UNL     1       5.185   5.957  17.529  0.00  0.00    +0.000 NA
BRANCH   7  12
ATOM     12  C   UNL     1       7.210   4.490  17.274  0.00  0.00    +0.000 C 
BRANCH  12  16
ATOM     13  C   UNL     1       5.840   3.508  12.626  0.00  0.00    +0.000 C 
ATOM     14  C   UNL     1       6.395   4.064  13.871  0.00  0.00    +0.000 A 
ATOM     15  N   UNL     1       6.218   3.682  15.115  0.00  0.00    +0.000 NA
ATOM     16  C   UNL     1       7.027   4.557  15.802  0.00  0.00    +0.000 A 
ATOM     17  N   UNL     1       7.639   5.473  15.036  0.00  0.00    +0.000 NA
ATOM     18  O   UNL     1       7.229   5.136  13.745  0.00  0.00    +0.000 OA
ENDBRANCH  12  16
ENDBRANCH   7  12
ENDBRANCH   1  10
BRANCH   4  19
ATOM     19  C   UNL     1       0.071   9.904  19.192  0.00  0.00    +0.000 A 
ATOM     20  N   UNL     1       0.087  10.841  20.154  0.00  0.00    +0.000 NA
ATOM     21  O   UNL     1      -1.093  11.546  19.961  0.00  0.00    +0.000 OA
ATOM     22  C   UNL     1      -1.723  10.973  18.895  0.00  0.00    +0.000 A 
ATOM     23  N   UNL     1      -1.047   9.959  18.387  0.00  0.00    +0.000 NA
BRANCH  22  24
ATOM     24  C   UNL     1      -3.024  11.578  18.513  0.00  0.00    +0.000 C 
ATOM     25  F   UNL     1      -3.369  12.634  19.300  0.00  0.00    +0.000 F 
ATOM     26  F   UNL     1      -3.022  12.041  17.234  0.00  0.00    +0.000 F 
ATOM     27  F   UNL     1      -4.049  10.688  18.601  0.00  0.00    +0.000 F 
ENDBRANCH  22  24
ENDBRANCH   4  19
TORSDOF 5
ENDMDL
MODEL 3
REMARK VINA RESULT:      -8.4      1.089      1.782
REMARK  Name = 
REMARK  6 active torsions:
REMARK  status: ('A' for Active; 'I' for Inactive)
REMARK    1  A    between atoms: C_1  and  C_2
REMARK    2  A    between atoms: C_4  and  C_5
REMARK    3  A    between atoms: C_5  and  C_6
REMARK    4  A    between atoms: C_9  and  C_10
REMARK    5  A    between atoms: C_13  and  C_14
REMARK    6  A    between atoms: C_17  and  C_18
REMARK                            x       y       z     vdW  Elec       q    Type
REMARK                         _______ _______ _______ _____ _____    ______ ____
ROOT
ATOM      1  C   UNL     1       2.831   7.141  18.721  0.00  0.00    +0.000 A 
ATOM      2  C   UNL     1       2.433   8.239  17.947  0.00  0.00    +0.000 A 
ATOM      3  C   UNL     1       1.546   9.193  18.458  0.00  0.00    +0.000 A 
ATOM      4  C   UNL     1       1.037   9.076  19.758  0.00  0.00    +0.000 A 
ATOM      5  C   UNL     1       1.438   7.983  20.538  0.00  0.00    +0.000 A 
ATOM      6  C   UNL     1       2.325   7.025  20.023  0.00  0.00    +0.000 A 
ENDROOT
BRANCH   1  10
ATOM      7  C   UNL     1       5.288   4.909  17.488  0.00  0.00    +0.000 A 
ATOM      8  N   UNL     1       4.277   4.044  17.647  0.00  0.00    +0.000 NA
ATOM      9  O   UNL     1       3.243   4.845  18.126  0.00  0.00    +0.000 OA
ATOM     10  C   UNL     1       3.729   6.123  18.188  0.00  0.00    +0.000 A 
ATOM     11  N   UNL     1       4.972   6.220  17.772  0.00  0.00    +0.000 NA
BRANCH   7  12
ATOM     12  C   UNL     1       6.642   4.482  17.058  0.00  0.00    +0.000 C 
BRANCH  12  16
ATOM     13  C   UNL     1       6.348   3.535  12.214  0.00  0.00    +0.000 C 
ATOM     14  C   UNL     1       6.600   4.087  13.555  0.00  0.00    +0.000 A 
ATOM     15  N   UNL     1       6.170   3.680  14.727  0.00  0.00    +0.000 NA
ATOM     16  C   UNL     1       6.781   4.567  15.582  0.00  0.00    +0.000 A 
ATOM     17  N   UNL     1       7.515   5.512  14.976  0.00  0.00    +0.000 NA
ATOM     18  O   UNL     1       7.407   5.185  13.624  0.00  0.00    +0.000 OA
ENDBRANCH  12  16
ENDBRANCH   7  12
ENDBRANCH   1  10
BRANCH   4  19
ATOM     19  C   UNL     1       0.106  10.071  20.281  0.00  0.00    +0.000 A 
ATOM     20  N   UNL     1      -0.058  10.318  21.591  0.00  0.00    +0.000 NA
ATOM     21  O   UNL     1      -1.018  11.319  21.629  0.00  0.00    +0.000 OA
ATOM     22  C   UNL     1      -1.353  11.592  20.334  0.00  0.00    +0.000 A 
ATOM     23  N   UNL     1      -0.688  10.850  19.468  0.00  0.00    +0.000 NA
BRANCH  22  24
ATOM     24  C   UNL     1      -2.381  12.646  20.142  0.00  0.00    +0.000 C 
ATOM     25  F   UNL     1      -3.165  12.829  21.240  0.00  0.00    +0.000 F 
ATOM     26  F   UNL     1      -1.831  13.858  19.861  0.00  0.00    +0.000 F 
ATOM     27  F   UNL     1      -3.226  12.357  19.115  0.00  0.00    +0.000 F 
ENDBRANCH  22  24
ENDBRANCH   4  19
TORSDOF 5
ENDMDL
MODEL 4
REMARK VINA RESULT:      -8.4      1.147      1.377
REMARK  Name = 
REMARK  6 active torsions:
REMARK  status: ('A' for Active; 'I' for Inactive)
REMARK    1  A    between atoms: C_1  and  C_2
REMARK    2  A    between atoms: C_4  and  C_5
REMARK    3  A    between atoms: C_5  and  C_6
REMARK    4  A    between atoms: C_9  and  C_10
REMARK    5  A    between atoms: C_13  and  C_14
REMARK    6  A    between atoms: C_17  and  C_18
REMARK                            x       y       z     vdW  Elec       q    Type
REMARK                         _______ _______ _______ _____ _____    ______ ____
ROOT
ATOM      1  C   UNL     1       2.639   7.467  18.748  0.00  0.00    +0.000 A 
ATOM      2  C   UNL     1       1.979   7.674  19.965  0.00  0.00    +0.000 A 
ATOM      3  C   UNL     1       1.128   8.771  20.143  0.00  0.00    +0.000 A 
ATOM      4  C   UNL     1       0.913   9.687  19.105  0.00  0.00    +0.000 A 
ATOM      5  C   UNL     1       1.566   9.479  17.883  0.00  0.00    +0.000 A 
ATOM      6  C   UNL     1       2.422   8.381  17.708  0.00  0.00    +0.000 A 
ENDROOT
BRANCH   1  10
ATOM      7  C   UNL     1       5.119   4.998  18.211  0.00  0.00    +0.000 A 
ATOM      8  N   UNL     1       4.214   4.250  18.857  0.00  0.00    +0.000 NA
ATOM      9  O   UNL     1       3.178   5.147  19.103  0.00  0.00    +0.000 OA
ATOM     10  C   UNL     1       3.553   6.346  18.562  0.00  0.00    +0.000 A 
ATOM     11  N   UNL     1       4.726   6.295  17.969  0.00  0.00    +0.000 NA
BRANCH   7  12
ATOM     12  C   UNL     1       6.446   4.469  17.806  0.00  0.00    +0.000 C 
BRANCH  12  16
ATOM     13  C   UNL     1       6.292   3.735  12.919  0.00  0.00    +0.000 C 
ATOM     14  C   UNL     1       6.521   4.218  14.291  0.00  0.00    +0.000 A 
ATOM     15  N   UNL     1       6.024   3.789  15.428  0.00  0.00    +0.000 NA
ATOM     16  C   UNL     1       6.648   4.606  16.342  0.00  0.00    +0.000 A 
ATOM     17  N   UNL     1       7.455   5.532  15.804  0.00  0.00    +0.000 NA
ATOM     18  O   UNL     1       7.383   5.265  14.437  0.00  0.00    +0.000 OA
ENDBRANCH  12  16
ENDBRANCH   7  12
ENDBRANCH   1  10
BRANCH   4  19
ATOM     19  C   UNL     1       0.031  10.833  19.299  0.00  0.00    +0.000 A 
ATOM     20  N   UNL     1       0.168  11.996  18.642  0.00  0.00    +0.000 NA
ATOM     21  O   UNL     1      -0.868  12.783  19.126  0.00  0.00    +0.000 OA
ATOM     22  C   UNL     1      -1.544  12.025  20.037  0.00  0.00    +0.000 A 
ATOM     23  N   UNL     1      -1.030  10.817  20.179  0.00  0.00    +0.000 NA
BRANCH  22  24
ATOM     24  C   UNL     1      -2.705  12.682  20.690  0.00  0.00    +0.000 C 
ATOM     25  F   UNL     1      -2.922  12.238  21.958  0.00  0.00    +0.000 F 
ATOM     26  F   UNL     1      -2.550  14.031  20.780  0.00  0.00    +0.000 F 
ATOM     27  F   UNL     1      -3.864  12.470  20.009  0.00  0.00    +0.000 F 
ENDBRANCH  22  24
ENDBRANCH   4  19
TORSDOF 5
ENDMDL
MODEL 5
REMARK VINA RESULT:      -8.4      1.156      1.645
REMARK  Name = 
REMARK  6 active torsions:
REMARK  status: ('A' for Active; 'I' for Inactive)
REMARK    1  A    between atoms: C_1  and  C_2
REMARK    2  A    between atoms: C_4  and  C_5
REMARK    3  A    between atoms: C_5  and  C_6
REMARK    4  A    between atoms: C_9  and  C_10
REMARK    5  A    between atoms: C_13  and  C_14
REMARK    6  A    between atoms: C_17  and  C_18
REMARK                            x       y       z     vdW  Elec       q    Type
REMARK                         _______ _______ _______ _____ _____    ______ ____
ROOT
ATOM      1  C   UNL     1       2.508   7.617  18.556  0.00  0.00    +0.000 A 
ATOM      2  C   UNL     1       2.187   8.686  17.709  0.00  0.00    +0.000 A 
ATOM      3  C   UNL     1       1.398   9.749  18.164  0.00  0.00    +0.000 A 
ATOM      4  C   UNL     1       0.913   9.771  19.477  0.00  0.00    +0.000 A 
ATOM      5  C   UNL     1       1.237   8.708  20.329  0.00  0.00    +0.000 A 
ATOM      6  C   UNL     1       2.025   7.641  19.871  0.00  0.00    +0.000 A 
ENDROOT
BRANCH   1  10
ATOM      7  C   UNL     1       4.732   5.054  17.545  0.00  0.00    +0.000 A 
ATOM      8  N   UNL     1       3.575   4.388  17.428  0.00  0.00    +0.000 NA
ATOM      9  O   UNL     1       2.623   5.335  17.799  0.00  0.00    +0.000 OA
ATOM     10  C   UNL     1       3.301   6.488  18.084  0.00  0.00    +0.000 A 
ATOM     11  N   UNL     1       4.599   6.376  17.907  0.00  0.00    +0.000 NA
BRANCH   7  12
ATOM     12  C   UNL     1       6.049   4.409  17.318  0.00  0.00    +0.000 C 
BRANCH  12  16
ATOM     13  C   UNL     1       6.678   3.805  12.451  0.00  0.00    +0.000 C 
ATOM     14  C   UNL     1       6.689   4.247  13.855  0.00  0.00    +0.000 A 
ATOM     15  N   UNL     1       6.007   3.800  14.884  0.00  0.00    +0.000 NA
ATOM     16  C   UNL     1       6.488   4.579  15.910  0.00  0.00    +0.000 A 
ATOM     17  N   UNL     1       7.386   5.502  15.537  0.00  0.00    +0.000 NA
ATOM     18  O   UNL     1       7.533   5.272  14.168  0.00  0.00    +0.000 OA
ENDBRANCH  12  16
ENDBRANCH   7  12
ENDBRANCH   1  10
BRANCH   4  19
ATOM     19  C   UNL     1       0.084  10.879  19.942  0.00  0.00    +0.000 A 
ATOM     20  N   UNL     1       0.565  11.933  20.622  0.00  0.00    +0.000 NA
ATOM     21  O   UNL     1      -0.551  12.725  20.852  0.00  0.00    +0.000 OA
ATOM     22  C   UNL     1      -1.614  12.080  20.290  0.00  0.00    +0.000 A 
ATOM     23  N   UNL     1      -1.274  10.940  19.718  0.00  0.00    +0.000 NA
BRANCH  22  24
ATOM     24  C   UNL     1      -2.927  12.761  20.425  0.00  0.00    +0.000 C 
ATOM     25  F   UNL     1      -2.818  14.117  20.476  0.00  0.00    +0.000 F 
ATOM     26  F   UNL     1      -3.760  12.485  19.386  0.00  0.00    +0.000 F 
ATOM     27  F   UNL     1      -3.583  12.390  21.558  0.00  0.00    +0.000 F 
ENDBRANCH  22  24
ENDBRANCH   4  19
TORSDOF 5
ENDMDL
MODEL 6
REMARK VINA RESULT:      -8.4      1.076      1.504
REMARK  Name = 
REMARK  6 active torsions:
REMARK  status: ('A' for Active; 'I' for Inactive)
REMARK    1  A    between atoms: C_1  and  C_2
REMARK    2  A    between atoms: C_4  and  C_5
REMARK    3  A    between atoms: C_5  and  C_6
REMARK    4  A    between atoms: C_9  and  C_10
REMARK    5  A    between atoms: C_13  and  C_14
REMARK    6  A    between atoms: C_17  and  C_18
REMARK                            x       y       z     vdW  Elec       q    Type
REMARK                         _______ _______ _______ _____ _____    ______ ____
ROOT
ATOM      1  C   UNL     1       2.977   7.259  18.683  0.00  0.00    +0.000 A 
ATOM      2  C   UNL     1       2.662   8.180  17.676  0.00  0.00    +0.000 A 
ATOM      3  C   UNL     1       1.667   9.144  17.871  0.00  0.00    +0.000 A 
ATOM      4  C   UNL     1       0.963   9.214  19.081  0.00  0.00    +0.000 A 
ATOM      5  C   UNL     1       1.280   8.299  20.093  0.00  0.00    +0.000 A 
ATOM      6  C   UNL     1       2.276   7.331  19.895  0.00  0.00    +0.000 A 
ENDROOT
BRANCH   1  10
ATOM      7  C   UNL     1       5.635   5.018  18.014  0.00  0.00    +0.000 A 
ATOM      8  N   UNL     1       4.987   4.304  18.945  0.00  0.00    +0.000 NA
ATOM      9  O   UNL     1       3.901   5.114  19.267  0.00  0.00    +0.000 OA
ATOM     10  C   UNL     1       3.990   6.229  18.480  0.00  0.00    +0.000 A 
ATOM     11  N   UNL     1       5.021   6.200  17.665  0.00  0.00    +0.000 NA
BRANCH   7  12
ATOM     12  C   UNL     1       6.920   4.572  17.421  0.00  0.00    +0.000 C 
BRANCH  12  16
ATOM     13  C   UNL     1       5.960   3.547  12.680  0.00  0.00    +0.000 C 
ATOM     14  C   UNL     1       6.405   4.114  13.963  0.00  0.00    +0.000 A 
ATOM     15  N   UNL     1       6.119   3.746  15.191  0.00  0.00    +0.000 NA
ATOM     16  C   UNL     1       6.867   4.625  15.938  0.00  0.00    +0.000 A 
ATOM     17  N   UNL     1       7.548   5.530  15.219  0.00  0.00    +0.000 NA
ATOM     18  O   UNL     1       7.252   5.182  13.901  0.00  0.00    +0.000 OA
ENDBRANCH  12  16
ENDBRANCH   7  12
ENDBRANCH   1  10
BRANCH   4  19
ATOM     19  C   UNL     1      -0.079  10.216  19.274  0.00  0.00    +0.000 A 
ATOM     20  N   UNL     1      -0.976  10.548  18.332  0.00  0.00    +0.000 NA
ATOM     21  O   UNL     1      -1.762  11.519  18.937  0.00  0.00    +0.000 OA
ATOM     22  C   UNL     1      -1.270  11.692  20.198  0.00  0.00    +0.000 A 
ATOM     23  N   UNL     1      -0.235  10.913  20.453  0.00  0.00    +0.000 NA
BRANCH  22  24
ATOM     24  C   UNL     1      -1.970  12.702  21.031  0.00  0.00    +0.000 C 
ATOM     25  F   UNL     1      -1.425  12.837  22.271  0.00  0.00    +0.000 F 
ATOM     26  F   UNL     1      -1.947  13.940  20.468  0.00  0.00    +0.000 F 
ATOM     27  F   UNL     1      -3.280  12.388  21.225  0.00  0.00    +0.000 F 
ENDBRANCH  22  24
ENDBRANCH   4  19
TORSDOF 5
ENDMDL
MODEL 7
REMARK VINA RESULT:      -8.3      0.970      1.295
REMARK  Name = 
REMARK  6 active torsions:
REMARK  status: ('A' for Active; 'I' for Inactive)
REMARK    1  A    between atoms: C_1  and  C_2
REMARK    2  A    between atoms: C_4  and  C_5
REMARK    3  A    between atoms: C_5  and  C_6
REMARK    4  A    between atoms: C_9  and  C_10
REMARK    5  A    between atoms: C_13  and  C_14
REMARK    6  A    between atoms: C_17  and  C_18
REMARK                            x       y       z     vdW  Elec       q    Type
REMARK                         _______ _______ _______ _____ _____    ______ ____
ROOT
ATOM      1  C   UNL     1       2.635   7.401  18.547  0.00  0.00    +0.000 A 
ATOM      2  C   UNL     1       2.148   7.370  19.860  0.00  0.00    +0.000 A 
ATOM      3  C   UNL     1       1.380   8.425  20.365  0.00  0.00    +0.000 A 
ATOM      4  C   UNL     1       1.076   9.536  19.568  0.00  0.00    +0.000 A 
ATOM      5  C   UNL     1       1.556   9.568  18.253  0.00  0.00    +0.000 A 
ATOM      6  C   UNL     1       2.329   8.511  17.749  0.00  0.00    +0.000 A 
ENDROOT
BRANCH   1  10
ATOM      7  C   UNL     1       4.943   4.981  17.382  0.00  0.00    +0.000 A 
ATOM      8  N   UNL     1       3.825   4.243  17.341  0.00  0.00    +0.000 NA
ATOM      9  O   UNL     1       2.842   5.129  17.778  0.00  0.00    +0.000 OA
ATOM     10  C   UNL     1       3.464   6.323  18.020  0.00  0.00    +0.000 A 
ATOM     11  N   UNL     1       4.752   6.293  17.756  0.00  0.00    +0.000 NA
BRANCH   7  12
ATOM     12  C   UNL     1       6.279   4.420  17.064  0.00  0.00    +0.000 C 
BRANCH  12  16
ATOM     13  C   UNL     1       6.538   3.674  12.184  0.00  0.00    +0.000 C 
ATOM     14  C   UNL     1       6.636   4.169  13.566  0.00  0.00    +0.000 A 
ATOM     15  N   UNL     1       6.074   3.717  14.664  0.00  0.00    +0.000 NA
ATOM     16  C   UNL     1       6.586   4.564  15.619  0.00  0.00    +0.000 A 
ATOM     17  N   UNL     1       7.387   5.528  15.140  0.00  0.00    +0.000 NA
ATOM     18  O   UNL     1       7.433   5.257  13.773  0.00  0.00    +0.000 OA
ENDBRANCH  12  16
ENDBRANCH   7  12
ENDBRANCH   1  10
BRANCH   4  19
ATOM     19  C   UNL     1       0.281  10.637  20.104  0.00  0.00    +0.000 A 
ATOM     20  N   UNL     1      -1.038  10.773  19.891  0.00  0.00    +0.000 NA
ATOM     21  O   UNL     1      -1.374  11.933  20.575  0.00  0.00    +0.000 OA
ATOM     22  C   UNL     1      -0.225  12.400  21.145  0.00  0.00    +0.000 A 
ATOM     23  N   UNL     1       0.820  11.636  20.884  0.00  0.00    +0.000 NA
BRANCH  22  24
ATOM     24  C   UNL     1      -0.357  13.652  21.932  0.00  0.00    +0.000 C 
ATOM     25  F   UNL     1      -1.010  13.469  23.113  0.00  0.00    +0.000 F 
ATOM     26  F   UNL     1       0.850  14.195  22.245  0.00  0.00    +0.000 F 
ATOM     27  F   UNL     1      -1.051  14.610  21.259  0.00  0.00    +0.000 F 
ENDBRANCH  22  24
ENDBRANCH   4  19
TORSDOF 5
ENDMDL
MODEL 8
REMARK VINA RESULT:      -8.3      1.481      1.653
REMARK  Name = 
REMARK  6 active torsions:
REMARK  status: ('A' for Active; 'I' for Inactive)
REMARK    1  A    between atoms: C_1  and  C_2
REMARK    2  A    between atoms: C_4  and  C_5
REMARK    3  A    between atoms: C_5  and  C_6
REMARK    4  A    between atoms: C_9  and  C_10
REMARK    5  A    between atoms: C_13  and  C_14
REMARK    6  A    between atoms: C_17  and  C_18
REMARK                            x       y       z     vdW  Elec       q    Type
REMARK                         _______ _______ _______ _____ _____    ______ ____
ROOT
ATOM      1  C   UNL     1       2.618   7.394  18.811  0.00  0.00    +0.000 A 
ATOM      2  C   UNL     1       2.009   7.660  20.044  0.00  0.00    +0.000 A 
ATOM      3  C   UNL     1       1.101   8.716  20.183  0.00  0.00    +0.000 A 
ATOM      4  C   UNL     1       0.777   9.531  19.092  0.00  0.00    +0.000 A 
ATOM      5  C   UNL     1       1.378   9.265  17.855  0.00  0.00    +0.000 A 
ATOM      6  C   UNL     1       2.291   8.208  17.717  0.00  0.00    +0.000 A 
ENDROOT
BRANCH   1  10
ATOM      7  C   UNL     1       5.219   5.041  18.330  0.00  0.00    +0.000 A 
ATOM      8  N   UNL     1       4.393   4.293  19.076  0.00  0.00    +0.000 NA
ATOM      9  O   UNL     1       3.316   5.145  19.309  0.00  0.00    +0.000 OA
ATOM     10  C   UNL     1       3.591   6.318  18.661  0.00  0.00    +0.000 A 
ATOM     11  N   UNL     1       4.734   6.290  18.013  0.00  0.00    +0.000 NA
BRANCH   7  12
ATOM     12  C   UNL     1       6.555   4.561  17.897  0.00  0.00    +0.000 C 
BRANCH  12  16
ATOM     13  C   UNL     1       6.208   3.698  13.041  0.00  0.00    +0.000 C 
ATOM     14  C   UNL     1       6.493   4.215  14.389  0.00  0.00    +0.000 A 
ATOM     15  N   UNL     1       6.036   3.821  15.556  0.00  0.00    +0.000 NA
ATOM     16  C   UNL     1       6.701   4.656  16.423  0.00  0.00    +0.000 A 
ATOM     17  N   UNL     1       7.494   5.561  15.830  0.00  0.00    +0.000 NA
ATOM     18  O   UNL     1       7.368   5.258  14.474  0.00  0.00    +0.000 OA
ENDBRANCH  12  16
ENDBRANCH   7  12
ENDBRANCH   1  10
BRANCH   4  19
ATOM     19  C   UNL     1      -0.165  10.635  19.246  0.00  0.00    +0.000 A 
ATOM     20  N   UNL     1      -1.421  10.612  18.771  0.00  0.00    +0.000 NA
ATOM     21  O   UNL     1      -1.946  11.843  19.141  0.00  0.00    +0.000 OA
ATOM     22  C   UNL     1      -0.958  12.506  19.811  0.00  0.00    +0.000 A 
ATOM     23  N   UNL     1       0.156  11.804  19.902  0.00  0.00    +0.000 NA
BRANCH  22  24
ATOM     24  C   UNL     1      -1.309  13.863  20.300  0.00  0.00    +0.000 C 
ATOM     25  F   UNL     1      -0.710  14.172  21.483  0.00  0.00    +0.000 F 
ATOM     26  F   UNL     1      -0.944  14.838  19.423  0.00  0.00    +0.000 F 
ATOM     27  F   UNL     1      -2.647  14.005  20.503  0.00  0.00    +0.000 F 
ENDBRANCH  22  24
ENDBRANCH   4  19
TORSDOF 5
ENDMDL
MODEL 9
REMARK VINA RESULT:      -8.3      0.617      1.287
REMARK  Name = 
REMARK  6 active torsions:
REMARK  status: ('A' for Active; 'I' for Inactive)
REMARK    1  A    between atoms: C_1  and  C_2
REMARK    2  A    between atoms: C_4  and  C_5
REMARK    3  A    between atoms: C_5  and  C_6
REMARK    4  A    between atoms: C_9  and  C_10
REMARK    5  A    between atoms: C_13  and  C_14
REMARK    6  A    between atoms: C_17  and  C_18
REMARK                            x       y       z     vdW  Elec       q    Type
REMARK                         _______ _______ _______ _____ _____    ______ ____
ROOT
ATOM      1  C   UNL     1       2.721   7.316  18.531  0.00  0.00    +0.000 A 
ATOM      2  C   UNL     1       2.341   8.429  17.770  0.00  0.00    +0.000 A 
ATOM      3  C   UNL     1       1.499   9.410  18.304  0.00  0.00    +0.000 A 
ATOM      4  C   UNL     1       1.018   9.305  19.616  0.00  0.00    +0.000 A 
ATOM      5  C   UNL     1       1.400   8.197  20.383  0.00  0.00    +0.000 A 
ATOM      6  C   UNL     1       2.242   7.212  19.844  0.00  0.00    +0.000 A 
ENDROOT
BRANCH   1  10
ATOM      7  C   UNL     1       5.076   4.973  17.306  0.00  0.00    +0.000 A 
ATOM      8  N   UNL     1       3.968   4.224  17.219  0.00  0.00    +0.000 NA
ATOM      9  O   UNL     1       2.968   5.079  17.676  0.00  0.00    +0.000 OA
ATOM     10  C   UNL     1       3.572   6.270  17.974  0.00  0.00    +0.000 A 
ATOM     11  N   UNL     1       4.863   6.266  17.729  0.00  0.00    +0.000 NA
BRANCH   7  12
ATOM     12  C   UNL     1       6.424   4.441  16.987  0.00  0.00    +0.000 C 
BRANCH  12  16
ATOM     13  C   UNL     1       8.062   5.622  12.474  0.00  0.00    +0.000 C 
ATOM     14  C   UNL     1       7.417   5.027  13.655  0.00  0.00    +0.000 A 
ATOM     15  N   UNL     1       7.562   5.315  14.928  0.00  0.00    +0.000 NA
ATOM     16  C   UNL     1       6.667   4.456  15.523  0.00  0.00    +0.000 A 
ATOM     17  N   UNL     1       6.032   3.636  14.672  0.00  0.00    +0.000 NA
ATOM     18  O   UNL     1       6.520   4.026  13.425  0.00  0.00    +0.000 OA
ENDBRANCH  12  16
ENDBRANCH   7  12
ENDBRANCH   1  10
BRANCH   4  19
ATOM     19  C   UNL     1       0.133  10.328  20.164  0.00  0.00    +0.000 A 
ATOM     20  N   UNL     1      -0.432  11.296  19.424  0.00  0.00    +0.000 NA
ATOM     21  O   UNL     1      -1.180  12.027  20.337  0.00  0.00    +0.000 OA
ATOM     22  C   UNL     1      -1.002  11.436  21.554  0.00  0.00    +0.000 A 
ATOM     23  N   UNL     1      -0.203  10.387  21.499  0.00  0.00    +0.000 NA
BRANCH  22  24
ATOM     24  C   UNL     1      -1.720  12.068  22.690  0.00  0.00    +0.000 C 
ATOM     25  F   UNL     1      -0.933  12.914  23.410  0.00  0.00    +0.000 F 
ATOM     26  F   UNL     1      -2.791  12.800  22.280  0.00  0.00    +0.000 F 
ATOM     27  F   UNL     1      -2.195  11.147  23.572  0.00  0.00    +0.000 F 
ENDBRANCH  22  24
ENDBRANCH   4  19
TORSDOF 5
ENDMDL
