MODEL 1
REMARK VINA RESULT:      -9.4      0.000      0.000
REMARK  Name = 
REMARK  2 active torsions:
REMARK  status: ('A' for Active; 'I' for Inactive)
REMARK    1  A    between atoms: C_4  and  C_5
REMARK    2  A    between atoms: C_5  and  N_6
REMARK                            x       y       z     vdW  Elec       q    Type
REMARK                         _______ _______ _______ _____ _____    ______ ____
ROOT
ATOM      1  O   UNL     1       2.520   9.274  17.681  0.00  0.00    +0.000 OA
ATOM      2  C   UNL     1       2.778   8.132  18.044  0.00  0.00    +0.000 A 
ATOM      3  C   UNL     1       3.981   7.440  17.533  0.00  0.00    +0.000 A 
ATOM      4  C   UNL     1       4.191   6.138  17.733  0.00  0.00    +0.000 A 
ATOM      5  C   UNL     1       3.149   5.399  18.441  0.00  0.00    +0.000 A 
ATOM      6  C   UNL     1       3.239   4.028  18.558  0.00  0.00    +0.000 A 
ATOM      7  C   UNL     1       2.801   3.477  19.736  0.00  0.00    +0.000 A 
ATOM      8  C   UNL     1       1.996   4.176  20.635  0.00  0.00    +0.000 A 
ATOM      9  C   UNL     1       1.632   5.487  20.356  0.00  0.00    +0.000 A 
ATOM     10  C   UNL     1       2.262   6.105  19.269  0.00  0.00    +0.000 A 
ATOM     11  O   UNL     1       2.051   7.475  19.034  0.00  0.00    +0.000 OA
ATOM     12  C   UNL     1       1.701   3.306  21.807  0.00  0.00    +0.000 C 
ATOM     13  C   UNL     1       2.791   2.216  21.708  0.00  0.00    +0.000 C 
ATOM     14  C   UNL     1       3.370   2.224  20.295  0.00  0.00    +0.000 C 
ENDROOT
BRANCH   4  15
ATOM     15  C   UNL     1       5.555   5.464  17.607  0.00  0.00    +0.000 C 
BRANCH  15  16
ATOM     16  N   UNL     1       6.004   5.303  16.231  0.00  0.00    +0.000 N 
ATOM     17  N   UNL     1       7.178   5.924  15.922  0.00  0.00    +0.000 NA
ATOM     18  N   UNL     1       7.731   5.765  14.815  0.00  0.00    +0.000 NA
ATOM     19  C   UNL     1       7.157   4.919  13.859  0.00  0.00    +0.000 A 
ATOM     20  C   UNL     1       7.820   4.745  12.639  0.00  0.00    +0.000 A 
ATOM     21  C   UNL     1       7.294   3.909  11.651  0.00  0.00    +0.000 A 
ATOM     22  C   UNL     1       6.088   3.245  11.870  0.00  0.00    +0.000 A 
ATOM     23  C   UNL     1       5.418   3.409  13.084  0.00  0.00    +0.000 A 
ATOM     24  C   UNL     1       5.971   4.240  14.071  0.00  0.00    +0.000 A 
ATOM     25  C   UNL     1       5.364   4.404  15.382  0.00  0.00    +0.000 A 
ATOM     26  O   UNL     1       4.337   3.785  15.661  0.00  0.00    +0.000 OA
ENDBRANCH  15  16
ENDBRANCH   4  15
TORSDOF 2
ENDMDL
MODEL 2
REMARK VINA RESULT:      -9.1      3.991      7.977
REMARK  Name = 
REMARK  2 active torsions:
REMARK  status: ('A' for Active; 'I' for Inactive)
REMARK    1  A    between atoms: C_4  and  C_5
REMARK    2  A    between atoms: C_5  and  N_6
REMARK                            x       y       z     vdW  Elec       q    Type
REMARK                         _______ _______ _______ _____ _____    ______ ____
ROOT
ATOM      1  O   UNL     1       1.012   3.335  18.448  0.00  0.00    +0.000 OA
ATOM      2  C   UNL     1       1.925   4.144  18.330  0.00  0.00    +0.000 A 
ATOM      3  C   UNL     1       1.630   5.577  18.116  0.00  0.00    +0.000 A 
ATOM      4  C   UNL     1       2.576   6.455  17.778  0.00  0.00    +0.000 A 
ATOM      5  C   UNL     1       3.923   5.932  17.573  0.00  0.00    +0.000 A 
ATOM      6  C   UNL     1       4.915   6.760  17.088  0.00  0.00    +0.000 A 
ATOM      7  C   UNL     1       6.177   6.574  17.591  0.00  0.00    +0.000 A 
ATOM      8  C   UNL     1       6.545   5.419  18.282  0.00  0.00    +0.000 A 
ATOM      9  C   UNL     1       5.606   4.419  18.498  0.00  0.00    +0.000 A 
ATOM     10  C   UNL     1       4.277   4.714  18.176  0.00  0.00    +0.000 A 
ATOM     11  O   UNL     1       3.262   3.802  18.516  0.00  0.00    +0.000 OA
ATOM     12  C   UNL     1       7.971   5.530  18.696  0.00  0.00    +0.000 C 
ATOM     13  C   UNL     1       8.245   7.047  18.582  0.00  0.00    +0.000 C 
ATOM     14  C   UNL     1       7.164   7.678  17.709  0.00  0.00    +0.000 C 
ENDROOT
BRANCH   4  15
ATOM     15  C   UNL     1       2.435   7.966  17.943  0.00  0.00    +0.000 C 
BRANCH  15  16
ATOM     16  N   UNL     1       1.693   8.359  19.132  0.00  0.00    +0.000 N 
ATOM     17  N   UNL     1       1.976   7.648  20.261  0.00  0.00    +0.000 NA
ATOM     18  N   UNL     1       1.499   7.961  21.371  0.00  0.00    +0.000 NA
ATOM     19  C   UNL     1       0.663   9.077  21.484  0.00  0.00    +0.000 A 
ATOM     20  C   UNL     1       0.168   9.414  22.749  0.00  0.00    +0.000 A 
ATOM     21  C   UNL     1      -0.666  10.522  22.920  0.00  0.00    +0.000 A 
ATOM     22  C   UNL     1      -1.026  11.300  21.821  0.00  0.00    +0.000 A 
ATOM     23  C   UNL     1      -0.537  10.975  20.553  0.00  0.00    +0.000 A 
ATOM     24  C   UNL     1       0.314   9.869  20.404  0.00  0.00    +0.000 A 
ATOM     25  C   UNL     1       0.914   9.513  19.128  0.00  0.00    +0.000 A 
ATOM     26  O   UNL     1       0.693  10.207  18.135  0.00  0.00    +0.000 OA
ENDBRANCH  15  16
ENDBRANCH   4  15
TORSDOF 2
ENDMDL
MODEL 3
REMARK VINA RESULT:      -9.0      3.861      7.799
REMARK  Name = 
REMARK  2 active torsions:
REMARK  status: ('A' for Active; 'I' for Inactive)
REMARK    1  A    between atoms: C_4  and  C_5
REMARK    2  A    between atoms: C_5  and  N_6
REMARK                            x       y       z     vdW  Elec       q    Type
REMARK                         _______ _______ _______ _____ _____    ______ ____
ROOT
ATOM      1  O   UNL     1       0.922   2.784  21.264  0.00  0.00    +0.000 OA
ATOM      2  C   UNL     1       1.611   3.442  20.492  0.00  0.00    +0.000 A 
ATOM      3  C   UNL     1       1.705   4.910  20.643  0.00  0.00    +0.000 A 
ATOM      4  C   UNL     1       2.268   5.685  19.714  0.00  0.00    +0.000 A 
ATOM      5  C   UNL     1       2.745   5.027  18.501  0.00  0.00    +0.000 A 
ATOM      6  C   UNL     1       3.209   5.784  17.446  0.00  0.00    +0.000 A 
ATOM      7  C   UNL     1       4.271   5.279  16.740  0.00  0.00    +0.000 A 
ATOM      8  C   UNL     1       4.661   3.943  16.829  0.00  0.00    +0.000 A 
ATOM      9  C   UNL     1       3.974   3.081  17.675  0.00  0.00    +0.000 A 
ATOM     10  C   UNL     1       3.042   3.655  18.547  0.00  0.00    +0.000 A 
ATOM     11  O   UNL     1       2.431   2.858  19.531  0.00  0.00    +0.000 OA
ATOM     12  C   UNL     1       5.841   3.718  15.950  0.00  0.00    +0.000 C 
ATOM     13  C   UNL     1       6.369   5.150  15.711  0.00  0.00    +0.000 C 
ATOM     14  C   UNL     1       5.268   6.147  16.062  0.00  0.00    +0.000 C 
ENDROOT
BRANCH   4  15
ATOM     15  C   UNL     1       2.763   7.106  19.973  0.00  0.00    +0.000 C 
BRANCH  15  16
ATOM     16  N   UNL     1       1.692   8.079  20.133  0.00  0.00    +0.000 N 
ATOM     17  N   UNL     1       1.242   8.251  21.409  0.00  0.00    +0.000 NA
ATOM     18  N   UNL     1       0.414   9.138  21.699  0.00  0.00    +0.000 NA
ATOM     19  C   UNL     1      -0.065  10.000  20.706  0.00  0.00    +0.000 A 
ATOM     20  C   UNL     1      -0.972  11.000  21.073  0.00  0.00    +0.000 A 
ATOM     21  C   UNL     1      -1.479  11.892  20.124  0.00  0.00    +0.000 A 
ATOM     22  C   UNL     1      -1.091  11.784  18.789  0.00  0.00    +0.000 A 
ATOM     23  C   UNL     1      -0.184  10.791  18.411  0.00  0.00    +0.000 A 
ATOM     24  C   UNL     1       0.327   9.916  19.382  0.00  0.00    +0.000 A 
ATOM     25  C   UNL     1       1.324   8.904  19.073  0.00  0.00    +0.000 A 
ATOM     26  O   UNL     1       1.762   8.808  17.926  0.00  0.00    +0.000 OA
ENDBRANCH  15  16
ENDBRANCH   4  15
TORSDOF 2
ENDMDL
MODEL 4
REMARK VINA RESULT:      -9.0      3.646      7.683
REMARK  Name = 
REMARK  2 active torsions:
REMARK  status: ('A' for Active; 'I' for Inactive)
REMARK    1  A    between atoms: C_4  and  C_5
REMARK    2  A    between atoms: C_5  and  N_6
REMARK                            x       y       z     vdW  Elec       q    Type
REMARK                         _______ _______ _______ _____ _____    ______ ____
ROOT
ATOM      1  O   UNL     1       0.260   2.341  19.001  0.00  0.00    +0.000 OA
ATOM      2  C   UNL     1       1.195   3.085  18.727  0.00  0.00    +0.000 A 
ATOM      3  C   UNL     1       1.357   4.371  19.437  0.00  0.00    +0.000 A 
ATOM      4  C   UNL     1       2.228   5.300  19.036  0.00  0.00    +0.000 A 
ATOM      5  C   UNL     1       2.988   5.016  17.822  0.00  0.00    +0.000 A 
ATOM      6  C   UNL     1       3.801   5.988  17.277  0.00  0.00    +0.000 A 
ATOM      7  C   UNL     1       4.980   5.567  16.718  0.00  0.00    +0.000 A 
ATOM      8  C   UNL     1       5.219   4.233  16.390  0.00  0.00    +0.000 A 
ATOM      9  C   UNL     1       4.247   3.276  16.654  0.00  0.00    +0.000 A 
ATOM     10  C   UNL     1       3.148   3.680  17.420  0.00  0.00    +0.000 A 
ATOM     11  O   UNL     1       2.214   2.721  17.850  0.00  0.00    +0.000 OA
ATOM     12  C   UNL     1       6.584   4.109  15.809  0.00  0.00    +0.000 C 
ATOM     13  C   UNL     1       7.271   5.416  16.264  0.00  0.00    +0.000 C 
ATOM     14  C   UNL     1       6.198   6.417  16.682  0.00  0.00    +0.000 C 
ENDROOT
BRANCH   4  15
ATOM     15  C   UNL     1       2.736   6.433  19.924  0.00  0.00    +0.000 C 
BRANCH  15  16
ATOM     16  N   UNL     1       1.791   7.532  20.069  0.00  0.00    +0.000 N 
ATOM     17  N   UNL     1       1.084   7.546  21.235  0.00  0.00    +0.000 NA
ATOM     18  N   UNL     1       0.332   8.496  21.534  0.00  0.00    +0.000 NA
ATOM     19  C   UNL     1       0.211   9.592  20.673  0.00  0.00    +0.000 A 
ATOM     20  C   UNL     1      -0.621  10.650  21.054  0.00  0.00    +0.000 A 
ATOM     21  C   UNL     1      -0.775  11.772  20.235  0.00  0.00    +0.000 A 
ATOM     22  C   UNL     1      -0.106  11.840  19.014  0.00  0.00    +0.000 A 
ATOM     23  C   UNL     1       0.729  10.790  18.623  0.00  0.00    +0.000 A 
ATOM     24  C   UNL     1       0.884   9.681  19.468  0.00  0.00    +0.000 A 
ATOM     25  C   UNL     1       1.787   8.584  19.156  0.00  0.00    +0.000 A 
ATOM     26  O   UNL     1       2.462   8.622  18.127  0.00  0.00    +0.000 OA
ENDBRANCH  15  16
ENDBRANCH   4  15
TORSDOF 2
ENDMDL
MODEL 5
REMARK VINA RESULT:      -8.8      3.491      7.697
REMARK  Name = 
REMARK  2 active torsions:
REMARK  status: ('A' for Active; 'I' for Inactive)
REMARK    1  A    between atoms: C_4  and  C_5
REMARK    2  A    between atoms: C_5  and  N_6
REMARK                            x       y       z     vdW  Elec       q    Type
REMARK                         _______ _______ _______ _____ _____    ______ ____
ROOT
ATOM      1  O   UNL     1       0.373   2.486  18.687  0.00  0.00    +0.000 OA
ATOM      2  C   UNL     1       1.308   3.258  18.508  0.00  0.00    +0.000 A 
ATOM      3  C   UNL     1       1.371   4.538  19.245  0.00  0.00    +0.000 A 
ATOM      4  C   UNL     1       2.248   5.495  18.935  0.00  0.00    +0.000 A 
ATOM      5  C   UNL     1       3.122   5.249  17.792  0.00  0.00    +0.000 A 
ATOM      6  C   UNL     1       3.953   6.250  17.334  0.00  0.00    +0.000 A 
ATOM      7  C   UNL     1       5.189   5.868  16.878  0.00  0.00    +0.000 A 
ATOM      8  C   UNL     1       5.493   4.546  16.557  0.00  0.00    +0.000 A 
ATOM      9  C   UNL     1       4.528   3.560  16.721  0.00  0.00    +0.000 A 
ATOM     10  C   UNL     1       3.354   3.923  17.390  0.00  0.00    +0.000 A 
ATOM     11  O   UNL     1       2.411   2.935  17.722  0.00  0.00    +0.000 OA
ATOM     12  C   UNL     1       6.908   4.465  16.101  0.00  0.00    +0.000 C 
ATOM     13  C   UNL     1       7.515   5.784  16.631  0.00  0.00    +0.000 C 
ATOM     14  C   UNL     1       6.382   6.750  16.962  0.00  0.00    +0.000 C 
ENDROOT
BRANCH   4  15
ATOM     15  C   UNL     1       2.643   6.629  19.878  0.00  0.00    +0.000 C 
BRANCH  15  16
ATOM     16  N   UNL     1       1.914   7.867  19.642  0.00  0.00    +0.000 N 
ATOM     17  N   UNL     1       1.787   8.232  18.334  0.00  0.00    +0.000 NA
ATOM     18  N   UNL     1       1.086   9.205  17.990  0.00  0.00    +0.000 NA
ATOM     19  C   UNL     1       0.388   9.942  18.953  0.00  0.00    +0.000 A 
ATOM     20  C   UNL     1      -0.410  11.009  18.527  0.00  0.00    +0.000 A 
ATOM     21  C   UNL     1      -1.131  11.776  19.446  0.00  0.00    +0.000 A 
ATOM     22  C   UNL     1      -1.051  11.490  20.808  0.00  0.00    +0.000 A 
ATOM     23  C   UNL     1      -0.259  10.425  21.246  0.00  0.00    +0.000 A 
ATOM     24  C   UNL     1       0.444   9.656  20.306  0.00  0.00    +0.000 A 
ATOM     25  C   UNL     1       1.233   8.494  20.683  0.00  0.00    +0.000 A 
ATOM     26  O   UNL     1       1.282   8.147  21.863  0.00  0.00    +0.000 OA
ENDBRANCH  15  16
ENDBRANCH   4  15
TORSDOF 2
ENDMDL
MODEL 6
REMARK VINA RESULT:      -8.5      1.131      1.616
REMARK  Name = 
REMARK  2 active torsions:
REMARK  status: ('A' for Active; 'I' for Inactive)
REMARK    1  A    between atoms: C_4  and  C_5
REMARK    2  A    between atoms: C_5  and  N_6
REMARK                            x       y       z     vdW  Elec       q    Type
REMARK                         _______ _______ _______ _____ _____    ______ ____
ROOT
ATOM      1  O   UNL     1       2.373   9.195  17.822  0.00  0.00    +0.000 OA
ATOM      2  C   UNL     1       2.637   8.052  18.180  0.00  0.00    +0.000 A 
ATOM      3  C   UNL     1       3.869   7.388  17.704  0.00  0.00    +0.000 A 
ATOM      4  C   UNL     1       4.094   6.086  17.896  0.00  0.00    +0.000 A 
ATOM      5  C   UNL     1       3.040   5.321  18.555  0.00  0.00    +0.000 A 
ATOM      6  C   UNL     1       3.149   3.950  18.659  0.00  0.00    +0.000 A 
ATOM      7  C   UNL     1       2.678   3.377  19.813  0.00  0.00    +0.000 A 
ATOM      8  C   UNL     1       1.830   4.051  20.691  0.00  0.00    +0.000 A 
ATOM      9  C   UNL     1       1.454   5.359  20.416  0.00  0.00    +0.000 A 
ATOM     10  C   UNL     1       2.112   6.001  19.361  0.00  0.00    +0.000 A 
ATOM     11  O   UNL     1       1.887   7.370  19.135  0.00  0.00    +0.000 OA
ATOM     12  C   UNL     1       1.509   3.161  21.841  0.00  0.00    +0.000 C 
ATOM     13  C   UNL     1       2.620   2.089  21.767  0.00  0.00    +0.000 C 
ATOM     14  C   UNL     1       3.249   2.126  20.377  0.00  0.00    +0.000 C 
ENDROOT
BRANCH   4  15
ATOM     15  C   UNL     1       5.473   5.437  17.810  0.00  0.00    +0.000 C 
BRANCH  15  16
ATOM     16  N   UNL     1       5.790   4.907  16.492  0.00  0.00    +0.000 N 
ATOM     17  N   UNL     1       4.945   3.942  16.029  0.00  0.00    +0.000 NA
ATOM     18  N   UNL     1       5.035   3.492  14.869  0.00  0.00    +0.000 NA
ATOM     19  C   UNL     1       6.010   3.991  13.998  0.00  0.00    +0.000 A 
ATOM     20  C   UNL     1       6.064   3.483  12.696  0.00  0.00    +0.000 A 
ATOM     21  C   UNL     1       7.014   3.948  11.783  0.00  0.00    +0.000 A 
ATOM     22  C   UNL     1       7.933   4.923  12.170  0.00  0.00    +0.000 A 
ATOM     23  C   UNL     1       7.888   5.440  13.467  0.00  0.00    +0.000 A 
ATOM     24  C   UNL     1       6.915   4.972  14.363  0.00  0.00    +0.000 A 
ATOM     25  C   UNL     1       6.767   5.512  15.705  0.00  0.00    +0.000 A 
ATOM     26  O   UNL     1       7.502   6.427  16.079  0.00  0.00    +0.000 OA
ENDBRANCH  15  16
ENDBRANCH   4  15
TORSDOF 2
ENDMDL
MODEL 7
REMARK VINA RESULT:      -8.4      2.890      7.422
REMARK  Name = 
REMARK  2 active torsions:
REMARK  status: ('A' for Active; 'I' for Inactive)
REMARK    1  A    between atoms: C_4  and  C_5
REMARK    2  A    between atoms: C_5  and  N_6
REMARK                            x       y       z     vdW  Elec       q    Type
REMARK                         _______ _______ _______ _____ _____    ______ ____
ROOT
ATOM      1  O   UNL     1       8.098   7.679  18.345  0.00  0.00    +0.000 OA
ATOM      2  C   UNL     1       7.433   6.979  17.589  0.00  0.00    +0.000 A 
ATOM      3  C   UNL     1       6.017   6.686  17.895  0.00  0.00    +0.000 A 
ATOM      4  C   UNL     1       5.318   5.770  17.222  0.00  0.00    +0.000 A 
ATOM      5  C   UNL     1       6.030   5.019  16.191  0.00  0.00    +0.000 A 
ATOM      6  C   UNL     1       5.407   3.965  15.556  0.00  0.00    +0.000 A 
ATOM      7  C   UNL     1       5.681   3.797  14.223  0.00  0.00    +0.000 A 
ATOM      8  C   UNL     1       6.769   4.407  13.599  0.00  0.00    +0.000 A 
ATOM      9  C   UNL     1       7.605   5.239  14.334  0.00  0.00    +0.000 A 
ATOM     10  C   UNL     1       7.190   5.575  15.628  0.00  0.00    +0.000 A 
ATOM     11  O   UNL     1       7.913   6.533  16.360  0.00  0.00    +0.000 OA
ATOM     12  C   UNL     1       6.784   4.029  12.159  0.00  0.00    +0.000 C 
ATOM     13  C   UNL     1       5.343   3.522  11.923  0.00  0.00    +0.000 C 
ATOM     14  C   UNL     1       4.704   3.206  13.272  0.00  0.00    +0.000 C 
ENDROOT
BRANCH   4  15
ATOM     15  C   UNL     1       3.793   5.708  17.198  0.00  0.00    +0.000 C 
BRANCH  15  16
ATOM     16  N   UNL     1       3.151   6.819  17.885  0.00  0.00    +0.000 N 
ATOM     17  N   UNL     1       2.888   7.912  17.112  0.00  0.00    +0.000 NA
ATOM     18  N   UNL     1       2.235   8.882  17.549  0.00  0.00    +0.000 NA
ATOM     19  C   UNL     1       1.736   8.859  18.856  0.00  0.00    +0.000 A 
ATOM     20  C   UNL     1       0.985   9.952  19.301  0.00  0.00    +0.000 A 
ATOM     21  C   UNL     1       0.458   9.980  20.596  0.00  0.00    +0.000 A 
ATOM     22  C   UNL     1       0.689   8.915  21.465  0.00  0.00    +0.000 A 
ATOM     23  C   UNL     1       1.436   7.817  21.031  0.00  0.00    +0.000 A 
ATOM     24  C   UNL     1       1.941   7.800  19.722  0.00  0.00    +0.000 A 
ATOM     25  C   UNL     1       2.668   6.662  19.181  0.00  0.00    +0.000 A 
ATOM     26  O   UNL     1       2.839   5.661  19.877  0.00  0.00    +0.000 OA
ENDBRANCH  15  16
ENDBRANCH   4  15
TORSDOF 2
ENDMDL
MODEL 8
REMARK VINA RESULT:      -8.4      4.206      8.345
REMARK  Name = 
REMARK  2 active torsions:
REMARK  status: ('A' for Active; 'I' for Inactive)
REMARK    1  A    between atoms: C_4  and  C_5
REMARK    2  A    between atoms: C_5  and  N_6
REMARK                            x       y       z     vdW  Elec       q    Type
REMARK                         _______ _______ _______ _____ _____    ______ ____
ROOT
ATOM      1  O   UNL     1       1.414   3.606  21.719  0.00  0.00    +0.000 OA
ATOM      2  C   UNL     1       2.047   4.193  20.849  0.00  0.00    +0.000 A 
ATOM      3  C   UNL     1       1.775   5.617  20.561  0.00  0.00    +0.000 A 
ATOM      4  C   UNL     1       2.284   6.237  19.495  0.00  0.00    +0.000 A 
ATOM      5  C   UNL     1       3.090   5.432  18.582  0.00  0.00    +0.000 A 
ATOM      6  C   UNL     1       3.530   5.975  17.393  0.00  0.00    +0.000 A 
ATOM      7  C   UNL     1       4.778   5.603  16.966  0.00  0.00    +0.000 A 
ATOM      8  C   UNL     1       5.447   4.494  17.485  0.00  0.00    +0.000 A 
ATOM      9  C   UNL     1       4.851   3.739  18.486  0.00  0.00    +0.000 A 
ATOM     10  C   UNL     1       3.684   4.253  19.062  0.00  0.00    +0.000 A 
ATOM     11  O   UNL     1       3.124   3.615  20.182  0.00  0.00    +0.000 OA
ATOM     12  C   UNL     1       6.773   4.367  16.819  0.00  0.00    +0.000 C 
ATOM     13  C   UNL     1       6.988   5.770  16.210  0.00  0.00    +0.000 C 
ATOM     14  C   UNL     1       5.644   6.492  16.149  0.00  0.00    +0.000 C 
ENDROOT
BRANCH   4  15
ATOM     15  C   UNL     1       2.390   7.754  19.360  0.00  0.00    +0.000 C 
BRANCH  15  16
ATOM     16  N   UNL     1       1.446   8.484  20.196  0.00  0.00    +0.000 N 
ATOM     17  N   UNL     1       1.525   8.223  21.532  0.00  0.00    +0.000 NA
ATOM     18  N   UNL     1       0.857   8.867  22.366  0.00  0.00    +0.000 NA
ATOM     19  C   UNL     1       0.014   9.900  21.942  0.00  0.00    +0.000 A 
ATOM     20  C   UNL     1      -0.698  10.618  22.908  0.00  0.00    +0.000 A 
ATOM     21  C   UNL     1      -1.551  11.663  22.540  0.00  0.00    +0.000 A 
ATOM     22  C   UNL     1      -1.710  11.992  21.195  0.00  0.00    +0.000 A 
ATOM     23  C   UNL     1      -1.002  11.283  20.221  0.00  0.00    +0.000 A 
ATOM     24  C   UNL     1      -0.138  10.249  20.612  0.00  0.00    +0.000 A 
ATOM     25  C   UNL     1       0.680   9.515  19.659  0.00  0.00    +0.000 A 
ATOM     26  O   UNL     1       0.639   9.810  18.464  0.00  0.00    +0.000 OA
ENDBRANCH  15  16
ENDBRANCH   4  15
TORSDOF 2
ENDMDL
MODEL 9
REMARK VINA RESULT:      -8.2      3.574      7.117
REMARK  Name = 
REMARK  2 active torsions:
REMARK  status: ('A' for Active; 'I' for Inactive)
REMARK    1  A    between atoms: C_4  and  C_5
REMARK    2  A    between atoms: C_5  and  N_6
REMARK                            x       y       z     vdW  Elec       q    Type
REMARK                         _______ _______ _______ _____ _____    ______ ____
ROOT
ATOM      1  O   UNL     1       6.563   6.839  16.287  0.00  0.00    +0.000 OA
ATOM      2  C   UNL     1       5.603   6.509  16.975  0.00  0.00    +0.000 A 
ATOM      3  C   UNL     1       4.414   7.384  17.064  0.00  0.00    +0.000 A 
ATOM      4  C   UNL     1       3.441   7.173  17.953  0.00  0.00    +0.000 A 
ATOM      5  C   UNL     1       3.622   6.062  18.882  0.00  0.00    +0.000 A 
ATOM      6  C   UNL     1       2.723   5.874  19.912  0.00  0.00    +0.000 A 
ATOM      7  C   UNL     1       2.424   4.578  20.244  0.00  0.00    +0.000 A 
ATOM      8  C   UNL     1       3.207   3.500  19.834  0.00  0.00    +0.000 A 
ATOM      9  C   UNL     1       4.324   3.725  19.039  0.00  0.00    +0.000 A 
ATOM     10  C   UNL     1       4.491   5.017  18.529  0.00  0.00    +0.000 A 
ATOM     11  O   UNL     1       5.513   5.266  17.596  0.00  0.00    +0.000 OA
ATOM     12  C   UNL     1       2.613   2.237  20.353  0.00  0.00    +0.000 C 
ATOM     13  C   UNL     1       1.168   2.657  20.705  0.00  0.00    +0.000 C 
ATOM     14  C   UNL     1       1.107   4.178  20.806  0.00  0.00    +0.000 C 
ENDROOT
BRANCH   4  15
ATOM     15  C   UNL     1       2.036   7.757  17.834  0.00  0.00    +0.000 C 
BRANCH  15  16
ATOM     16  N   UNL     1       1.911   9.100  18.381  0.00  0.00    +0.000 N 
ATOM     17  N   UNL     1       2.374  10.104  17.582  0.00  0.00    +0.000 NA
ATOM     18  N   UNL     1       2.218  11.305  17.881  0.00  0.00    +0.000 NA
ATOM     19  C   UNL     1       1.537  11.652  19.053  0.00  0.00    +0.000 A 
ATOM     20  C   UNL     1       1.358  13.010  19.341  0.00  0.00    +0.000 A 
ATOM     21  C   UNL     1       0.682  13.413  20.496  0.00  0.00    +0.000 A 
ATOM     22  C   UNL     1       0.187  12.459  21.383  0.00  0.00    +0.000 A 
ATOM     23  C   UNL     1       0.358  11.101  21.105  0.00  0.00    +0.000 A 
ATOM     24  C   UNL     1       1.025  10.715  19.932  0.00  0.00    +0.000 A 
ATOM     25  C   UNL     1       1.180   9.322  19.546  0.00  0.00    +0.000 A 
ATOM     26  O   UNL     1       0.699   8.435  20.252  0.00  0.00    +0.000 OA
ENDBRANCH  15  16
ENDBRANCH   4  15
TORSDOF 2
ENDMDL
