MODEL 1
REMARK VINA RESULT:      -8.5      0.000      0.000
REMARK  Name = 
REMARK  6 active torsions:
REMARK  status: ('A' for Active; 'I' for Inactive)
REMARK    1  A    between atoms: C_1  and  O_2
REMARK    2  A    between atoms: O_2  and  C_3
REMARK    3  A    between atoms: C_5  and  C_6
REMARK    4  A    between atoms: C_9  and  C_10
REMARK    5  A    between atoms: C_13  and  C_14
REMARK    6  A    between atoms: C_16  and  C_17
REMARK                            x       y       z     vdW  Elec       q    Type
REMARK                         _______ _______ _______ _____ _____    ______ ____
ROOT
ATOM      1  C   UNL     1       4.854   5.411  17.223  0.00  0.00    +0.000 A 
ATOM      2  N   UNL     1       5.174   5.641  15.940  0.00  0.00    +0.000 NA
ATOM      3  O   UNL     1       6.214   6.565  16.024  0.00  0.00    +0.000 OA
ATOM      4  C   UNL     1       6.452   6.776  17.356  0.00  0.00    +0.000 A 
ATOM      5  N   UNL     1       5.687   6.034  18.125  0.00  0.00    +0.000 NA
ENDROOT
BRANCH   1  12
ATOM      6  C   UNL     1       2.571   5.187  18.214  0.00  0.00    +0.000 A 
ATOM      7  C   UNL     1       1.494   4.376  18.592  0.00  0.00    +0.000 A 
ATOM      8  C   UNL     1       1.531   2.990  18.395  0.00  0.00    +0.000 A 
ATOM      9  C   UNL     1       0.364   2.130  18.787  0.00  0.00    +0.000 C 
ATOM     10  C   UNL     1       2.657   2.413  17.802  0.00  0.00    +0.000 A 
ATOM     11  C   UNL     1       3.740   3.210  17.427  0.00  0.00    +0.000 A 
ATOM     12  C   UNL     1       3.715   4.601  17.634  0.00  0.00    +0.000 A 
BRANCH   6  14
ATOM     13  C   UNL     1       2.352   7.129  19.573  0.00  0.00    +0.000 C 
ATOM     14  O   UNL     1       2.524   6.557  18.286  0.00  0.00    +0.000 OA
ENDBRANCH   6  14
ENDBRANCH   1  12
BRANCH   4  15
ATOM     15  C   UNL     1       7.449   7.765  17.872  0.00  0.00    +0.000 A 
ATOM     16  C   UNL     1       7.608   9.094  17.413  0.00  0.00    +0.000 A 
ATOM     17  C   UNL     1       8.621   9.636  18.183  0.00  0.00    +0.000 A 
ATOM     18  N   UNL     1       9.026   8.604  18.991  0.00  0.00    +0.000 N 
ATOM     19  N   UNL     1       8.319   7.475  18.845  0.00  0.00    +0.000 NA
ATOM     20  H   UNL     1       9.761   8.617  19.689  0.00  0.00    +0.000 HD
BRANCH  17  21
ATOM     21  C   UNL     1       9.178  10.982  18.261  0.00  0.00    +0.000 A 
ATOM     22  C   UNL     1      10.439  11.191  18.845  0.00  0.00    +0.000 A 
ATOM     23  C   UNL     1      11.009  12.465  18.871  0.00  0.00    +0.000 A 
ATOM     24  C   UNL     1      10.318  13.536  18.322  0.00  0.00    +0.000 A 
ATOM     25  F   UNL     1      10.869  14.756  18.338  0.00  0.00    +0.000 F 
ATOM     26  C   UNL     1       9.063  13.359  17.755  0.00  0.00    +0.000 A 
ATOM     27  C   UNL     1       8.492  12.086  17.726  0.00  0.00    +0.000 A 
ENDBRANCH  17  21
ENDBRANCH   4  15
TORSDOF 4
ENDMDL
MODEL 2
REMARK VINA RESULT:      -8.0      6.393      8.984
REMARK  Name = 
REMARK  6 active torsions:
REMARK  status: ('A' for Active; 'I' for Inactive)
REMARK    1  A    between atoms: C_1  and  O_2
REMARK    2  A    between atoms: O_2  and  C_3
REMARK    3  A    between atoms: C_5  and  C_6
REMARK    4  A    between atoms: C_9  and  C_10
REMARK    5  A    between atoms: C_13  and  C_14
REMARK    6  A    between atoms: C_16  and  C_17
REMARK                            x       y       z     vdW  Elec       q    Type
REMARK                         _______ _______ _______ _____ _____    ______ ____
ROOT
ATOM      1  C   UNL     1      -1.386  11.238  18.295  0.00  0.00    +0.000 A 
ATOM      2  N   UNL     1      -0.483  12.143  18.707  0.00  0.00    +0.000 NA
ATOM      3  O   UNL     1       0.670  11.385  18.902  0.00  0.00    +0.000 OA
ATOM      4  C   UNL     1       0.366  10.098  18.548  0.00  0.00    +0.000 A 
ATOM      5  N   UNL     1      -0.865   9.978  18.104  0.00  0.00    +0.000 NA
ENDROOT
BRANCH   1  12
ATOM      6  C   UNL     1      -3.387  11.464  16.816  0.00  0.00    +0.000 A 
ATOM      7  C   UNL     1      -4.746  11.763  16.662  0.00  0.00    +0.000 A 
ATOM      8  C   UNL     1      -5.532  12.135  17.760  0.00  0.00    +0.000 A 
ATOM      9  C   UNL     1      -6.992  12.437  17.588  0.00  0.00    +0.000 C 
ATOM     10  C   UNL     1      -4.949  12.198  19.028  0.00  0.00    +0.000 A 
ATOM     11  C   UNL     1      -3.594  11.909  19.193  0.00  0.00    +0.000 A 
ATOM     12  C   UNL     1      -2.796  11.546  18.093  0.00  0.00    +0.000 A 
BRANCH   6  14
ATOM     13  C   UNL     1      -3.215  10.036  14.919  0.00  0.00    +0.000 C 
ATOM     14  O   UNL     1      -2.615  10.986  15.787  0.00  0.00    +0.000 OA
ENDBRANCH   6  14
ENDBRANCH   1  12
BRANCH   4  15
ATOM     15  C   UNL     1       1.320   8.954  18.687  0.00  0.00    +0.000 A 
ATOM     16  C   UNL     1       2.001   8.312  17.626  0.00  0.00    +0.000 A 
ATOM     17  C   UNL     1       2.782   7.336  18.220  0.00  0.00    +0.000 A 
ATOM     18  N   UNL     1       2.480   7.422  19.555  0.00  0.00    +0.000 N 
ATOM     19  N   UNL     1       1.624   8.405  19.868  0.00  0.00    +0.000 NA
ATOM     20  H   UNL     1       2.851   6.857  20.310  0.00  0.00    +0.000 HD
BRANCH  17  21
ATOM     21  C   UNL     1       3.776   6.415  17.679  0.00  0.00    +0.000 A 
ATOM     22  C   UNL     1       3.525   5.032  17.673  0.00  0.00    +0.000 A 
ATOM     23  C   UNL     1       4.441   4.146  17.103  0.00  0.00    +0.000 A 
ATOM     24  C   UNL     1       5.613   4.637  16.545  0.00  0.00    +0.000 A 
ATOM     25  F   UNL     1       6.485   3.787  15.989  0.00  0.00    +0.000 F 
ATOM     26  C   UNL     1       5.891   5.996  16.553  0.00  0.00    +0.000 A 
ATOM     27  C   UNL     1       4.976   6.885  17.120  0.00  0.00    +0.000 A 
ENDBRANCH  17  21
ENDBRANCH   4  15
TORSDOF 4
ENDMDL
MODEL 3
REMARK VINA RESULT:      -7.9      5.873      8.924
REMARK  Name = 
REMARK  6 active torsions:
REMARK  status: ('A' for Active; 'I' for Inactive)
REMARK    1  A    between atoms: C_1  and  O_2
REMARK    2  A    between atoms: O_2  and  C_3
REMARK    3  A    between atoms: C_5  and  C_6
REMARK    4  A    between atoms: C_9  and  C_10
REMARK    5  A    between atoms: C_13  and  C_14
REMARK    6  A    between atoms: C_16  and  C_17
REMARK                            x       y       z     vdW  Elec       q    Type
REMARK                         _______ _______ _______ _____ _____    ______ ____
ROOT
ATOM      1  C   UNL     1      -0.355  11.196  20.064  0.00  0.00    +0.000 A 
ATOM      2  N   UNL     1       0.500  11.933  19.336  0.00  0.00    +0.000 NA
ATOM      3  O   UNL     1       1.433  10.999  18.887  0.00  0.00    +0.000 OA
ATOM      4  C   UNL     1       1.029   9.777  19.353  0.00  0.00    +0.000 A 
ATOM      5  N   UNL     1      -0.101   9.843  20.020  0.00  0.00    +0.000 NA
ENDROOT
BRANCH   1  12
ATOM      6  C   UNL     1      -1.429  11.704  22.262  0.00  0.00    +0.000 A 
ATOM      7  C   UNL     1      -2.485  12.270  22.986  0.00  0.00    +0.000 A 
ATOM      8  C   UNL     1      -3.548  12.908  22.334  0.00  0.00    +0.000 A 
ATOM      9  C   UNL     1      -4.667  13.528  23.119  0.00  0.00    +0.000 C 
ATOM     10  C   UNL     1      -3.545  12.988  20.939  0.00  0.00    +0.000 A 
ATOM     11  C   UNL     1      -2.501  12.422  20.205  0.00  0.00    +0.000 A 
ATOM     12  C   UNL     1      -1.437  11.769  20.853  0.00  0.00    +0.000 A 
BRANCH   6  14
ATOM     13  C   UNL     1      -0.425   9.849  23.363  0.00  0.00    +0.000 C 
ATOM     14  O   UNL     1      -0.318  11.175  22.869  0.00  0.00    +0.000 OA
ENDBRANCH   6  14
ENDBRANCH   1  12
BRANCH   4  15
ATOM     15  C   UNL     1       1.809   8.516  19.151  0.00  0.00    +0.000 A 
ATOM     16  C   UNL     1       2.382   8.085  17.932  0.00  0.00    +0.000 A 
ATOM     17  C   UNL     1       3.018   6.890  18.221  0.00  0.00    +0.000 A 
ATOM     18  N   UNL     1       2.741   6.667  19.545  0.00  0.00    +0.000 N 
ATOM     19  N   UNL     1       2.039   7.642  20.138  0.00  0.00    +0.000 NA
ATOM     20  H   UNL     1       3.032   5.879  20.113  0.00  0.00    +0.000 HD
BRANCH  17  21
ATOM     21  C   UNL     1       3.864   6.013  17.418  0.00  0.00    +0.000 A 
ATOM     22  C   UNL     1       4.845   6.561  16.573  0.00  0.00    +0.000 A 
ATOM     23  C   UNL     1       5.702   5.731  15.847  0.00  0.00    +0.000 A 
ATOM     24  C   UNL     1       5.575   4.353  15.956  0.00  0.00    +0.000 A 
ATOM     25  F   UNL     1       6.403   3.558  15.267  0.00  0.00    +0.000 F 
ATOM     26  C   UNL     1       4.604   3.788  16.770  0.00  0.00    +0.000 A 
ATOM     27  C   UNL     1       3.748   4.616  17.499  0.00  0.00    +0.000 A 
ENDBRANCH  17  21
ENDBRANCH   4  15
TORSDOF 4
ENDMDL
MODEL 4
REMARK VINA RESULT:      -7.9      6.117      9.453
REMARK  Name = 
REMARK  6 active torsions:
REMARK  status: ('A' for Active; 'I' for Inactive)
REMARK    1  A    between atoms: C_1  and  O_2
REMARK    2  A    between atoms: O_2  and  C_3
REMARK    3  A    between atoms: C_5  and  C_6
REMARK    4  A    between atoms: C_9  and  C_10
REMARK    5  A    between atoms: C_13  and  C_14
REMARK    6  A    between atoms: C_16  and  C_17
REMARK                            x       y       z     vdW  Elec       q    Type
REMARK                         _______ _______ _______ _____ _____    ______ ____
ROOT
ATOM      1  C   UNL     1      -0.238  11.386  20.196  0.00  0.00    +0.000 A 
ATOM      2  N   UNL     1       0.677  12.250  19.727  0.00  0.00    +0.000 NA
ATOM      3  O   UNL     1       1.568  11.434  19.032  0.00  0.00    +0.000 OA
ATOM      4  C   UNL     1       1.084  10.156  19.112  0.00  0.00    +0.000 A 
ATOM      5  N   UNL     1      -0.059  10.093  19.757  0.00  0.00    +0.000 NA
ENDROOT
BRANCH   1  12
ATOM      6  C   UNL     1      -1.243  11.461  22.482  0.00  0.00    +0.000 A 
ATOM      7  C   UNL     1      -2.290  11.847  23.327  0.00  0.00    +0.000 A 
ATOM      8  C   UNL     1      -3.400  12.541  22.831  0.00  0.00    +0.000 A 
ATOM      9  C   UNL     1      -4.509  12.967  23.748  0.00  0.00    +0.000 C 
ATOM     10  C   UNL     1      -3.455  12.860  21.472  0.00  0.00    +0.000 A 
ATOM     11  C   UNL     1      -2.421  12.474  20.617  0.00  0.00    +0.000 A 
ATOM     12  C   UNL     1      -1.309  11.766  21.107  0.00  0.00    +0.000 A 
BRANCH   6  14
ATOM     13  C   UNL     1      -0.166   9.523  23.349  0.00  0.00    +0.000 C 
ATOM     14  O   UNL     1      -0.090  10.883  22.951  0.00  0.00    +0.000 OA
ENDBRANCH   6  14
ENDBRANCH   1  12
BRANCH   4  15
ATOM     15  C   UNL     1       1.797   8.965  18.555  0.00  0.00    +0.000 A 
ATOM     16  C   UNL     1       1.840   7.678  19.141  0.00  0.00    +0.000 A 
ATOM     17  C   UNL     1       2.588   6.899  18.276  0.00  0.00    +0.000 A 
ATOM     18  N   UNL     1       2.977   7.764  17.285  0.00  0.00    +0.000 N 
ATOM     19  N   UNL     1       2.493   9.007  17.412  0.00  0.00    +0.000 NA
ATOM     20  H   UNL     1       3.549   7.558  16.474  0.00  0.00    +0.000 HD
BRANCH  17  21
ATOM     21  C   UNL     1       2.907   5.475  18.269  0.00  0.00    +0.000 A 
ATOM     22  C   UNL     1       4.136   5.026  18.783  0.00  0.00    +0.000 A 
ATOM     23  C   UNL     1       4.428   3.662  18.838  0.00  0.00    +0.000 A 
ATOM     24  C   UNL     1       3.497   2.743  18.374  0.00  0.00    +0.000 A 
ATOM     25  F   UNL     1       3.773   1.435  18.437  0.00  0.00    +0.000 F 
ATOM     26  C   UNL     1       2.283   3.162  17.847  0.00  0.00    +0.000 A 
ATOM     27  C   UNL     1       1.988   4.525  17.792  0.00  0.00    +0.000 A 
ENDBRANCH  17  21
ENDBRANCH   4  15
TORSDOF 4
ENDMDL
MODEL 5
REMARK VINA RESULT:      -7.8      1.519      2.122
REMARK  Name = 
REMARK  6 active torsions:
REMARK  status: ('A' for Active; 'I' for Inactive)
REMARK    1  A    between atoms: C_1  and  O_2
REMARK    2  A    between atoms: O_2  and  C_3
REMARK    3  A    between atoms: C_5  and  C_6
REMARK    4  A    between atoms: C_9  and  C_10
REMARK    5  A    between atoms: C_13  and  C_14
REMARK    6  A    between atoms: C_16  and  C_17
REMARK                            x       y       z     vdW  Elec       q    Type
REMARK                         _______ _______ _______ _____ _____    ______ ____
ROOT
ATOM      1  C   UNL     1       5.449   4.755  17.765  0.00  0.00    +0.000 A 
ATOM      2  N   UNL     1       6.261   4.400  16.756  0.00  0.00    +0.000 NA
ATOM      3  O   UNL     1       7.265   5.367  16.791  0.00  0.00    +0.000 OA
ATOM      4  C   UNL     1       6.986   6.193  17.847  0.00  0.00    +0.000 A 
ATOM      5  N   UNL     1       5.920   5.811  18.513  0.00  0.00    +0.000 NA
ENDROOT
BRANCH   1  12
ATOM      6  C   UNL     1       4.076   3.024  18.932  0.00  0.00    +0.000 A 
ATOM      7  C   UNL     1       2.831   2.430  19.168  0.00  0.00    +0.000 A 
ATOM      8  C   UNL     1       1.675   2.900  18.533  0.00  0.00    +0.000 A 
ATOM      9  C   UNL     1       0.341   2.268  18.807  0.00  0.00    +0.000 C 
ATOM     10  C   UNL     1       1.768   3.986  17.659  0.00  0.00    +0.000 A 
ATOM     11  C   UNL     1       3.005   4.582  17.410  0.00  0.00    +0.000 A 
ATOM     12  C   UNL     1       4.172   4.107  18.034  0.00  0.00    +0.000 A 
BRANCH   6  14
ATOM     13  C   UNL     1       5.045   1.756  20.698  0.00  0.00    +0.000 C 
ATOM     14  O   UNL     1       5.208   2.666  19.621  0.00  0.00    +0.000 OA
ENDBRANCH   6  14
ENDBRANCH   1  12
BRANCH   4  15
ATOM     15  C   UNL     1       7.789   7.410  18.179  0.00  0.00    +0.000 A 
ATOM     16  C   UNL     1       7.813   8.613  17.435  0.00  0.00    +0.000 A 
ATOM     17  C   UNL     1       8.668   9.458  18.120  0.00  0.00    +0.000 A 
ATOM     18  N   UNL     1       9.128   8.703  19.169  0.00  0.00    +0.000 N 
ATOM     19  N   UNL     1       8.595   7.477  19.246  0.00  0.00    +0.000 NA
ATOM     20  H   UNL     1       9.785   8.981  19.889  0.00  0.00    +0.000 HD
BRANCH  17  21
ATOM     21  C   UNL     1       9.030  10.857  17.918  0.00  0.00    +0.000 A 
ATOM     22  C   UNL     1       8.028  11.835  17.797  0.00  0.00    +0.000 A 
ATOM     23  C   UNL     1       8.362  13.184  17.665  0.00  0.00    +0.000 A 
ATOM     24  C   UNL     1       9.697  13.560  17.644  0.00  0.00    +0.000 A 
ATOM     25  F   UNL     1      10.017  14.854  17.528  0.00  0.00    +0.000 F 
ATOM     26  C   UNL     1      10.706  12.612  17.744  0.00  0.00    +0.000 A 
ATOM     27  C   UNL     1      10.375  11.263  17.879  0.00  0.00    +0.000 A 
ENDBRANCH  17  21
ENDBRANCH   4  15
TORSDOF 4
ENDMDL
MODEL 6
REMARK VINA RESULT:      -7.7      1.173      1.672
REMARK  Name = 
REMARK  6 active torsions:
REMARK  status: ('A' for Active; 'I' for Inactive)
REMARK    1  A    between atoms: C_1  and  O_2
REMARK    2  A    between atoms: O_2  and  C_3
REMARK    3  A    between atoms: C_5  and  C_6
REMARK    4  A    between atoms: C_9  and  C_10
REMARK    5  A    between atoms: C_13  and  C_14
REMARK    6  A    between atoms: C_16  and  C_17
REMARK                            x       y       z     vdW  Elec       q    Type
REMARK                         _______ _______ _______ _____ _____    ______ ____
ROOT
ATOM      1  C   UNL     1       6.035   6.112  17.409  0.00  0.00    +0.000 A 
ATOM      2  N   UNL     1       6.808   5.940  16.324  0.00  0.00    +0.000 NA
ATOM      3  O   UNL     1       7.758   6.953  16.437  0.00  0.00    +0.000 OA
ATOM      4  C   UNL     1       7.494   7.618  17.605  0.00  0.00    +0.000 A 
ATOM      5  N   UNL     1       6.489   7.090  18.266  0.00  0.00    +0.000 NA
ENDROOT
BRANCH   1  12
ATOM      6  C   UNL     1       3.563   6.003  17.752  0.00  0.00    +0.000 A 
ATOM      7  C   UNL     1       2.409   5.244  17.982  0.00  0.00    +0.000 A 
ATOM      8  C   UNL     1       2.475   3.850  18.105  0.00  0.00    +0.000 A 
ATOM      9  C   UNL     1       1.230   3.043  18.333  0.00  0.00    +0.000 C 
ATOM     10  C   UNL     1       3.711   3.211  17.986  0.00  0.00    +0.000 A 
ATOM     11  C   UNL     1       4.870   3.958  17.764  0.00  0.00    +0.000 A 
ATOM     12  C   UNL     1       4.812   5.358  17.652  0.00  0.00    +0.000 A 
BRANCH   6  14
ATOM     13  C   UNL     1       2.471   8.085  18.124  0.00  0.00    +0.000 C 
ATOM     14  O   UNL     1       3.522   7.354  17.512  0.00  0.00    +0.000 OA
ENDBRANCH   6  14
ENDBRANCH   1  12
BRANCH   4  15
ATOM     15  C   UNL     1       8.247   8.830  18.055  0.00  0.00    +0.000 A 
ATOM     16  C   UNL     1       8.344  10.053  17.350  0.00  0.00    +0.000 A 
ATOM     17  C   UNL     1       9.113  10.883  18.146  0.00  0.00    +0.000 A 
ATOM     18  N   UNL     1       9.460  10.102  19.219  0.00  0.00    +0.000 N 
ATOM     19  N   UNL     1       8.931   8.871  19.205  0.00  0.00    +0.000 NA
ATOM     20  H   UNL     1      10.033  10.363  20.014  0.00  0.00    +0.000 HD
BRANCH  17  21
ATOM     21  C   UNL     1       9.485  12.288  18.022  0.00  0.00    +0.000 A 
ATOM     22  C   UNL     1       8.628  13.290  18.509  0.00  0.00    +0.000 A 
ATOM     23  C   UNL     1       9.001  14.634  18.452  0.00  0.00    +0.000 A 
ATOM     24  C   UNL     1      10.226  14.982  17.900  0.00  0.00    +0.000 A 
ATOM     25  F   UNL     1      10.587  16.271  17.854  0.00  0.00    +0.000 F 
ATOM     26  C   UNL     1      11.083  14.013  17.397  0.00  0.00    +0.000 A 
ATOM     27  C   UNL     1      10.714  12.668  17.456  0.00  0.00    +0.000 A 
ENDBRANCH  17  21
ENDBRANCH   4  15
TORSDOF 4
ENDMDL
MODEL 7
REMARK VINA RESULT:      -7.7      2.284      3.695
REMARK  Name = 
REMARK  6 active torsions:
REMARK  status: ('A' for Active; 'I' for Inactive)
REMARK    1  A    between atoms: C_1  and  O_2
REMARK    2  A    between atoms: O_2  and  C_3
REMARK    3  A    between atoms: C_5  and  C_6
REMARK    4  A    between atoms: C_9  and  C_10
REMARK    5  A    between atoms: C_13  and  C_14
REMARK    6  A    between atoms: C_16  and  C_17
REMARK                            x       y       z     vdW  Elec       q    Type
REMARK                         _______ _______ _______ _____ _____    ______ ____
ROOT
ATOM      1  C   UNL     1       7.261   6.409  17.054  0.00  0.00    +0.000 A 
ATOM      2  N   UNL     1       7.607   5.873  18.236  0.00  0.00    +0.000 NA
ATOM      3  O   UNL     1       8.189   6.940  18.919  0.00  0.00    +0.000 OA
ATOM      4  C   UNL     1       8.103   8.033  18.098  0.00  0.00    +0.000 A 
ATOM      5  N   UNL     1       7.477   7.766  16.974  0.00  0.00    +0.000 NA
ENDROOT
BRANCH   1  12
ATOM      6  C   UNL     1       5.369   5.267  15.889  0.00  0.00    +0.000 A 
ATOM      7  C   UNL     1       4.895   4.520  14.804  0.00  0.00    +0.000 A 
ATOM      8  C   UNL     1       5.751   4.134  13.765  0.00  0.00    +0.000 A 
ATOM      9  C   UNL     1       5.230   3.349  12.596  0.00  0.00    +0.000 C 
ATOM     10  C   UNL     1       7.096   4.510  13.811  0.00  0.00    +0.000 A 
ATOM     11  C   UNL     1       7.582   5.248  14.892  0.00  0.00    +0.000 A 
ATOM     12  C   UNL     1       6.730   5.629  15.944  0.00  0.00    +0.000 A 
BRANCH   6  14
ATOM     13  C   UNL     1       3.959   4.818  17.754  0.00  0.00    +0.000 C 
ATOM     14  O   UNL     1       4.539   5.760  16.864  0.00  0.00    +0.000 OA
ENDBRANCH   6  14
ENDBRANCH   1  12
BRANCH   4  15
ATOM     15  C   UNL     1       8.687   9.368  18.434  0.00  0.00    +0.000 A 
ATOM     16  C   UNL     1       8.995  10.393  17.509  0.00  0.00    +0.000 A 
ATOM     17  C   UNL     1       9.489  11.442  18.264  0.00  0.00    +0.000 A 
ATOM     18  N   UNL     1       9.494  10.964  19.550  0.00  0.00    +0.000 N 
ATOM     19  N   UNL     1       8.992   9.730  19.686  0.00  0.00    +0.000 NA
ATOM     20  H   UNL     1       9.801  11.447  20.387  0.00  0.00    +0.000 HD
BRANCH  17  21
ATOM     21  C   UNL     1       9.885  12.801  17.910  0.00  0.00    +0.000 A 
ATOM     22  C   UNL     1       9.159  13.897  18.406  0.00  0.00    +0.000 A 
ATOM     23  C   UNL     1       9.563  15.204  18.125  0.00  0.00    +0.000 A 
ATOM     24  C   UNL     1      10.688  15.419  17.341  0.00  0.00    +0.000 A 
ATOM     25  F   UNL     1      11.082  16.672  17.081  0.00  0.00    +0.000 F 
ATOM     26  C   UNL     1      11.412  14.353  16.826  0.00  0.00    +0.000 A 
ATOM     27  C   UNL     1      11.011  13.046  17.107  0.00  0.00    +0.000 A 
ENDBRANCH  17  21
ENDBRANCH   4  15
TORSDOF 4
ENDMDL
MODEL 8
REMARK VINA RESULT:      -7.7      6.189      9.174
REMARK  Name = 
REMARK  6 active torsions:
REMARK  status: ('A' for Active; 'I' for Inactive)
REMARK    1  A    between atoms: C_1  and  O_2
REMARK    2  A    between atoms: O_2  and  C_3
REMARK    3  A    between atoms: C_5  and  C_6
REMARK    4  A    between atoms: C_9  and  C_10
REMARK    5  A    between atoms: C_13  and  C_14
REMARK    6  A    between atoms: C_16  and  C_17
REMARK                            x       y       z     vdW  Elec       q    Type
REMARK                         _______ _______ _______ _____ _____    ______ ____
ROOT
ATOM      1  C   UNL     1      -0.561  11.417  19.895  0.00  0.00    +0.000 A 
ATOM      2  N   UNL     1       0.410  12.156  19.334  0.00  0.00    +0.000 NA
ATOM      3  O   UNL     1       1.382  11.216  18.999  0.00  0.00    +0.000 OA
ATOM      4  C   UNL     1       0.888   9.988  19.351  0.00  0.00    +0.000 A 
ATOM      5  N   UNL     1      -0.330  10.061  19.839  0.00  0.00    +0.000 NA
ENDROOT
BRANCH   1  12
ATOM      6  C   UNL     1      -2.904  12.277  19.787  0.00  0.00    +0.000 A 
ATOM      7  C   UNL     1      -4.020  12.823  20.432  0.00  0.00    +0.000 A 
ATOM      8  C   UNL     1      -4.003  13.080  21.809  0.00  0.00    +0.000 A 
ATOM      9  C   UNL     1      -5.210  13.649  22.496  0.00  0.00    +0.000 C 
ATOM     10  C   UNL     1      -2.856  12.777  22.547  0.00  0.00    +0.000 A 
ATOM     11  C   UNL     1      -1.735  12.239  21.913  0.00  0.00    +0.000 A 
ATOM     12  C   UNL     1      -1.741  11.990  20.529  0.00  0.00    +0.000 A 
BRANCH   6  14
ATOM     13  C   UNL     1      -4.197  11.674  17.881  0.00  0.00    +0.000 C 
ATOM     14  O   UNL     1      -2.924  11.906  18.466  0.00  0.00    +0.000 OA
ENDBRANCH   6  14
ENDBRANCH   1  12
BRANCH   4  15
ATOM     15  C   UNL     1       1.664   8.716  19.224  0.00  0.00    +0.000 A 
ATOM     16  C   UNL     1       2.215   8.200  18.028  0.00  0.00    +0.000 A 
ATOM     17  C   UNL     1       2.856   7.028  18.388  0.00  0.00    +0.000 A 
ATOM     18  N   UNL     1       2.605   6.899  19.731  0.00  0.00    +0.000 N 
ATOM     19  N   UNL     1       1.914   7.914  20.266  0.00  0.00    +0.000 NA
ATOM     20  H   UNL     1       2.907   6.153  20.347  0.00  0.00    +0.000 HD
BRANCH  17  21
ATOM     21  C   UNL     1       3.688   6.096  17.634  0.00  0.00    +0.000 A 
ATOM     22  C   UNL     1       3.375   4.725  17.619  0.00  0.00    +0.000 A 
ATOM     23  C   UNL     1       4.126   3.833  16.852  0.00  0.00    +0.000 A 
ATOM     24  C   UNL     1       5.196   4.304  16.105  0.00  0.00    +0.000 A 
ATOM     25  F   UNL     1       5.909   3.449  15.361  0.00  0.00    +0.000 F 
ATOM     26  C   UNL     1       5.535   5.650  16.116  0.00  0.00    +0.000 A 
ATOM     27  C   UNL     1       4.785   6.545  16.880  0.00  0.00    +0.000 A 
ENDBRANCH  17  21
ENDBRANCH   4  15
TORSDOF 4
ENDMDL
MODEL 9
REMARK VINA RESULT:      -7.7      4.556      7.496
REMARK  Name = 
REMARK  6 active torsions:
REMARK  status: ('A' for Active; 'I' for Inactive)
REMARK    1  A    between atoms: C_1  and  O_2
REMARK    2  A    between atoms: O_2  and  C_3
REMARK    3  A    between atoms: C_5  and  C_6
REMARK    4  A    between atoms: C_9  and  C_10
REMARK    5  A    between atoms: C_13  and  C_14
REMARK    6  A    between atoms: C_16  and  C_17
REMARK                            x       y       z     vdW  Elec       q    Type
REMARK                         _______ _______ _______ _____ _____    ______ ____
ROOT
ATOM      1  C   UNL     1       4.870   4.581  17.306  0.00  0.00    +0.000 A 
ATOM      2  N   UNL     1       5.212   3.764  18.315  0.00  0.00    +0.000 NA
ATOM      3  O   UNL     1       4.421   4.206  19.375  0.00  0.00    +0.000 OA
ATOM      4  C   UNL     1       3.644   5.225  18.893  0.00  0.00    +0.000 A 
ATOM      5  N   UNL     1       3.837   5.440  17.611  0.00  0.00    +0.000 NA
ENDROOT
BRANCH   1  12
ATOM      6  C   UNL     1       6.816   5.168  15.854  0.00  0.00    +0.000 A 
ATOM      7  C   UNL     1       7.432   5.149  14.597  0.00  0.00    +0.000 A 
ATOM      8  C   UNL     1       6.806   4.552  13.495  0.00  0.00    +0.000 A 
ATOM      9  C   UNL     1       7.482   4.520  12.155  0.00  0.00    +0.000 C 
ATOM     10  C   UNL     1       5.552   3.958  13.660  0.00  0.00    +0.000 A 
ATOM     11  C   UNL     1       4.924   3.977  14.907  0.00  0.00    +0.000 A 
ATOM     12  C   UNL     1       5.542   4.586  16.014  0.00  0.00    +0.000 A 
BRANCH   6  14
ATOM     13  C   UNL     1       7.384   7.039  17.211  0.00  0.00    +0.000 C 
ATOM     14  O   UNL     1       7.446   5.640  16.977  0.00  0.00    +0.000 OA
ENDBRANCH   6  14
ENDBRANCH   1  12
BRANCH   4  15
ATOM     15  C   UNL     1       2.706   6.023  19.743  0.00  0.00    +0.000 A 
ATOM     16  C   UNL     1       2.426   7.402  19.595  0.00  0.00    +0.000 A 
ATOM     17  C   UNL     1       1.497   7.701  20.576  0.00  0.00    +0.000 A 
ATOM     18  N   UNL     1       1.331   6.524  21.260  0.00  0.00    +0.000 N 
ATOM     19  N   UNL     1       2.025   5.491  20.764  0.00  0.00    +0.000 NA
ATOM     20  H   UNL     1       0.731   6.353  22.059  0.00  0.00    +0.000 HD
BRANCH  17  21
ATOM     21  C   UNL     1       0.749   8.917  20.877  0.00  0.00    +0.000 A 
ATOM     22  C   UNL     1       0.372   9.787  19.839  0.00  0.00    +0.000 A 
ATOM     23  C   UNL     1      -0.396  10.922  20.106  0.00  0.00    +0.000 A 
ATOM     24  C   UNL     1      -0.782  11.196  21.411  0.00  0.00    +0.000 A 
ATOM     25  F   UNL     1      -1.527  12.279  21.666  0.00  0.00    +0.000 F 
ATOM     26  C   UNL     1      -0.408  10.362  22.455  0.00  0.00    +0.000 A 
ATOM     27  C   UNL     1       0.358   9.225  22.190  0.00  0.00    +0.000 A 
ENDBRANCH  17  21
ENDBRANCH   4  15
TORSDOF 4
ENDMDL
