MODEL 1
REMARK VINA RESULT:      -8.5      0.000      0.000
REMARK  Name = 
REMARK  5 active torsions:
REMARK  status: ('A' for Active; 'I' for Inactive)
REMARK    1  A    between atoms: C_1  and  C_2
REMARK    2  A    between atoms: C_4  and  C_5
REMARK    3  A    between atoms: C_10  and  N_11
REMARK    4  A    between atoms: C_12  and  C_14
REMARK    5  A    between atoms: C_16  and  C_17
REMARK                            x       y       z     vdW  Elec       q    Type
REMARK                         _______ _______ _______ _____ _____    ______ ____
ROOT
ATOM      1  N   UNL     1       3.310   6.702  17.926  0.00  0.00    +0.000 N 
ATOM      2  C   UNL     1       3.051   5.355  17.777  0.00  0.00    +0.000 C 
ATOM      3  O   UNL     1       2.058   4.758  18.172  0.00  0.00    +0.000 OA
ATOM      4  H   UNL     1       4.182   7.053  17.555  0.00  0.00    +0.000 HD
ENDROOT
BRANCH   1  14
ATOM      5  C   UNL     1      -2.215  13.153  20.479  0.00  0.00    +0.000 C 
ATOM      6  C   UNL     1      -1.391  11.987  20.878  0.00  0.00    +0.000 A 
ATOM      7  C   UNL     1      -1.258  11.411  22.152  0.00  0.00    +0.000 A 
ATOM      8  C   UNL     1      -0.376  10.362  21.994  0.00  0.00    +0.000 A 
ATOM      9  C   UNL     1       0.154   9.423  23.013  0.00  0.00    +0.000 C 
ATOM     10  N   UNL     1      -0.040  10.331  20.646  0.00  0.00    +0.000 N 
ATOM     11  C   UNL     1       0.815   9.405  19.954  0.00  0.00    +0.000 A 
ATOM     12  C   UNL     1       1.040   9.606  18.595  0.00  0.00    +0.000 A 
ATOM     13  C   UNL     1       1.867   8.723  17.900  0.00  0.00    +0.000 A 
ATOM     14  C   UNL     1       2.455   7.644  18.553  0.00  0.00    +0.000 A 
ATOM     15  C   UNL     1       2.170   7.519  19.912  0.00  0.00    +0.000 A 
ATOM     16  N   UNL     1       1.377   8.363  20.624  0.00  0.00    +0.000 NA
ATOM     17  N   UNL     1      -0.651  11.349  19.969  0.00  0.00    +0.000 NA
ENDBRANCH   1  14
BRANCH   2  18
ATOM     18  C   UNL     1       4.106   4.582  17.041  0.00  0.00    +0.000 C 
ATOM     19  C   UNL     1       5.536   4.721  17.508  0.00  0.00    +0.000 C 
ATOM     20  C   UNL     1       5.112   5.354  16.201  0.00  0.00    +0.000 C 
BRANCH  20  21
ATOM     21  C   UNL     1       5.728   4.825  14.930  0.00  0.00    +0.000 A 
ATOM     22  C   UNL     1       5.029   4.001  14.033  0.00  0.00    +0.000 A 
ATOM     23  C   UNL     1       5.617   3.576  12.836  0.00  0.00    +0.000 A 
ATOM     24  C   UNL     1       6.908   3.978  12.522  0.00  0.00    +0.000 A 
ATOM     25  F   UNL     1       7.466   3.581  11.371  0.00  0.00    +0.000 F 
ATOM     26  C   UNL     1       7.626   4.795  13.382  0.00  0.00    +0.000 A 
ATOM     27  C   UNL     1       7.035   5.214  14.575  0.00  0.00    +0.000 A 
ENDBRANCH  20  21
ENDBRANCH   2  18
TORSDOF 3
ENDMDL
MODEL 2
REMARK VINA RESULT:      -8.3      4.870     11.073
REMARK  Name = 
REMARK  5 active torsions:
REMARK  status: ('A' for Active; 'I' for Inactive)
REMARK    1  A    between atoms: C_1  and  C_2
REMARK    2  A    between atoms: C_4  and  C_5
REMARK    3  A    between atoms: C_10  and  N_11
REMARK    4  A    between atoms: C_12  and  C_14
REMARK    5  A    between atoms: C_16  and  C_17
REMARK                            x       y       z     vdW  Elec       q    Type
REMARK                         _______ _______ _______ _____ _____    ______ ____
ROOT
ATOM      1  N   UNL     1      -0.115  10.700  20.260  0.00  0.00    +0.000 N 
ATOM      2  C   UNL     1       0.259  11.786  21.025  0.00  0.00    +0.000 C 
ATOM      3  O   UNL     1       1.401  12.093  21.339  0.00  0.00    +0.000 OA
ATOM      4  H   UNL     1      -1.103  10.567  20.090  0.00  0.00    +0.000 HD
ENDROOT
BRANCH   1  14
ATOM      5  C   UNL     1       5.525   5.743  15.539  0.00  0.00    +0.000 C 
ATOM      6  C   UNL     1       4.716   5.877  16.774  0.00  0.00    +0.000 A 
ATOM      7  C   UNL     1       4.634   4.991  17.862  0.00  0.00    +0.000 A 
ATOM      8  C   UNL     1       3.744   5.568  18.743  0.00  0.00    +0.000 A 
ATOM      9  C   UNL     1       3.254   5.057  20.048  0.00  0.00    +0.000 C 
ATOM     10  N   UNL     1       3.352   6.773  18.174  0.00  0.00    +0.000 N 
ATOM     11  C   UNL     1       2.467   7.773  18.707  0.00  0.00    +0.000 A 
ATOM     12  C   UNL     1       2.187   8.890  17.924  0.00  0.00    +0.000 A 
ATOM     13  C   UNL     1       1.330   9.874  18.416  0.00  0.00    +0.000 A 
ATOM     14  C   UNL     1       0.767   9.751  19.683  0.00  0.00    +0.000 A 
ATOM     15  C   UNL     1       1.108   8.603  20.397  0.00  0.00    +0.000 A 
ATOM     16  N   UNL     1       1.931   7.620  19.947  0.00  0.00    +0.000 NA
ATOM     17  N   UNL     1       3.937   6.946  16.951  0.00  0.00    +0.000 NA
ENDBRANCH   1  14
BRANCH   2  18
ATOM     18  C   UNL     1      -0.870  12.659  21.485  0.00  0.00    +0.000 C 
ATOM     19  C   UNL     1      -0.721  13.361  22.815  0.00  0.00    +0.000 C 
ATOM     20  C   UNL     1      -1.689  12.206  22.685  0.00  0.00    +0.000 C 
BRANCH  20  21
ATOM     21  C   UNL     1      -3.160  12.497  22.858  0.00  0.00    +0.000 A 
ATOM     22  C   UNL     1      -4.027  12.698  21.772  0.00  0.00    +0.000 A 
ATOM     23  C   UNL     1      -5.396  12.910  21.971  0.00  0.00    +0.000 A 
ATOM     24  C   UNL     1      -5.911  12.914  23.260  0.00  0.00    +0.000 A 
ATOM     25  F   UNL     1      -7.224  13.105  23.449  0.00  0.00    +0.000 F 
ATOM     26  C   UNL     1      -5.085  12.713  24.355  0.00  0.00    +0.000 A 
ATOM     27  C   UNL     1      -3.721  12.505  24.150  0.00  0.00    +0.000 A 
ENDBRANCH  20  21
ENDBRANCH   2  18
TORSDOF 3
ENDMDL
MODEL 3
REMARK VINA RESULT:      -8.2      0.888      1.718
REMARK  Name = 
REMARK  5 active torsions:
REMARK  status: ('A' for Active; 'I' for Inactive)
REMARK    1  A    between atoms: C_1  and  C_2
REMARK    2  A    between atoms: C_4  and  C_5
REMARK    3  A    between atoms: C_10  and  N_11
REMARK    4  A    between atoms: C_12  and  C_14
REMARK    5  A    between atoms: C_16  and  C_17
REMARK                            x       y       z     vdW  Elec       q    Type
REMARK                         _______ _______ _______ _____ _____    ______ ____
ROOT
ATOM      1  N   UNL     1       3.500   6.611  18.039  0.00  0.00    +0.000 N 
ATOM      2  C   UNL     1       3.206   5.311  17.682  0.00  0.00    +0.000 C 
ATOM      3  O   UNL     1       2.152   4.724  17.884  0.00  0.00    +0.000 OA
ATOM      4  H   UNL     1       4.422   6.960  17.814  0.00  0.00    +0.000 HD
ENDROOT
BRANCH   1  14
ATOM      5  C   UNL     1      -1.748  11.409  23.341  0.00  0.00    +0.000 C 
ATOM      6  C   UNL     1      -1.187  11.220  21.982  0.00  0.00    +0.000 A 
ATOM      7  C   UNL     1      -1.381  12.018  20.841  0.00  0.00    +0.000 A 
ATOM      8  C   UNL     1      -0.653  11.413  19.838  0.00  0.00    +0.000 A 
ATOM      9  C   UNL     1      -0.518  11.803  18.413  0.00  0.00    +0.000 C 
ATOM     10  N   UNL     1      -0.035  10.308  20.412  0.00  0.00    +0.000 N 
ATOM     11  C   UNL     1       0.865   9.365  19.805  0.00  0.00    +0.000 A 
ATOM     12  C   UNL     1       1.325   8.302  20.577  0.00  0.00    +0.000 A 
ATOM     13  C   UNL     1       2.198   7.372  20.012  0.00  0.00    +0.000 A 
ATOM     14  C   UNL     1       2.618   7.509  18.693  0.00  0.00    +0.000 A 
ATOM     15  C   UNL     1       2.111   8.607  17.998  0.00  0.00    +0.000 A 
ATOM     16  N   UNL     1       1.253   9.527  18.511  0.00  0.00    +0.000 NA
ATOM     17  N   UNL     1      -0.387  10.182  21.726  0.00  0.00    +0.000 NA
ENDBRANCH   1  14
BRANCH   2  18
ATOM     18  C   UNL     1       4.306   4.584  16.965  0.00  0.00    +0.000 C 
ATOM     19  C   UNL     1       5.732   4.937  17.320  0.00  0.00    +0.000 C 
ATOM     20  C   UNL     1       5.167   5.366  15.984  0.00  0.00    +0.000 C 
BRANCH  20  21
ATOM     21  C   UNL     1       5.775   4.769  14.738  0.00  0.00    +0.000 A 
ATOM     22  C   UNL     1       5.071   3.897  13.892  0.00  0.00    +0.000 A 
ATOM     23  C   UNL     1       5.650   3.409  12.716  0.00  0.00    +0.000 A 
ATOM     24  C   UNL     1       6.938   3.795  12.372  0.00  0.00    +0.000 A 
ATOM     25  F   UNL     1       7.488   3.337  11.239  0.00  0.00    +0.000 F 
ATOM     26  C   UNL     1       7.661   4.659  13.180  0.00  0.00    +0.000 A 
ATOM     27  C   UNL     1       7.078   5.141  14.353  0.00  0.00    +0.000 A 
ENDBRANCH  20  21
ENDBRANCH   2  18
TORSDOF 3
ENDMDL
MODEL 4
REMARK VINA RESULT:      -8.1      4.950     11.190
REMARK  Name = 
REMARK  5 active torsions:
REMARK  status: ('A' for Active; 'I' for Inactive)
REMARK    1  A    between atoms: C_1  and  C_2
REMARK    2  A    between atoms: C_4  and  C_5
REMARK    3  A    between atoms: C_10  and  N_11
REMARK    4  A    between atoms: C_12  and  C_14
REMARK    5  A    between atoms: C_16  and  C_17
REMARK                            x       y       z     vdW  Elec       q    Type
REMARK                         _______ _______ _______ _____ _____    ______ ____
ROOT
ATOM      1  N   UNL     1       0.014  10.729  20.304  0.00  0.00    +0.000 N 
ATOM      2  C   UNL     1       0.482  11.839  20.978  0.00  0.00    +0.000 C 
ATOM      3  O   UNL     1       1.643  12.062  21.291  0.00  0.00    +0.000 OA
ATOM      4  H   UNL     1      -0.979  10.677  20.123  0.00  0.00    +0.000 HD
ENDROOT
BRANCH   1  14
ATOM      5  C   UNL     1       5.244   4.863  16.193  0.00  0.00    +0.000 C 
ATOM      6  C   UNL     1       4.412   5.174  17.379  0.00  0.00    +0.000 A 
ATOM      7  C   UNL     1       4.196   4.385  18.522  0.00  0.00    +0.000 A 
ATOM      8  C   UNL     1       3.343   5.118  19.321  0.00  0.00    +0.000 A 
ATOM      9  C   UNL     1       2.755   4.761  20.636  0.00  0.00    +0.000 C 
ATOM     10  N   UNL     1       3.105   6.312  18.652  0.00  0.00    +0.000 N 
ATOM     11  C   UNL     1       2.316   7.437  19.074  0.00  0.00    +0.000 A 
ATOM     12  C   UNL     1       2.187   8.516  18.203  0.00  0.00    +0.000 A 
ATOM     13  C   UNL     1       1.425   9.619  18.587  0.00  0.00    +0.000 A 
ATOM     14  C   UNL     1       0.808   9.651  19.834  0.00  0.00    +0.000 A 
ATOM     15  C   UNL     1       0.996   8.531  20.642  0.00  0.00    +0.000 A 
ATOM     16  N   UNL     1       1.723   7.435  20.298  0.00  0.00    +0.000 NA
ATOM     17  N   UNL     1       3.748   6.330  17.446  0.00  0.00    +0.000 NA
ENDBRANCH   1  14
BRANCH   2  18
ATOM     18  C   UNL     1      -0.564  12.854  21.333  0.00  0.00    +0.000 C 
ATOM     19  C   UNL     1      -0.161  13.992  22.243  0.00  0.00    +0.000 C 
ATOM     20  C   UNL     1      -1.066  12.901  22.769  0.00  0.00    +0.000 C 
BRANCH  20  21
ATOM     21  C   UNL     1      -2.475  13.279  23.155  0.00  0.00    +0.000 A 
ATOM     22  C   UNL     1      -3.036  14.530  22.851  0.00  0.00    +0.000 A 
ATOM     23  C   UNL     1      -4.365  14.824  23.176  0.00  0.00    +0.000 A 
ATOM     24  C   UNL     1      -5.147  13.863  23.803  0.00  0.00    +0.000 A 
ATOM     25  F   UNL     1      -6.423  14.141  24.104  0.00  0.00    +0.000 F 
ATOM     26  C   UNL     1      -4.628  12.616  24.113  0.00  0.00    +0.000 A 
ATOM     27  C   UNL     1      -3.302  12.331  23.788  0.00  0.00    +0.000 A 
ENDBRANCH  20  21
ENDBRANCH   2  18
TORSDOF 3
ENDMDL
MODEL 5
REMARK VINA RESULT:      -8.0      2.572      3.688
REMARK  Name = 
REMARK  5 active torsions:
REMARK  status: ('A' for Active; 'I' for Inactive)
REMARK    1  A    between atoms: C_1  and  C_2
REMARK    2  A    between atoms: C_4  and  C_5
REMARK    3  A    between atoms: C_10  and  N_11
REMARK    4  A    between atoms: C_12  and  C_14
REMARK    5  A    between atoms: C_16  and  C_17
REMARK                            x       y       z     vdW  Elec       q    Type
REMARK                         _______ _______ _______ _____ _____    ______ ____
ROOT
ATOM      1  N   UNL     1       1.919   8.872  17.923  0.00  0.00    +0.000 N 
ATOM      2  C   UNL     1       2.147   7.845  18.816  0.00  0.00    +0.000 C 
ATOM      3  O   UNL     1       2.004   7.894  20.030  0.00  0.00    +0.000 OA
ATOM      4  H   UNL     1       2.091   8.686  16.944  0.00  0.00    +0.000 HD
ENDROOT
BRANCH   1  14
ATOM      5  C   UNL     1      -2.200  16.300  20.476  0.00  0.00    +0.000 C 
ATOM      6  C   UNL     1      -0.984  15.687  19.890  0.00  0.00    +0.000 A 
ATOM      7  C   UNL     1       0.206  16.321  19.495  0.00  0.00    +0.000 A 
ATOM      8  C   UNL     1       1.017  15.317  19.010  0.00  0.00    +0.000 A 
ATOM      9  C   UNL     1       2.380  15.412  18.429  0.00  0.00    +0.000 C 
ATOM     10  N   UNL     1       0.306  14.132  19.156  0.00  0.00    +0.000 N 
ATOM     11  C   UNL     1       0.719  12.791  18.840  0.00  0.00    +0.000 A 
ATOM     12  C   UNL     1      -0.195  11.758  19.033  0.00  0.00    +0.000 A 
ATOM     13  C   UNL     1       0.179  10.448  18.733  0.00  0.00    +0.000 A 
ATOM     14  C   UNL     1       1.457  10.171  18.255  0.00  0.00    +0.000 A 
ATOM     15  C   UNL     1       2.305  11.266  18.098  0.00  0.00    +0.000 A 
ATOM     16  N   UNL     1       1.974  12.555  18.372  0.00  0.00    +0.000 NA
ATOM     17  N   UNL     1      -0.934  14.370  19.677  0.00  0.00    +0.000 NA
ENDBRANCH   1  14
BRANCH   2  18
ATOM     18  C   UNL     1       2.600   6.554  18.200  0.00  0.00    +0.000 C 
ATOM     19  C   UNL     1       3.233   5.525  19.106  0.00  0.00    +0.000 C 
ATOM     20  C   UNL     1       4.095   6.279  18.118  0.00  0.00    +0.000 C 
BRANCH  20  21
ATOM     21  C   UNL     1       4.746   5.494  17.007  0.00  0.00    +0.000 A 
ATOM     22  C   UNL     1       4.794   4.090  16.996  0.00  0.00    +0.000 A 
ATOM     23  C   UNL     1       5.358   3.396  15.920  0.00  0.00    +0.000 A 
ATOM     24  C   UNL     1       5.873   4.101  14.840  0.00  0.00    +0.000 A 
ATOM     25  F   UNL     1       6.402   3.435  13.805  0.00  0.00    +0.000 F 
ATOM     26  C   UNL     1       5.837   5.486  14.815  0.00  0.00    +0.000 A 
ATOM     27  C   UNL     1       5.275   6.173  15.892  0.00  0.00    +0.000 A 
ENDBRANCH  20  21
ENDBRANCH   2  18
TORSDOF 3
ENDMDL
MODEL 6
REMARK VINA RESULT:      -8.0      4.764     10.940
REMARK  Name = 
REMARK  5 active torsions:
REMARK  status: ('A' for Active; 'I' for Inactive)
REMARK    1  A    between atoms: C_1  and  C_2
REMARK    2  A    between atoms: C_4  and  C_5
REMARK    3  A    between atoms: C_10  and  N_11
REMARK    4  A    between atoms: C_12  and  C_14
REMARK    5  A    between atoms: C_16  and  C_17
REMARK                            x       y       z     vdW  Elec       q    Type
REMARK                         _______ _______ _______ _____ _____    ______ ____
ROOT
ATOM      1  N   UNL     1       0.718  10.291  19.942  0.00  0.00    +0.000 N 
ATOM      2  C   UNL     1      -0.559  10.659  19.572  0.00  0.00    +0.000 C 
ATOM      3  O   UNL     1      -1.279  10.077  18.772  0.00  0.00    +0.000 OA
ATOM      4  H   UNL     1       1.198  10.879  20.610  0.00  0.00    +0.000 HD
ENDROOT
BRANCH   1  14
ATOM      5  C   UNL     1       5.460   4.032  15.819  0.00  0.00    +0.000 C 
ATOM      6  C   UNL     1       4.653   4.406  17.004  0.00  0.00    +0.000 A 
ATOM      7  C   UNL     1       4.370   3.633  18.144  0.00  0.00    +0.000 A 
ATOM      8  C   UNL     1       3.578   4.430  18.944  0.00  0.00    +0.000 A 
ATOM      9  C   UNL     1       2.959   4.117  20.256  0.00  0.00    +0.000 C 
ATOM     10  N   UNL     1       3.441   5.642  18.279  0.00  0.00    +0.000 N 
ATOM     11  C   UNL     1       2.745   6.826  18.704  0.00  0.00    +0.000 A 
ATOM     12  C   UNL     1       2.707   7.915  17.837  0.00  0.00    +0.000 A 
ATOM     13  C   UNL     1       2.038   9.076  18.224  0.00  0.00    +0.000 A 
ATOM     14  C   UNL     1       1.422   9.154  19.469  0.00  0.00    +0.000 A 
ATOM     15  C   UNL     1       1.515   8.018  20.273  0.00  0.00    +0.000 A 
ATOM     16  N   UNL     1       2.151   6.868  19.927  0.00  0.00    +0.000 NA
ATOM     17  N   UNL     1       4.086   5.612  17.075  0.00  0.00    +0.000 NA
ENDBRANCH   1  14
BRANCH   2  18
ATOM     18  C   UNL     1      -1.088  11.889  20.248  0.00  0.00    +0.000 C 
ATOM     19  C   UNL     1      -0.248  12.510  21.340  0.00  0.00    +0.000 C 
ATOM     20  C   UNL     1      -1.523  11.782  21.703  0.00  0.00    +0.000 C 
BRANCH  20  21
ATOM     21  C   UNL     1      -2.647  12.588  22.306  0.00  0.00    +0.000 A 
ATOM     22  C   UNL     1      -3.933  12.635  21.746  0.00  0.00    +0.000 A 
ATOM     23  C   UNL     1      -4.965  13.349  22.366  0.00  0.00    +0.000 A 
ATOM     24  C   UNL     1      -4.719  14.017  23.558  0.00  0.00    +0.000 A 
ATOM     25  F   UNL     1      -5.710  14.691  24.158  0.00  0.00    +0.000 F 
ATOM     26  C   UNL     1      -3.463  13.988  24.142  0.00  0.00    +0.000 A 
ATOM     27  C   UNL     1      -2.438  13.275  23.518  0.00  0.00    +0.000 A 
ENDBRANCH  20  21
ENDBRANCH   2  18
TORSDOF 3
ENDMDL
MODEL 7
REMARK VINA RESULT:      -8.0      2.314      3.589
REMARK  Name = 
REMARK  5 active torsions:
REMARK  status: ('A' for Active; 'I' for Inactive)
REMARK    1  A    between atoms: C_1  and  C_2
REMARK    2  A    between atoms: C_4  and  C_5
REMARK    3  A    between atoms: C_10  and  N_11
REMARK    4  A    between atoms: C_12  and  C_14
REMARK    5  A    between atoms: C_16  and  C_17
REMARK                            x       y       z     vdW  Elec       q    Type
REMARK                         _______ _______ _______ _____ _____    ______ ____
ROOT
ATOM      1  N   UNL     1       1.658   8.795  18.062  0.00  0.00    +0.000 N 
ATOM      2  C   UNL     1       2.066   7.789  18.914  0.00  0.00    +0.000 C 
ATOM      3  O   UNL     1       2.063   7.829  20.137  0.00  0.00    +0.000 OA
ATOM      4  H   UNL     1       1.727   8.622  17.069  0.00  0.00    +0.000 HD
ENDROOT
BRANCH   1  14
ATOM      5  C   UNL     1      -2.755  15.913  20.981  0.00  0.00    +0.000 C 
ATOM      6  C   UNL     1      -1.519  15.381  20.360  0.00  0.00    +0.000 A 
ATOM      7  C   UNL     1      -0.360  16.084  19.987  0.00  0.00    +0.000 A 
ATOM      8  C   UNL     1       0.490  15.138  19.451  0.00  0.00    +0.000 A 
ATOM      9  C   UNL     1       1.842  15.319  18.867  0.00  0.00    +0.000 C 
ATOM     10  N   UNL     1      -0.169  13.918  19.547  0.00  0.00    +0.000 N 
ATOM     11  C   UNL     1       0.298  12.613  19.167  0.00  0.00    +0.000 A 
ATOM     12  C   UNL     1      -0.568  11.533  19.317  0.00  0.00    +0.000 A 
ATOM     13  C   UNL     1      -0.141  10.256  18.954  0.00  0.00    +0.000 A 
ATOM     14  C   UNL     1       1.143  10.056  18.457  0.00  0.00    +0.000 A 
ATOM     15  C   UNL     1       1.943  11.193  18.346  0.00  0.00    +0.000 A 
ATOM     16  N   UNL     1       1.558  12.453  18.681  0.00  0.00    +0.000 NA
ATOM     17  N   UNL     1      -1.414  14.079  20.086  0.00  0.00    +0.000 NA
ENDBRANCH   1  14
BRANCH   2  18
ATOM     18  C   UNL     1       2.538   6.535  18.239  0.00  0.00    +0.000 C 
ATOM     19  C   UNL     1       3.219   5.490  19.090  0.00  0.00    +0.000 C 
ATOM     20  C   UNL     1       4.036   6.304  18.113  0.00  0.00    +0.000 C 
BRANCH  20  21
ATOM     21  C   UNL     1       4.681   5.579  16.957  0.00  0.00    +0.000 A 
ATOM     22  C   UNL     1       5.174   6.244  15.823  0.00  0.00    +0.000 A 
ATOM     23  C   UNL     1       5.816   5.541  14.797  0.00  0.00    +0.000 A 
ATOM     24  C   UNL     1       5.977   4.166  14.901  0.00  0.00    +0.000 A 
ATOM     25  F   UNL     1       6.602   3.495  13.924  0.00  0.00    +0.000 F 
ATOM     26  C   UNL     1       5.508   3.478  16.009  0.00  0.00    +0.000 A 
ATOM     27  C   UNL     1       4.867   4.184  17.028  0.00  0.00    +0.000 A 
ENDBRANCH  20  21
ENDBRANCH   2  18
TORSDOF 3
ENDMDL
MODEL 8
REMARK VINA RESULT:      -7.9      4.935     11.176
REMARK  Name = 
REMARK  5 active torsions:
REMARK  status: ('A' for Active; 'I' for Inactive)
REMARK    1  A    between atoms: C_1  and  C_2
REMARK    2  A    between atoms: C_4  and  C_5
REMARK    3  A    between atoms: C_10  and  N_11
REMARK    4  A    between atoms: C_12  and  C_14
REMARK    5  A    between atoms: C_16  and  C_17
REMARK                            x       y       z     vdW  Elec       q    Type
REMARK                         _______ _______ _______ _____ _____    ______ ____
ROOT
ATOM      1  N   UNL     1       0.498  10.495  20.505  0.00  0.00    +0.000 N 
ATOM      2  C   UNL     1      -0.723  10.978  20.081  0.00  0.00    +0.000 C 
ATOM      3  O   UNL     1      -1.417  10.513  19.187  0.00  0.00    +0.000 OA
ATOM      4  H   UNL     1       0.963  10.993  21.252  0.00  0.00    +0.000 HD
ENDROOT
BRANCH   1  14
ATOM      5  C   UNL     1       4.947   4.217  16.095  0.00  0.00    +0.000 C 
ATOM      6  C   UNL     1       4.201   4.588  17.320  0.00  0.00    +0.000 A 
ATOM      7  C   UNL     1       3.960   3.806  18.463  0.00  0.00    +0.000 A 
ATOM      8  C   UNL     1       3.218   4.604  19.308  0.00  0.00    +0.000 A 
ATOM      9  C   UNL     1       2.656   4.285  20.644  0.00  0.00    +0.000 C 
ATOM     10  N   UNL     1       3.069   5.827  18.664  0.00  0.00    +0.000 N 
ATOM     11  C   UNL     1       2.412   7.016  19.135  0.00  0.00    +0.000 A 
ATOM     12  C   UNL     1       2.351   8.116  18.283  0.00  0.00    +0.000 A 
ATOM     13  C   UNL     1       1.718   9.282  18.714  0.00  0.00    +0.000 A 
ATOM     14  C   UNL     1       1.161   9.353  19.987  0.00  0.00    +0.000 A 
ATOM     15  C   UNL     1       1.275   8.207  20.773  0.00  0.00    +0.000 A 
ATOM     16  N   UNL     1       1.876   7.051  20.384  0.00  0.00    +0.000 NA
ATOM     17  N   UNL     1       3.657   5.802  17.431  0.00  0.00    +0.000 NA
ENDBRANCH   1  14
BRANCH   2  18
ATOM     18  C   UNL     1      -1.222  12.184  20.822  0.00  0.00    +0.000 C 
ATOM     19  C   UNL     1      -0.455  12.627  22.046  0.00  0.00    +0.000 C 
ATOM     20  C   UNL     1      -1.814  11.985  22.209  0.00  0.00    +0.000 C 
BRANCH  20  21
ATOM     21  C   UNL     1      -2.929  12.829  22.777  0.00  0.00    +0.000 A 
ATOM     22  C   UNL     1      -2.716  13.801  23.767  0.00  0.00    +0.000 A 
ATOM     23  C   UNL     1      -3.766  14.603  24.228  0.00  0.00    +0.000 A 
ATOM     24  C   UNL     1      -5.039  14.443  23.697  0.00  0.00    +0.000 A 
ATOM     25  F   UNL     1      -6.042  15.218  24.130  0.00  0.00    +0.000 F 
ATOM     26  C   UNL     1      -5.284  13.496  22.714  0.00  0.00    +0.000 A 
ATOM     27  C   UNL     1      -4.233  12.699  22.259  0.00  0.00    +0.000 A 
ENDBRANCH  20  21
ENDBRANCH   2  18
TORSDOF 3
ENDMDL
MODEL 9
REMARK VINA RESULT:      -7.9      3.267      4.644
REMARK  Name = 
REMARK  5 active torsions:
REMARK  status: ('A' for Active; 'I' for Inactive)
REMARK    1  A    between atoms: C_1  and  C_2
REMARK    2  A    between atoms: C_4  and  C_5
REMARK    3  A    between atoms: C_10  and  N_11
REMARK    4  A    between atoms: C_12  and  C_14
REMARK    5  A    between atoms: C_16  and  C_17
REMARK                            x       y       z     vdW  Elec       q    Type
REMARK                         _______ _______ _______ _____ _____    ______ ____
ROOT
ATOM      1  N   UNL     1       1.030   8.912  19.933  0.00  0.00    +0.000 N 
ATOM      2  C   UNL     1       1.826   8.807  18.810  0.00  0.00    +0.000 C 
ATOM      3  O   UNL     1       1.892   9.611  17.890  0.00  0.00    +0.000 OA
ATOM      4  H   UNL     1       1.075   8.161  20.607  0.00  0.00    +0.000 HD
ENDROOT
BRANCH   1  14
ATOM      5  C   UNL     1      -5.173  15.220  20.556  0.00  0.00    +0.000 C 
ATOM      6  C   UNL     1      -3.962  14.600  21.144  0.00  0.00    +0.000 A 
ATOM      7  C   UNL     1      -3.300  14.943  22.336  0.00  0.00    +0.000 A 
ATOM      8  C   UNL     1      -2.232  14.075  22.429  0.00  0.00    +0.000 A 
ATOM      9  C   UNL     1      -1.176  13.999  23.468  0.00  0.00    +0.000 C 
ATOM     10  N   UNL     1      -2.308  13.238  21.321  0.00  0.00    +0.000 N 
ATOM     11  C   UNL     1      -1.455  12.136  20.968  0.00  0.00    +0.000 A 
ATOM     12  C   UNL     1      -1.704  11.467  19.773  0.00  0.00    +0.000 A 
ATOM     13  C   UNL     1      -0.890  10.395  19.405  0.00  0.00    +0.000 A 
ATOM     14  C   UNL     1       0.154   9.987  20.229  0.00  0.00    +0.000 A 
ATOM     15  C   UNL     1       0.326  10.711  21.408  0.00  0.00    +0.000 A 
ATOM     16  N   UNL     1      -0.440  11.765  21.795  0.00  0.00    +0.000 NA
ATOM     17  N   UNL     1      -3.362  13.583  20.523  0.00  0.00    +0.000 NA
ENDBRANCH   1  14
BRANCH   2  18
ATOM     18  C   UNL     1       2.692   7.583  18.755  0.00  0.00    +0.000 C 
ATOM     19  C   UNL     1       3.564   7.391  17.537  0.00  0.00    +0.000 C 
ATOM     20  C   UNL     1       2.354   6.506  17.734  0.00  0.00    +0.000 C 
BRANCH  20  21
ATOM     21  C   UNL     1       2.587   5.033  17.958  0.00  0.00    +0.000 A 
ATOM     22  C   UNL     1       1.632   4.194  18.554  0.00  0.00    +0.000 A 
ATOM     23  C   UNL     1       1.863   2.821  18.694  0.00  0.00    +0.000 A 
ATOM     24  C   UNL     1       3.052   2.273  18.230  0.00  0.00    +0.000 A 
ATOM     25  F   UNL     1       3.268   0.957  18.354  0.00  0.00    +0.000 F 
ATOM     26  C   UNL     1       4.015   3.070  17.632  0.00  0.00    +0.000 A 
ATOM     27  C   UNL     1       3.779   4.439  17.497  0.00  0.00    +0.000 A 
ENDBRANCH  20  21
ENDBRANCH   2  18
TORSDOF 3
ENDMDL
