MODEL 1
REMARK VINA RESULT:      -8.7      0.000      0.000
REMARK  Name = 
REMARK  3 active torsions:
REMARK  status: ('A' for Active; 'I' for Inactive)
REMARK    1  A    between atoms: C_2  and  C_14
REMARK    2  A    between atoms: N_3  and  C_4
REMARK    3  A    between atoms: C_8  and  C_9
REMARK                            x       y       z     vdW  Elec       q    Type
REMARK                         _______ _______ _______ _____ _____    ______ ____
ROOT
ATOM      1  O   UNL     1       8.420   7.056  18.880  0.00  0.00    +0.000 OA
ATOM      2  C   UNL     1       8.072   7.966  18.130  0.00  0.00    +0.000 C 
ATOM      3  N   UNL     1       7.157   7.834  17.088  0.00  0.00    +0.000 N 
ATOM      4  H   UNL     1       7.013   8.624  16.475  0.00  0.00    +0.000 HD
ENDROOT
BRANCH   2   5
ATOM      5  C   UNL     1       8.521   9.346  18.502  0.00  0.00    +0.000 A 
ATOM      6  C   UNL     1       7.908  10.332  17.710  0.00  0.00    +0.000 A 
ATOM      7  C   UNL     1       8.535  11.539  17.523  0.00  0.00    +0.000 A 
ATOM      8  C   UNL     1       9.673  11.783  18.258  0.00  0.00    +0.000 A 
ATOM      9  C   UNL     1      10.484  12.946  17.975  0.00  0.00    +0.000 A 
ATOM     10  O   UNL     1      10.853  13.222  16.837  0.00  0.00    +0.000 OA
ATOM     11  N   UNL     1      10.709  13.673  19.091  0.00  0.00    +0.000 N 
ATOM     12  C   UNL     1      10.413  13.167  20.351  0.00  0.00    +0.000 A 
ATOM     13  N   UNL     1      10.186  11.905  20.600  0.00  0.00    +0.000 NA
ATOM     14  C   UNL     1       9.903  11.091  19.449  0.00  0.00    +0.000 A 
ATOM     15  C   UNL     1       9.461   9.757  19.472  0.00  0.00    +0.000 A 
ATOM     16  C   UNL     1      10.327  14.376  21.266  0.00  0.00    +0.000 C 
ATOM     17  C   UNL     1      10.171  15.538  20.251  0.00  0.00    +0.000 C 
ATOM     18  C   UNL     1      11.013  15.070  19.086  0.00  0.00    +0.000 C 
ENDBRANCH   2   5
BRANCH   3  19
ATOM     19  C   UNL     1       6.322   6.687  16.866  0.00  0.00    +0.000 A 
ATOM     20  C   UNL     1       6.699   5.586  16.088  0.00  0.00    +0.000 A 
ATOM     21  C   UNL     1       5.853   4.485  15.909  0.00  0.00    +0.000 A 
ATOM     22  C   UNL     1       4.602   4.456  16.516  0.00  0.00    +0.000 A 
ATOM     23  C   UNL     1       4.195   5.528  17.316  0.00  0.00    +0.000 A 
ATOM     24  C   UNL     1       5.065   6.634  17.495  0.00  0.00    +0.000 A 
BRANCH  23  25
ATOM     25  C   UNL     1       2.832   5.512  17.972  0.00  0.00    +0.000 C 
ATOM     26  F   UNL     1       2.877   5.228  19.305  0.00  0.00    +0.000 F 
ATOM     27  F   UNL     1       2.183   6.704  17.862  0.00  0.00    +0.000 F 
ATOM     28  F   UNL     1       2.002   4.585  17.425  0.00  0.00    +0.000 F 
ENDBRANCH  23  25
ENDBRANCH   3  19
TORSDOF 3
ENDMDL
MODEL 2
REMARK VINA RESULT:      -8.4      6.639      8.161
REMARK  Name = 
REMARK  3 active torsions:
REMARK  status: ('A' for Active; 'I' for Inactive)
REMARK    1  A    between atoms: C_2  and  C_14
REMARK    2  A    between atoms: N_3  and  C_4
REMARK    3  A    between atoms: C_8  and  C_9
REMARK                            x       y       z     vdW  Elec       q    Type
REMARK                         _______ _______ _______ _____ _____    ______ ____
ROOT
ATOM      1  O   UNL     1       1.970   5.841  20.688  0.00  0.00    +0.000 OA
ATOM      2  C   UNL     1       2.229   6.900  20.120  0.00  0.00    +0.000 C 
ATOM      3  N   UNL     1       3.072   7.028  19.018  0.00  0.00    +0.000 N 
ATOM      4  H   UNL     1       3.289   7.957  18.687  0.00  0.00    +0.000 HD
ENDROOT
BRANCH   2   5
ATOM      5  C   UNL     1       1.421   8.093  20.530  0.00  0.00    +0.000 A 
ATOM      6  C   UNL     1       1.075   8.900  19.433  0.00  0.00    +0.000 A 
ATOM      7  C   UNL     1       0.821  10.235  19.624  0.00  0.00    +0.000 A 
ATOM      8  C   UNL     1       0.762  10.689  20.923  0.00  0.00    +0.000 A 
ATOM      9  C   UNL     1       0.686  12.107  21.193  0.00  0.00    +0.000 A 
ATOM     10  O   UNL     1       1.458  12.911  20.679  0.00  0.00    +0.000 OA
ATOM     11  N   UNL     1      -0.350  12.397  22.010  0.00  0.00    +0.000 N 
ATOM     12  C   UNL     1      -1.035  11.396  22.688  0.00  0.00    +0.000 A 
ATOM     13  N   UNL     1      -0.591  10.177  22.839  0.00  0.00    +0.000 NA
ATOM     14  C   UNL     1       0.488   9.802  21.966  0.00  0.00    +0.000 A 
ATOM     15  C   UNL     1       1.014   8.507  21.818  0.00  0.00    +0.000 A 
ATOM     16  C   UNL     1      -2.366  12.010  23.083  0.00  0.00    +0.000 C 
ATOM     17  C   UNL     1      -2.439  13.249  22.154  0.00  0.00    +0.000 C 
ATOM     18  C   UNL     1      -0.992  13.674  22.062  0.00  0.00    +0.000 C 
ENDBRANCH   2   5
BRANCH   3  19
ATOM     19  C   UNL     1       3.589   5.933  18.246  0.00  0.00    +0.000 A 
ATOM     20  C   UNL     1       2.812   4.854  17.807  0.00  0.00    +0.000 A 
ATOM     21  C   UNL     1       3.359   3.813  17.047  0.00  0.00    +0.000 A 
ATOM     22  C   UNL     1       4.705   3.832  16.698  0.00  0.00    +0.000 A 
ATOM     23  C   UNL     1       5.511   4.900  17.102  0.00  0.00    +0.000 A 
ATOM     24  C   UNL     1       4.943   5.952  17.866  0.00  0.00    +0.000 A 
BRANCH  23  25
ATOM     25  C   UNL     1       6.978   4.925  16.737  0.00  0.00    +0.000 C 
ATOM     26  F   UNL     1       7.768   4.255  17.625  0.00  0.00    +0.000 F 
ATOM     27  F   UNL     1       7.226   4.369  15.519  0.00  0.00    +0.000 F 
ATOM     28  F   UNL     1       7.479   6.188  16.677  0.00  0.00    +0.000 F 
ENDBRANCH  23  25
ENDBRANCH   3  19
TORSDOF 3
ENDMDL
MODEL 3
REMARK VINA RESULT:      -8.4      6.373      8.012
REMARK  Name = 
REMARK  3 active torsions:
REMARK  status: ('A' for Active; 'I' for Inactive)
REMARK    1  A    between atoms: C_2  and  C_14
REMARK    2  A    between atoms: N_3  and  C_4
REMARK    3  A    between atoms: C_8  and  C_9
REMARK                            x       y       z     vdW  Elec       q    Type
REMARK                         _______ _______ _______ _____ _____    ______ ____
ROOT
ATOM      1  O   UNL     1       2.693   8.356  17.166  0.00  0.00    +0.000 OA
ATOM      2  C   UNL     1       2.225   7.893  18.204  0.00  0.00    +0.000 C 
ATOM      3  N   UNL     1       2.505   6.626  18.710  0.00  0.00    +0.000 N 
ATOM      4  H   UNL     1       1.993   6.311  19.522  0.00  0.00    +0.000 HD
ENDROOT
BRANCH   2   5
ATOM      5  C   UNL     1       1.457   8.843  19.072  0.00  0.00    +0.000 A 
ATOM      6  C   UNL     1       0.898   9.900  18.334  0.00  0.00    +0.000 A 
ATOM      7  C   UNL     1       0.632  11.095  18.953  0.00  0.00    +0.000 A 
ATOM      8  C   UNL     1       0.781  11.147  20.322  0.00  0.00    +0.000 A 
ATOM      9  C   UNL     1       0.701  12.415  21.012  0.00  0.00    +0.000 A 
ATOM     10  O   UNL     1       1.343  13.396  20.650  0.00  0.00    +0.000 OA
ATOM     11  N   UNL     1      -0.188  12.366  22.028  0.00  0.00    +0.000 N 
ATOM     12  C   UNL     1      -0.709  11.156  22.471  0.00  0.00    +0.000 A 
ATOM     13  N   UNL     1      -0.202   9.988  22.180  0.00  0.00    +0.000 NA
ATOM     14  C   UNL     1       0.723   9.976  21.080  0.00  0.00    +0.000 A 
ATOM     15  C   UNL     1       1.263   8.830  20.471  0.00  0.00    +0.000 A 
ATOM     16  C   UNL     1      -1.974  11.512  23.232  0.00  0.00    +0.000 C 
ATOM     17  C   UNL     1      -2.251  12.956  22.739  0.00  0.00    +0.000 C 
ATOM     18  C   UNL     1      -0.858  13.513  22.558  0.00  0.00    +0.000 C 
ENDBRANCH   2   5
BRANCH   3  19
ATOM     19  C   UNL     1       3.541   5.758  18.225  0.00  0.00    +0.000 A 
ATOM     20  C   UNL     1       3.312   4.666  17.380  0.00  0.00    +0.000 A 
ATOM     21  C   UNL     1       4.357   3.852  16.925  0.00  0.00    +0.000 A 
ATOM     22  C   UNL     1       5.668   4.121  17.302  0.00  0.00    +0.000 A 
ATOM     23  C   UNL     1       5.942   5.212  18.132  0.00  0.00    +0.000 A 
ATOM     24  C   UNL     1       4.874   6.032  18.580  0.00  0.00    +0.000 A 
BRANCH  23  25
ATOM     25  C   UNL     1       7.363   5.505  18.557  0.00  0.00    +0.000 C 
ATOM     26  F   UNL     1       7.508   5.640  19.906  0.00  0.00    +0.000 F 
ATOM     27  F   UNL     1       8.236   4.529  18.181  0.00  0.00    +0.000 F 
ATOM     28  F   UNL     1       7.841   6.658  18.017  0.00  0.00    +0.000 F 
ENDBRANCH  23  25
ENDBRANCH   3  19
TORSDOF 3
ENDMDL
MODEL 4
REMARK VINA RESULT:      -8.4      6.779      8.400
REMARK  Name = 
REMARK  3 active torsions:
REMARK  status: ('A' for Active; 'I' for Inactive)
REMARK    1  A    between atoms: C_2  and  C_14
REMARK    2  A    between atoms: N_3  and  C_4
REMARK    3  A    between atoms: C_8  and  C_9
REMARK                            x       y       z     vdW  Elec       q    Type
REMARK                         _______ _______ _______ _____ _____    ______ ____
ROOT
ATOM      1  O   UNL     1       1.806   6.253  20.965  0.00  0.00    +0.000 OA
ATOM      2  C   UNL     1       1.894   7.265  20.273  0.00  0.00    +0.000 C 
ATOM      3  N   UNL     1       2.530   7.333  19.036  0.00  0.00    +0.000 N 
ATOM      4  H   UNL     1       2.623   8.238  18.595  0.00  0.00    +0.000 HD
ENDROOT
BRANCH   2   5
ATOM      5  C   UNL     1       1.086   8.448  20.715  0.00  0.00    +0.000 A 
ATOM      6  C   UNL     1       0.846   9.347  19.663  0.00  0.00    +0.000 A 
ATOM      7  C   UNL     1       0.611  10.671  19.940  0.00  0.00    +0.000 A 
ATOM      8  C   UNL     1       0.463  11.025  21.263  0.00  0.00    +0.000 A 
ATOM      9  C   UNL     1       0.402  12.420  21.638  0.00  0.00    +0.000 A 
ATOM     10  O   UNL     1       1.230  13.236  21.249  0.00  0.00    +0.000 OA
ATOM     11  N   UNL     1      -0.687  12.677  22.396  0.00  0.00    +0.000 N 
ATOM     12  C   UNL     1      -1.446  11.648  22.938  0.00  0.00    +0.000 A 
ATOM     13  N   UNL     1      -1.046  10.408  23.025  0.00  0.00    +0.000 NA
ATOM     14  C   UNL     1       0.087  10.068  22.209  0.00  0.00    +0.000 A 
ATOM     15  C   UNL     1       0.592   8.773  21.997  0.00  0.00    +0.000 A 
ATOM     16  C   UNL     1      -2.789  12.269  23.280  0.00  0.00    +0.000 C 
ATOM     17  C   UNL     1      -2.760  13.578  22.449  0.00  0.00    +0.000 C 
ATOM     18  C   UNL     1      -1.299  13.965  22.500  0.00  0.00    +0.000 C 
ENDBRANCH   2   5
BRANCH   3  19
ATOM     19  C   UNL     1       2.983   6.199  18.281  0.00  0.00    +0.000 A 
ATOM     20  C   UNL     1       2.237   5.027  18.111  0.00  0.00    +0.000 A 
ATOM     21  C   UNL     1       2.717   3.949  17.357  0.00  0.00    +0.000 A 
ATOM     22  C   UNL     1       3.962   4.025  16.741  0.00  0.00    +0.000 A 
ATOM     23  C   UNL     1       4.731   5.185  16.871  0.00  0.00    +0.000 A 
ATOM     24  C   UNL     1       4.229   6.272  17.633  0.00  0.00    +0.000 A 
BRANCH  23  25
ATOM     25  C   UNL     1       6.091   5.273  16.215  0.00  0.00    +0.000 C 
ATOM     26  F   UNL     1       6.030   5.435  14.862  0.00  0.00    +0.000 F 
ATOM     27  F   UNL     1       6.834   6.313  16.685  0.00  0.00    +0.000 F 
ATOM     28  F   UNL     1       6.841   4.158  16.421  0.00  0.00    +0.000 F 
ENDBRANCH  23  25
ENDBRANCH   3  19
TORSDOF 3
ENDMDL
MODEL 5
REMARK VINA RESULT:      -8.3      1.340      1.918
REMARK  Name = 
REMARK  3 active torsions:
REMARK  status: ('A' for Active; 'I' for Inactive)
REMARK    1  A    between atoms: C_2  and  C_14
REMARK    2  A    between atoms: N_3  and  C_4
REMARK    3  A    between atoms: C_8  and  C_9
REMARK                            x       y       z     vdW  Elec       q    Type
REMARK                         _______ _______ _______ _____ _____    ______ ____
ROOT
ATOM      1  O   UNL     1       8.445   7.339  18.843  0.00  0.00    +0.000 OA
ATOM      2  C   UNL     1       8.088   8.211  18.053  0.00  0.00    +0.000 C 
ATOM      3  N   UNL     1       7.100   8.052  17.083  0.00  0.00    +0.000 N 
ATOM      4  H   UNL     1       6.950   8.804  16.425  0.00  0.00    +0.000 HD
ENDROOT
BRANCH   2   5
ATOM      5  C   UNL     1       8.623   9.590  18.292  0.00  0.00    +0.000 A 
ATOM      6  C   UNL     1       9.365   9.669  19.483  0.00  0.00    +0.000 A 
ATOM      7  C   UNL     1       9.481  10.873  20.132  0.00  0.00    +0.000 A 
ATOM      8  C   UNL     1       8.990  11.989  19.491  0.00  0.00    +0.000 A 
ATOM      9  C   UNL     1       8.909  13.251  20.192  0.00  0.00    +0.000 A 
ATOM     10  O   UNL     1       8.393  13.349  21.301  0.00  0.00    +0.000 OA
ATOM     11  N   UNL     1       9.511  14.240  19.495  0.00  0.00    +0.000 N 
ATOM     12  C   UNL     1       9.886  14.060  18.169  0.00  0.00    +0.000 A 
ATOM     13  N   UNL     1       9.453  13.090  17.409  0.00  0.00    +0.000 NA
ATOM     14  C   UNL     1       8.838  11.992  18.103  0.00  0.00    +0.000 A 
ATOM     15  C   UNL     1       8.455  10.767  17.530  0.00  0.00    +0.000 A 
ATOM     16  C   UNL     1      10.921  15.136  17.890  0.00  0.00    +0.000 C 
ATOM     17  C   UNL     1      11.334  15.565  19.322  0.00  0.00    +0.000 C 
ATOM     18  C   UNL     1      10.039  15.428  20.090  0.00  0.00    +0.000 C 
ENDBRANCH   2   5
BRANCH   3  19
ATOM     19  C   UNL     1       6.201   6.935  17.001  0.00  0.00    +0.000 A 
ATOM     20  C   UNL     1       6.530   5.711  16.406  0.00  0.00    +0.000 A 
ATOM     21  C   UNL     1       5.622   4.647  16.358  0.00  0.00    +0.000 A 
ATOM     22  C   UNL     1       4.356   4.780  16.916  0.00  0.00    +0.000 A 
ATOM     23  C   UNL     1       3.993   5.980  17.535  0.00  0.00    +0.000 A 
ATOM     24  C   UNL     1       4.926   7.049  17.583  0.00  0.00    +0.000 A 
BRANCH  23  25
ATOM     25  C   UNL     1       2.615   6.140  18.135  0.00  0.00    +0.000 C 
ATOM     26  F   UNL     1       2.603   6.055  19.496  0.00  0.00    +0.000 F 
ATOM     27  F   UNL     1       2.044   7.338  17.828  0.00  0.00    +0.000 F 
ATOM     28  F   UNL     1       1.743   5.192  17.698  0.00  0.00    +0.000 F 
ENDBRANCH  23  25
ENDBRANCH   3  19
TORSDOF 3
ENDMDL
MODEL 6
REMARK VINA RESULT:      -8.2      6.796      8.498
REMARK  Name = 
REMARK  3 active torsions:
REMARK  status: ('A' for Active; 'I' for Inactive)
REMARK    1  A    between atoms: C_2  and  C_14
REMARK    2  A    between atoms: N_3  and  C_4
REMARK    3  A    between atoms: C_8  and  C_9
REMARK                            x       y       z     vdW  Elec       q    Type
REMARK                         _______ _______ _______ _____ _____    ______ ____
ROOT
ATOM      1  O   UNL     1       1.848   6.507  21.176  0.00  0.00    +0.000 OA
ATOM      2  C   UNL     1       1.839   7.493  20.442  0.00  0.00    +0.000 C 
ATOM      3  N   UNL     1       2.424   7.552  19.179  0.00  0.00    +0.000 N 
ATOM      4  H   UNL     1       2.438   8.441  18.699  0.00  0.00    +0.000 HD
ENDROOT
BRANCH   2   5
ATOM      5  C   UNL     1       0.967   8.635  20.867  0.00  0.00    +0.000 A 
ATOM      6  C   UNL     1       0.611   9.459  19.786  0.00  0.00    +0.000 A 
ATOM      7  C   UNL     1       0.290  10.774  20.012  0.00  0.00    +0.000 A 
ATOM      8  C   UNL     1       0.178  11.184  21.322  0.00  0.00    +0.000 A 
ATOM      9  C   UNL     1       0.030  12.588  21.632  0.00  0.00    +0.000 A 
ATOM     10  O   UNL     1       0.775  13.442  21.163  0.00  0.00    +0.000 OA
ATOM     11  N   UNL     1      -1.038  12.804  22.432  0.00  0.00    +0.000 N 
ATOM     12  C   UNL     1      -1.691  11.752  23.061  0.00  0.00    +0.000 A 
ATOM     13  N   UNL     1      -1.195  10.550  23.186  0.00  0.00    +0.000 NA
ATOM     14  C   UNL     1      -0.079  10.253  22.330  0.00  0.00    +0.000 A 
ATOM     15  C   UNL     1       0.510   8.988  22.156  0.00  0.00    +0.000 A 
ATOM     16  C   UNL     1      -3.059  12.291  23.440  0.00  0.00    +0.000 C 
ATOM     17  C   UNL     1      -3.168  13.554  22.547  0.00  0.00    +0.000 C 
ATOM     18  C   UNL     1      -1.740  14.048  22.506  0.00  0.00    +0.000 C 
ENDBRANCH   2   5
BRANCH   3  19
ATOM     19  C   UNL     1       2.929   6.421  18.452  0.00  0.00    +0.000 A 
ATOM     20  C   UNL     1       4.021   6.479  17.578  0.00  0.00    +0.000 A 
ATOM     21  C   UNL     1       4.483   5.346  16.899  0.00  0.00    +0.000 A 
ATOM     22  C   UNL     1       3.864   4.115  17.086  0.00  0.00    +0.000 A 
ATOM     23  C   UNL     1       2.781   4.010  17.964  0.00  0.00    +0.000 A 
ATOM     24  C   UNL     1       2.327   5.165  18.652  0.00  0.00    +0.000 A 
BRANCH  23  25
ATOM     25  C   UNL     1       2.093   2.679  18.166  0.00  0.00    +0.000 C 
ATOM     26  F   UNL     1       2.309   1.798  17.148  0.00  0.00    +0.000 F 
ATOM     27  F   UNL     1       2.498   2.047  19.303  0.00  0.00    +0.000 F 
ATOM     28  F   UNL     1       0.743   2.800  18.269  0.00  0.00    +0.000 F 
ENDBRANCH  23  25
ENDBRANCH   3  19
TORSDOF 3
ENDMDL
MODEL 7
REMARK VINA RESULT:      -8.1      1.908      2.426
REMARK  Name = 
REMARK  3 active torsions:
REMARK  status: ('A' for Active; 'I' for Inactive)
REMARK    1  A    between atoms: C_2  and  C_14
REMARK    2  A    between atoms: N_3  and  C_4
REMARK    3  A    between atoms: C_8  and  C_9
REMARK                            x       y       z     vdW  Elec       q    Type
REMARK                         _______ _______ _______ _____ _____    ______ ____
ROOT
ATOM      1  O   UNL     1       8.520   7.353  18.789  0.00  0.00    +0.000 OA
ATOM      2  C   UNL     1       8.091   8.301  18.133  0.00  0.00    +0.000 C 
ATOM      3  N   UNL     1       7.072   8.219  17.187  0.00  0.00    +0.000 N 
ATOM      4  H   UNL     1       6.861   9.041  16.639  0.00  0.00    +0.000 HD
ENDROOT
BRANCH   2   5
ATOM      5  C   UNL     1       8.572   9.662  18.533  0.00  0.00    +0.000 A 
ATOM      6  C   UNL     1       8.035  10.673  17.719  0.00  0.00    +0.000 A 
ATOM      7  C   UNL     1       8.713  11.856  17.568  0.00  0.00    +0.000 A 
ATOM      8  C   UNL     1       9.823  12.056  18.358  0.00  0.00    +0.000 A 
ATOM      9  C   UNL     1      10.689  13.190  18.120  0.00  0.00    +0.000 A 
ATOM     10  O   UNL     1      11.122  13.456  17.003  0.00  0.00    +0.000 OA
ATOM     11  N   UNL     1      10.886  13.903  19.250  0.00  0.00    +0.000 N 
ATOM     12  C   UNL     1      10.511  13.404  20.492  0.00  0.00    +0.000 A 
ATOM     13  N   UNL     1      10.227  12.150  20.722  0.00  0.00    +0.000 NA
ATOM     14  C   UNL     1       9.970  11.352  19.555  0.00  0.00    +0.000 A 
ATOM     15  C   UNL     1       9.479  10.035  19.550  0.00  0.00    +0.000 A 
ATOM     16  C   UNL     1      10.427  14.612  21.408  0.00  0.00    +0.000 C 
ATOM     17  C   UNL     1      10.362  15.782  20.393  0.00  0.00    +0.000 C 
ATOM     18  C   UNL     1      11.242  15.288  19.267  0.00  0.00    +0.000 C 
ENDBRANCH   2   5
BRANCH   3  19
ATOM     19  C   UNL     1       6.222   7.079  16.990  0.00  0.00    +0.000 A 
ATOM     20  C   UNL     1       5.149   6.751  17.828  0.00  0.00    +0.000 A 
ATOM     21  C   UNL     1       4.341   5.633  17.589  0.00  0.00    +0.000 A 
ATOM     22  C   UNL     1       4.584   4.815  16.492  0.00  0.00    +0.000 A 
ATOM     23  C   UNL     1       5.634   5.117  15.620  0.00  0.00    +0.000 A 
ATOM     24  C   UNL     1       6.442   6.257  15.870  0.00  0.00    +0.000 A 
BRANCH  23  25
ATOM     25  C   UNL     1       5.914   4.226  14.430  0.00  0.00    +0.000 C 
ATOM     26  F   UNL     1       4.871   4.151  13.554  0.00  0.00    +0.000 F 
ATOM     27  F   UNL     1       6.987   4.645  13.702  0.00  0.00    +0.000 F 
ATOM     28  F   UNL     1       6.187   2.944  14.791  0.00  0.00    +0.000 F 
ENDBRANCH  23  25
ENDBRANCH   3  19
TORSDOF 3
ENDMDL
MODEL 8
REMARK VINA RESULT:      -8.1      7.612      8.962
REMARK  Name = 
REMARK  3 active torsions:
REMARK  status: ('A' for Active; 'I' for Inactive)
REMARK    1  A    between atoms: C_2  and  C_14
REMARK    2  A    between atoms: N_3  and  C_4
REMARK    3  A    between atoms: C_8  and  C_9
REMARK                            x       y       z     vdW  Elec       q    Type
REMARK                         _______ _______ _______ _____ _____    ______ ____
ROOT
ATOM      1  O   UNL     1      -0.520   7.582  21.386  0.00  0.00    +0.000 OA
ATOM      2  C   UNL     1       0.477   8.301  21.388  0.00  0.00    +0.000 C 
ATOM      3  N   UNL     1       1.732   7.926  20.913  0.00  0.00    +0.000 N 
ATOM      4  H   UNL     1       2.504   8.564  21.048  0.00  0.00    +0.000 HD
ENDROOT
BRANCH   2   5
ATOM      5  C   UNL     1       0.262   9.740  21.749  0.00  0.00    +0.000 A 
ATOM      6  C   UNL     1      -0.461   9.882  22.945  0.00  0.00    +0.000 A 
ATOM      7  C   UNL     1      -1.192  11.023  23.165  0.00  0.00    +0.000 A 
ATOM      8  C   UNL     1      -1.049  12.052  22.260  0.00  0.00    +0.000 A 
ATOM      9  C   UNL     1      -1.924  13.201  22.325  0.00  0.00    +0.000 A 
ATOM     10  O   UNL     1      -3.144  13.089  22.391  0.00  0.00    +0.000 OA
ATOM     11  N   UNL     1      -1.220  14.353  22.359  0.00  0.00    +0.000 N 
ATOM     12  C   UNL     1       0.142  14.373  22.081  0.00  0.00    +0.000 A 
ATOM     13  N   UNL     1       0.785  13.398  21.497  0.00  0.00    +0.000 NA
ATOM     14  C   UNL     1       0.097  12.137  21.467  0.00  0.00    +0.000 A 
ATOM     15  C   UNL     1       0.645  10.909  21.056  0.00  0.00    +0.000 A 
ATOM     16  C   UNL     1       0.659  15.671  22.675  0.00  0.00    +0.000 C 
ATOM     17  C   UNL     1      -0.485  16.061  23.646  0.00  0.00    +0.000 C 
ATOM     18  C   UNL     1      -1.715  15.575  22.913  0.00  0.00    +0.000 C 
ENDBRANCH   2   5
BRANCH   3  19
ATOM     19  C   UNL     1       2.002   6.739  20.152  0.00  0.00    +0.000 A 
ATOM     20  C   UNL     1       2.450   6.747  18.826  0.00  0.00    +0.000 A 
ATOM     21  C   UNL     1       2.710   5.562  18.128  0.00  0.00    +0.000 A 
ATOM     22  C   UNL     1       2.535   4.330  18.749  0.00  0.00    +0.000 A 
ATOM     23  C   UNL     1       2.106   4.278  20.078  0.00  0.00    +0.000 A 
ATOM     24  C   UNL     1       1.853   5.487  20.776  0.00  0.00    +0.000 A 
BRANCH  23  25
ATOM     25  C   UNL     1       1.902   2.944  20.759  0.00  0.00    +0.000 C 
ATOM     26  F   UNL     1       1.549   1.946  19.899  0.00  0.00    +0.000 F 
ATOM     27  F   UNL     1       3.019   2.507  21.404  0.00  0.00    +0.000 F 
ATOM     28  F   UNL     1       0.922   2.984  21.700  0.00  0.00    +0.000 F 
ENDBRANCH  23  25
ENDBRANCH   3  19
TORSDOF 3
ENDMDL
MODEL 9
REMARK VINA RESULT:      -8.0      7.894      9.372
REMARK  Name = 
REMARK  3 active torsions:
REMARK  status: ('A' for Active; 'I' for Inactive)
REMARK    1  A    between atoms: C_2  and  C_14
REMARK    2  A    between atoms: N_3  and  C_4
REMARK    3  A    between atoms: C_8  and  C_9
REMARK                            x       y       z     vdW  Elec       q    Type
REMARK                         _______ _______ _______ _____ _____    ______ ____
ROOT
ATOM      1  O   UNL     1       1.222   9.263  19.185  0.00  0.00    +0.000 OA
ATOM      2  C   UNL     1       0.851   8.993  20.326  0.00  0.00    +0.000 C 
ATOM      3  N   UNL     1       1.008   7.754  20.943  0.00  0.00    +0.000 N 
ATOM      4  H   UNL     1       0.584   7.614  21.850  0.00  0.00    +0.000 HD
ENDROOT
BRANCH   2   5
ATOM      5  C   UNL     1       0.378  10.142  21.163  0.00  0.00    +0.000 A 
ATOM      6  C   UNL     1       0.017   9.738  22.460  0.00  0.00    +0.000 A 
ATOM      7  C   UNL     1      -0.892  10.477  23.173  0.00  0.00    +0.000 A 
ATOM      8  C   UNL     1      -1.292  11.681  22.637  0.00  0.00    +0.000 A 
ATOM      9  C   UNL     1      -2.381  12.417  23.238  0.00  0.00    +0.000 A 
ATOM     10  O   UNL     1      -3.457  11.889  23.503  0.00  0.00    +0.000 OA
ATOM     11  N   UNL     1      -2.026  13.694  23.499  0.00  0.00    +0.000 N 
ATOM     12  C   UNL     1      -0.857  14.237  22.980  0.00  0.00    +0.000 A 
ATOM     13  N   UNL     1      -0.175  13.708  22.000  0.00  0.00    +0.000 NA
ATOM     14  C   UNL     1      -0.486  12.336  21.703  0.00  0.00    +0.000 A 
ATOM     15  C   UNL     1       0.224  11.503  20.821  0.00  0.00    +0.000 A 
ATOM     16  C   UNL     1      -0.552  15.448  23.844  0.00  0.00    +0.000 C 
ATOM     17  C   UNL     1      -1.430  15.182  25.094  0.00  0.00    +0.000 C 
ATOM     18  C   UNL     1      -2.645  14.505  24.502  0.00  0.00    +0.000 C 
ENDBRANCH   2   5
BRANCH   3  19
ATOM     19  C   UNL     1       1.814   6.679  20.437  0.00  0.00    +0.000 A 
ATOM     20  C   UNL     1       2.843   6.849  19.503  0.00  0.00    +0.000 A 
ATOM     21  C   UNL     1       3.609   5.770  19.046  0.00  0.00    +0.000 A 
ATOM     22  C   UNL     1       3.368   4.486  19.524  0.00  0.00    +0.000 A 
ATOM     23  C   UNL     1       2.361   4.277  20.471  0.00  0.00    +0.000 A 
ATOM     24  C   UNL     1       1.596   5.380  20.931  0.00  0.00    +0.000 A 
BRANCH  23  25
ATOM     25  C   UNL     1       2.082   2.884  20.988  0.00  0.00    +0.000 C 
ATOM     26  F   UNL     1       3.134   2.336  21.661  0.00  0.00    +0.000 F 
ATOM     27  F   UNL     1       1.025   2.844  21.846  0.00  0.00    +0.000 F 
ATOM     28  F   UNL     1       1.784   2.008  19.992  0.00  0.00    +0.000 F 
ENDBRANCH  23  25
ENDBRANCH   3  19
TORSDOF 3
ENDMDL
