MODEL 1
REMARK VINA RESULT:      -8.8      0.000      0.000
REMARK  Name = 
REMARK  6 active torsions:
REMARK  status: ('A' for Active; 'I' for Inactive)
REMARK    1  A    between atoms: C_1  and  C_2
REMARK    2  A    between atoms: C_6  and  C_7
REMARK    3  A    between atoms: C_10  and  N_11
REMARK    4  A    between atoms: N_14  and  C_15
REMARK    5  A    between atoms: N_14  and  C_16
REMARK    6  A    between atoms: C_20  and  C_21
REMARK                            x       y       z     vdW  Elec       q    Type
REMARK                         _______ _______ _______ _____ _____    ______ ____
ROOT
ATOM      1  N   UNL     1       8.731   8.446  19.015  0.00  0.00    +0.000 N 
ATOM      2  C   UNL     1       7.931   7.862  18.062  0.00  0.00    +0.000 C 
ATOM      3  O   UNL     1       7.437   8.490  17.129  0.00  0.00    +0.000 OA
ATOM      4  N   UNL     1       7.671   6.502  18.193  0.00  0.00    +0.000 N 
ATOM      5  C   UNL     1       8.116   5.649  19.289  0.00  0.00    +0.000 C 
ATOM      6  H   UNL     1       8.956   7.921  19.840  0.00  0.00    +0.000 HD
ENDROOT
BRANCH   1  10
ATOM      7  C   UNL     1       9.992  12.520  19.174  0.00  0.00    +0.000 A 
ATOM      8  C   UNL     1       9.779  11.880  17.946  0.00  0.00    +0.000 A 
ATOM      9  C   UNL     1       9.377  10.547  17.877  0.00  0.00    +0.000 A 
ATOM     10  C   UNL     1       9.147   9.801  19.031  0.00  0.00    +0.000 A 
ATOM     11  C   UNL     1       9.344  10.420  20.268  0.00  0.00    +0.000 A 
ATOM     12  C   UNL     1       9.761  11.760  20.337  0.00  0.00    +0.000 A 
BRANCH   7  18
ATOM     13  C   UNL     1      10.632  16.742  16.913  0.00  0.00    +0.000 C 
ATOM     14  C   UNL     1      10.753  15.939  18.171  0.00  0.00    +0.000 A 
ATOM     15  C   UNL     1      11.176  16.517  19.352  0.00  0.00    +0.000 A 
ATOM     16  C   UNL     1      11.229  15.689  20.445  0.00  0.00    +0.000 A 
ATOM     17  N   UNL     1      10.882  14.393  20.406  0.00  0.00    +0.000 NA
ATOM     18  C   UNL     1      10.467  13.914  19.215  0.00  0.00    +0.000 A 
ATOM     19  N   UNL     1      10.401  14.641  18.085  0.00  0.00    +0.000 NA
ENDBRANCH   7  18
ENDBRANCH   1  10
BRANCH   4  20
ATOM     20  C   UNL     1       6.615   5.921  17.327  0.00  0.00    +0.000 C 
ATOM     21  C   UNL     1       7.169   4.867  16.380  0.00  0.00    +0.000 C 
ATOM     22  C   UNL     1       5.940   4.095  15.972  0.00  0.00    +0.000 C 
ATOM     23  O   UNL     1       5.022   4.132  17.065  0.00  0.00    +0.000 OA
ATOM     24  C   UNL     1       5.420   5.178  17.987  0.00  0.00    +0.000 C 
BRANCH  24  25
ATOM     25  C   UNL     1       4.232   6.058  18.288  0.00  0.00    +0.000 A 
ATOM     26  C   UNL     1       3.400   5.854  19.393  0.00  0.00    +0.000 A 
ATOM     27  C   UNL     1       2.361   6.742  19.656  0.00  0.00    +0.000 A 
ATOM     28  C   UNL     1       2.177   7.806  18.791  0.00  0.00    +0.000 A 
ATOM     29  N   UNL     1       2.939   8.027  17.698  0.00  0.00    +0.000 NA
ATOM     30  C   UNL     1       3.952   7.154  17.478  0.00  0.00    +0.000 A 
ENDBRANCH  24  25
ENDBRANCH   4  20
TORSDOF 4
ENDMDL
MODEL 2
REMARK VINA RESULT:      -8.6      0.763      1.377
REMARK  Name = 
REMARK  6 active torsions:
REMARK  status: ('A' for Active; 'I' for Inactive)
REMARK    1  A    between atoms: C_1  and  C_2
REMARK    2  A    between atoms: C_6  and  C_7
REMARK    3  A    between atoms: C_10  and  N_11
REMARK    4  A    between atoms: N_14  and  C_15
REMARK    5  A    between atoms: N_14  and  C_16
REMARK    6  A    between atoms: C_20  and  C_21
REMARK                            x       y       z     vdW  Elec       q    Type
REMARK                         _______ _______ _______ _____ _____    ______ ____
ROOT
ATOM      1  N   UNL     1       8.744   8.481  19.025  0.00  0.00    +0.000 N 
ATOM      2  C   UNL     1       7.916   7.939  18.072  0.00  0.00    +0.000 C 
ATOM      3  O   UNL     1       7.394   8.607  17.182  0.00  0.00    +0.000 OA
ATOM      4  N   UNL     1       7.659   6.574  18.149  0.00  0.00    +0.000 N 
ATOM      5  C   UNL     1       8.137   5.674  19.193  0.00  0.00    +0.000 C 
ATOM      6  H   UNL     1       8.994   7.920  19.818  0.00  0.00    +0.000 HD
ENDROOT
BRANCH   1  10
ATOM      7  C   UNL     1       9.992  12.561  19.107  0.00  0.00    +0.000 A 
ATOM      8  C   UNL     1       9.754  11.858  20.294  0.00  0.00    +0.000 A 
ATOM      9  C   UNL     1       9.336  10.527  20.284  0.00  0.00    +0.000 A 
ATOM     10  C   UNL     1       9.160   9.835  19.089  0.00  0.00    +0.000 A 
ATOM     11  C   UNL     1       9.400  10.512  17.890  0.00  0.00    +0.000 A 
ATOM     12  C   UNL     1       9.809  11.856  17.901  0.00  0.00    +0.000 A 
BRANCH   7  18
ATOM     13  C   UNL     1       8.896  17.180  18.206  0.00  0.00    +0.000 C 
ATOM     14  C   UNL     1       9.870  16.186  18.757  0.00  0.00    +0.000 A 
ATOM     15  C   UNL     1      11.028  16.593  19.390  0.00  0.00    +0.000 A 
ATOM     16  C   UNL     1      11.836  15.594  19.874  0.00  0.00    +0.000 A 
ATOM     17  N   UNL     1      11.538  14.290  19.768  0.00  0.00    +0.000 NA
ATOM     18  C   UNL     1      10.382  13.981  19.147  0.00  0.00    +0.000 A 
ATOM     19  N   UNL     1       9.535  14.886  18.623  0.00  0.00    +0.000 NA
ENDBRANCH   7  18
ENDBRANCH   1  10
BRANCH   4  20
ATOM     20  C   UNL     1       6.577   6.031  17.291  0.00  0.00    +0.000 C 
ATOM     21  C   UNL     1       7.095   4.984  16.316  0.00  0.00    +0.000 C 
ATOM     22  C   UNL     1       5.844   4.245  15.913  0.00  0.00    +0.000 C 
ATOM     23  O   UNL     1       4.944   4.280  17.022  0.00  0.00    +0.000 OA
ATOM     24  C   UNL     1       5.379   5.301  17.956  0.00  0.00    +0.000 C 
BRANCH  24  25
ATOM     25  C   UNL     1       4.213   6.200  18.293  0.00  0.00    +0.000 A 
ATOM     26  C   UNL     1       3.852   7.297  17.505  0.00  0.00    +0.000 A 
ATOM     27  C   UNL     1       2.725   8.045  17.830  0.00  0.00    +0.000 A 
ATOM     28  C   UNL     1       1.998   7.679  18.949  0.00  0.00    +0.000 A 
ATOM     29  N   UNL     1       2.325   6.644  19.752  0.00  0.00    +0.000 NA
ATOM     30  C   UNL     1       3.418   5.925  19.401  0.00  0.00    +0.000 A 
ENDBRANCH  24  25
ENDBRANCH   4  20
TORSDOF 4
ENDMDL
MODEL 3
REMARK VINA RESULT:      -8.6      0.607      1.768
REMARK  Name = 
REMARK  6 active torsions:
REMARK  status: ('A' for Active; 'I' for Inactive)
REMARK    1  A    between atoms: C_1  and  C_2
REMARK    2  A    between atoms: C_6  and  C_7
REMARK    3  A    between atoms: C_10  and  N_11
REMARK    4  A    between atoms: N_14  and  C_15
REMARK    5  A    between atoms: N_14  and  C_16
REMARK    6  A    between atoms: C_20  and  C_21
REMARK                            x       y       z     vdW  Elec       q    Type
REMARK                         _______ _______ _______ _____ _____    ______ ____
ROOT
ATOM      1  N   UNL     1       8.763   8.494  19.051  0.00  0.00    +0.000 N 
ATOM      2  C   UNL     1       7.952   7.925  18.099  0.00  0.00    +0.000 C 
ATOM      3  O   UNL     1       7.441   8.569  17.186  0.00  0.00    +0.000 OA
ATOM      4  N   UNL     1       7.700   6.562  18.206  0.00  0.00    +0.000 N 
ATOM      5  C   UNL     1       8.165   5.690  19.279  0.00  0.00    +0.000 C 
ATOM      6  H   UNL     1       9.002   7.955  19.862  0.00  0.00    +0.000 HD
ENDROOT
BRANCH   1  10
ATOM      7  C   UNL     1       9.996  12.580  19.052  0.00  0.00    +0.000 A 
ATOM      8  C   UNL     1       9.709  11.915  20.250  0.00  0.00    +0.000 A 
ATOM      9  C   UNL     1       9.296  10.583  20.267  0.00  0.00    +0.000 A 
ATOM     10  C   UNL     1       9.173   9.851  19.088  0.00  0.00    +0.000 A 
ATOM     11  C   UNL     1       9.461  10.490  17.879  0.00  0.00    +0.000 A 
ATOM     12  C   UNL     1       9.866  11.835  17.863  0.00  0.00    +0.000 A 
BRANCH   7  18
ATOM     13  C   UNL     1      11.343  16.484  21.560  0.00  0.00    +0.000 C 
ATOM     14  C   UNL     1      11.052  15.862  20.229  0.00  0.00    +0.000 A 
ATOM     15  C   UNL     1      11.255  16.559  19.054  0.00  0.00    +0.000 A 
ATOM     16  C   UNL     1      10.972  15.881  17.894  0.00  0.00    +0.000 A 
ATOM     17  N   UNL     1      10.538  14.611  17.869  0.00  0.00    +0.000 NA
ATOM     18  C   UNL     1      10.380  14.002  19.062  0.00  0.00    +0.000 A 
ATOM     19  N   UNL     1      10.611  14.588  20.251  0.00  0.00    +0.000 NA
ENDBRANCH   7  18
ENDBRANCH   1  10
BRANCH   4  20
ATOM     20  C   UNL     1       6.634   5.993  17.345  0.00  0.00    +0.000 C 
ATOM     21  C   UNL     1       7.174   4.937  16.391  0.00  0.00    +0.000 C 
ATOM     22  C   UNL     1       5.936   4.178  15.987  0.00  0.00    +0.000 C 
ATOM     23  O   UNL     1       5.024   4.219  17.085  0.00  0.00    +0.000 OA
ATOM     24  C   UNL     1       5.437   5.259  18.008  0.00  0.00    +0.000 C 
BRANCH  24  25
ATOM     25  C   UNL     1       4.257   6.148  18.319  0.00  0.00    +0.000 A 
ATOM     26  C   UNL     1       3.906   7.244  17.525  0.00  0.00    +0.000 A 
ATOM     27  C   UNL     1       2.766   7.983  17.824  0.00  0.00    +0.000 A 
ATOM     28  C   UNL     1       2.016   7.610  18.926  0.00  0.00    +0.000 A 
ATOM     29  N   UNL     1       2.332   6.577  19.735  0.00  0.00    +0.000 NA
ATOM     30  C   UNL     1       3.438   5.866  19.409  0.00  0.00    +0.000 A 
ENDBRANCH  24  25
ENDBRANCH   4  20
TORSDOF 4
ENDMDL
MODEL 4
REMARK VINA RESULT:      -8.4      0.869      1.376
REMARK  Name = 
REMARK  6 active torsions:
REMARK  status: ('A' for Active; 'I' for Inactive)
REMARK    1  A    between atoms: C_1  and  C_2
REMARK    2  A    between atoms: C_6  and  C_7
REMARK    3  A    between atoms: C_10  and  N_11
REMARK    4  A    between atoms: N_14  and  C_15
REMARK    5  A    between atoms: N_14  and  C_16
REMARK    6  A    between atoms: C_20  and  C_21
REMARK                            x       y       z     vdW  Elec       q    Type
REMARK                         _______ _______ _______ _____ _____    ______ ____
ROOT
ATOM      1  N   UNL     1       8.719   8.527  18.962  0.00  0.00    +0.000 N 
ATOM      2  C   UNL     1       7.911   7.906  18.039  0.00  0.00    +0.000 C 
ATOM      3  O   UNL     1       7.384   8.503  17.104  0.00  0.00    +0.000 OA
ATOM      4  N   UNL     1       7.682   6.544  18.205  0.00  0.00    +0.000 N 
ATOM      5  C   UNL     1       8.169   5.725  19.309  0.00  0.00    +0.000 C 
ATOM      6  H   UNL     1       8.973   8.025  19.792  0.00  0.00    +0.000 HD
ENDROOT
BRANCH   1  10
ATOM      7  C   UNL     1       9.934  12.617  18.995  0.00  0.00    +0.000 A 
ATOM      8  C   UNL     1       9.295  12.066  17.878  0.00  0.00    +0.000 A 
ATOM      9  C   UNL     1       8.900  10.729  17.847  0.00  0.00    +0.000 A 
ATOM     10  C   UNL     1       9.107   9.891  18.940  0.00  0.00    +0.000 A 
ATOM     11  C   UNL     1       9.735  10.419  20.070  0.00  0.00    +0.000 A 
ATOM     12  C   UNL     1      10.143  11.764  20.095  0.00  0.00    +0.000 A 
BRANCH   7  18
ATOM     13  C   UNL     1       9.382  17.162  20.540  0.00  0.00    +0.000 C 
ATOM     14  C   UNL     1      10.163  16.181  19.723  0.00  0.00    +0.000 A 
ATOM     15  C   UNL     1      11.329  16.550  19.082  0.00  0.00    +0.000 A 
ATOM     16  C   UNL     1      11.971  15.561  18.378  0.00  0.00    +0.000 A 
ATOM     17  N   UNL     1      11.525  14.296  18.311  0.00  0.00    +0.000 NA
ATOM     18  C   UNL     1      10.386  14.020  18.978  0.00  0.00    +0.000 A 
ATOM     19  N   UNL     1       9.676  14.924  19.677  0.00  0.00    +0.000 NA
ENDBRANCH   7  18
ENDBRANCH   1  10
BRANCH   4  20
ATOM     20  C   UNL     1       6.620   5.922  17.375  0.00  0.00    +0.000 C 
ATOM     21  C   UNL     1       7.171   4.832  16.467  0.00  0.00    +0.000 C 
ATOM     22  C   UNL     1       5.941   4.039  16.104  0.00  0.00    +0.000 C 
ATOM     23  O   UNL     1       5.034   4.117  17.205  0.00  0.00    +0.000 OA
ATOM     24  C   UNL     1       5.437   5.203  18.078  0.00  0.00    +0.000 C 
BRANCH  24  25
ATOM     25  C   UNL     1       4.247   6.090  18.354  0.00  0.00    +0.000 A 
ATOM     26  C   UNL     1       3.892   7.160  17.527  0.00  0.00    +0.000 A 
ATOM     27  C   UNL     1       2.743   7.897  17.797  0.00  0.00    +0.000 A 
ATOM     28  C   UNL     1       1.988   7.547  18.902  0.00  0.00    +0.000 A 
ATOM     29  N   UNL     1       2.306   6.539  19.742  0.00  0.00    +0.000 NA
ATOM     30  C   UNL     1       3.421   5.830  19.444  0.00  0.00    +0.000 A 
ENDBRANCH  24  25
ENDBRANCH   4  20
TORSDOF 4
ENDMDL
MODEL 5
REMARK VINA RESULT:      -8.4      1.069      1.212
REMARK  Name = 
REMARK  6 active torsions:
REMARK  status: ('A' for Active; 'I' for Inactive)
REMARK    1  A    between atoms: C_1  and  C_2
REMARK    2  A    between atoms: C_6  and  C_7
REMARK    3  A    between atoms: C_10  and  N_11
REMARK    4  A    between atoms: N_14  and  C_15
REMARK    5  A    between atoms: N_14  and  C_16
REMARK    6  A    between atoms: C_20  and  C_21
REMARK                            x       y       z     vdW  Elec       q    Type
REMARK                         _______ _______ _______ _____ _____    ______ ____
ROOT
ATOM      1  N   UNL     1       8.535   8.268  18.911  0.00  0.00    +0.000 N 
ATOM      2  C   UNL     1       7.848   7.662  17.887  0.00  0.00    +0.000 C 
ATOM      3  O   UNL     1       7.454   8.271  16.895  0.00  0.00    +0.000 OA
ATOM      4  N   UNL     1       7.584   6.302  18.011  0.00  0.00    +0.000 N 
ATOM      5  C   UNL     1       7.914   5.471  19.163  0.00  0.00    +0.000 C 
ATOM      6  H   UNL     1       8.673   7.758  19.764  0.00  0.00    +0.000 HD
ENDROOT
BRANCH   1  10
ATOM      7  C   UNL     1       9.770  12.346  19.136  0.00  0.00    +0.000 A 
ATOM      8  C   UNL     1       9.369  11.783  17.919  0.00  0.00    +0.000 A 
ATOM      9  C   UNL     1       8.971  10.450  17.827  0.00  0.00    +0.000 A 
ATOM     10  C   UNL     1       8.937   9.627  18.950  0.00  0.00    +0.000 A 
ATOM     11  C   UNL     1       9.325  10.169  20.179  0.00  0.00    +0.000 A 
ATOM     12  C   UNL     1       9.737  11.509  20.268  0.00  0.00    +0.000 A 
BRANCH   7  18
ATOM     13  C   UNL     1      10.726  16.487  16.835  0.00  0.00    +0.000 C 
ATOM     14  C   UNL     1      10.666  15.731  18.126  0.00  0.00    +0.000 A 
ATOM     15  C   UNL     1      10.916  16.355  19.333  0.00  0.00    +0.000 A 
ATOM     16  C   UNL     1      10.813  15.567  20.452  0.00  0.00    +0.000 A 
ATOM     17  N   UNL     1      10.475  14.269  20.412  0.00  0.00    +0.000 NA
ATOM     18  C   UNL     1      10.235  13.744  19.193  0.00  0.00    +0.000 A 
ATOM     19  N   UNL     1      10.330  14.428  18.038  0.00  0.00    +0.000 NA
ENDBRANCH   7  18
ENDBRANCH   1  10
BRANCH   4  20
ATOM     20  C   UNL     1       6.633   5.698  17.045  0.00  0.00    +0.000 C 
ATOM     21  C   UNL     1       7.334   5.197  15.792  0.00  0.00    +0.000 C 
ATOM     22  C   UNL     1       6.334   4.233  15.205  0.00  0.00    +0.000 C 
ATOM     23  O   UNL     1       5.600   3.658  16.286  0.00  0.00    +0.000 OA
ATOM     24  C   UNL     1       5.801   4.460  17.478  0.00  0.00    +0.000 C 
BRANCH  24  25
ATOM     25  C   UNL     1       4.462   4.794  18.089  0.00  0.00    +0.000 A 
ATOM     26  C   UNL     1       3.248   4.447  17.487  0.00  0.00    +0.000 A 
ATOM     27  C   UNL     1       2.047   4.720  18.134  0.00  0.00    +0.000 A 
ATOM     28  C   UNL     1       2.098   5.351  19.365  0.00  0.00    +0.000 A 
ATOM     29  N   UNL     1       3.244   5.728  19.970  0.00  0.00    +0.000 NA
ATOM     30  C   UNL     1       4.397   5.433  19.323  0.00  0.00    +0.000 A 
ENDBRANCH  24  25
ENDBRANCH   4  20
TORSDOF 4
ENDMDL
MODEL 6
REMARK VINA RESULT:      -8.4      0.748      1.143
REMARK  Name = 
REMARK  6 active torsions:
REMARK  status: ('A' for Active; 'I' for Inactive)
REMARK    1  A    between atoms: C_1  and  C_2
REMARK    2  A    between atoms: C_6  and  C_7
REMARK    3  A    between atoms: C_10  and  N_11
REMARK    4  A    between atoms: N_14  and  C_15
REMARK    5  A    between atoms: N_14  and  C_16
REMARK    6  A    between atoms: C_20  and  C_21
REMARK                            x       y       z     vdW  Elec       q    Type
REMARK                         _______ _______ _______ _____ _____    ______ ____
ROOT
ATOM      1  N   UNL     1       8.664   8.448  18.915  0.00  0.00    +0.000 N 
ATOM      2  C   UNL     1       7.848   7.828  17.999  0.00  0.00    +0.000 C 
ATOM      3  O   UNL     1       7.261   8.437  17.108  0.00  0.00    +0.000 OA
ATOM      4  N   UNL     1       7.684   6.452  18.118  0.00  0.00    +0.000 N 
ATOM      5  C   UNL     1       8.247   5.613  19.170  0.00  0.00    +0.000 C 
ATOM      6  H   UNL     1       8.970   7.926  19.715  0.00  0.00    +0.000 HD
ENDROOT
BRANCH   1  10
ATOM      7  C   UNL     1       9.596  12.612  18.875  0.00  0.00    +0.000 A 
ATOM      8  C   UNL     1       9.956  11.805  19.961  0.00  0.00    +0.000 A 
ATOM      9  C   UNL     1       9.650  10.445  19.994  0.00  0.00    +0.000 A 
ATOM     10  C   UNL     1       8.992   9.827  18.933  0.00  0.00    +0.000 A 
ATOM     11  C   UNL     1       8.629  10.609  17.834  0.00  0.00    +0.000 A 
ATOM     12  C   UNL     1       8.927  11.982  17.807  0.00  0.00    +0.000 A 
BRANCH   7  18
ATOM     13  C   UNL     1      12.333  16.301  17.376  0.00  0.00    +0.000 C 
ATOM     14  C   UNL     1      11.153  15.829  18.167  0.00  0.00    +0.000 A 
ATOM     15  C   UNL     1      10.301  16.724  18.784  0.00  0.00    +0.000 A 
ATOM     16  C   UNL     1       9.241  16.178  19.465  0.00  0.00    +0.000 A 
ATOM     17  N   UNL     1       9.011  14.858  19.533  0.00  0.00    +0.000 NA
ATOM     18  C   UNL     1       9.886  14.057  18.891  0.00  0.00    +0.000 A 
ATOM     19  N   UNL     1      10.963  14.495  18.216  0.00  0.00    +0.000 NA
ENDBRANCH   7  18
ENDBRANCH   1  10
BRANCH   4  20
ATOM     20  C   UNL     1       6.619   5.816  17.304  0.00  0.00    +0.000 C 
ATOM     21  C   UNL     1       7.169   4.731  16.391  0.00  0.00    +0.000 C 
ATOM     22  C   UNL     1       5.945   3.923  16.045  0.00  0.00    +0.000 C 
ATOM     23  O   UNL     1       5.051   3.992  17.157  0.00  0.00    +0.000 OA
ATOM     24  C   UNL     1       5.453   5.085  18.023  0.00  0.00    +0.000 C 
BRANCH  24  25
ATOM     25  C   UNL     1       4.256   5.958  18.313  0.00  0.00    +0.000 A 
ATOM     26  C   UNL     1       3.426   5.760  19.421  0.00  0.00    +0.000 A 
ATOM     27  C   UNL     1       2.380   6.642  19.673  0.00  0.00    +0.000 A 
ATOM     28  C   UNL     1       2.187   7.694  18.794  0.00  0.00    +0.000 A 
ATOM     29  N   UNL     1       2.946   7.908  17.700  0.00  0.00    +0.000 NA
ATOM     30  C   UNL     1       3.967   7.042  17.490  0.00  0.00    +0.000 A 
ENDBRANCH  24  25
ENDBRANCH   4  20
TORSDOF 4
ENDMDL
MODEL 7
REMARK VINA RESULT:      -8.3      0.963      1.477
REMARK  Name = 
REMARK  6 active torsions:
REMARK  status: ('A' for Active; 'I' for Inactive)
REMARK    1  A    between atoms: C_1  and  C_2
REMARK    2  A    between atoms: C_6  and  C_7
REMARK    3  A    between atoms: C_10  and  N_11
REMARK    4  A    between atoms: N_14  and  C_15
REMARK    5  A    between atoms: N_14  and  C_16
REMARK    6  A    between atoms: C_20  and  C_21
REMARK                            x       y       z     vdW  Elec       q    Type
REMARK                         _______ _______ _______ _____ _____    ______ ____
ROOT
ATOM      1  N   UNL     1       8.728   8.519  18.961  0.00  0.00    +0.000 N 
ATOM      2  C   UNL     1       7.910   7.936  18.023  0.00  0.00    +0.000 C 
ATOM      3  O   UNL     1       7.342   8.577  17.142  0.00  0.00    +0.000 OA
ATOM      4  N   UNL     1       7.720   6.561  18.108  0.00  0.00    +0.000 N 
ATOM      5  C   UNL     1       8.258   5.687  19.144  0.00  0.00    +0.000 C 
ATOM      6  H   UNL     1       9.018   7.973  19.751  0.00  0.00    +0.000 HD
ENDROOT
BRANCH   1  10
ATOM      7  C   UNL     1       9.756  12.660  19.019  0.00  0.00    +0.000 A 
ATOM      8  C   UNL     1       9.869  11.875  20.174  0.00  0.00    +0.000 A 
ATOM      9  C   UNL     1       9.528  10.523  20.173  0.00  0.00    +0.000 A 
ATOM     10  C   UNL     1       9.081   9.891  19.015  0.00  0.00    +0.000 A 
ATOM     11  C   UNL     1       8.969  10.651  17.848  0.00  0.00    +0.000 A 
ATOM     12  C   UNL     1       9.301  12.017  17.852  0.00  0.00    +0.000 A 
BRANCH   7  18
ATOM     13  C   UNL     1      12.333  16.382  17.329  0.00  0.00    +0.000 C 
ATOM     14  C   UNL     1      11.264  15.888  18.254  0.00  0.00    +0.000 A 
ATOM     15  C   UNL     1      10.523  16.763  19.024  0.00  0.00    +0.000 A 
ATOM     16  C   UNL     1       9.557  16.198  19.819  0.00  0.00    +0.000 A 
ATOM     17  N   UNL     1       9.312  14.879  19.857  0.00  0.00    +0.000 NA
ATOM     18  C   UNL     1      10.074  14.099  19.063  0.00  0.00    +0.000 A 
ATOM     19  N   UNL     1      11.057  14.556  18.265  0.00  0.00    +0.000 NA
ENDBRANCH   7  18
ENDBRANCH   1  10
BRANCH   4  20
ATOM     20  C   UNL     1       6.650   5.965  17.269  0.00  0.00    +0.000 C 
ATOM     21  C   UNL     1       7.217   5.164  16.107  0.00  0.00    +0.000 C 
ATOM     22  C   UNL     1       6.059   4.286  15.702  0.00  0.00    +0.000 C 
ATOM     23  O   UNL     1       5.289   4.017  16.874  0.00  0.00    +0.000 OA
ATOM     24  C   UNL     1       5.657   4.959  17.913  0.00  0.00    +0.000 C 
BRANCH  24  25
ATOM     25  C   UNL     1       4.409   5.594  18.478  0.00  0.00    +0.000 A 
ATOM     26  C   UNL     1       3.814   6.726  17.913  0.00  0.00    +0.000 A 
ATOM     27  C   UNL     1       2.624   7.221  18.438  0.00  0.00    +0.000 A 
ATOM     28  C   UNL     1       2.072   6.574  19.529  0.00  0.00    +0.000 A 
ATOM     29  N   UNL     1       2.626   5.495  20.123  0.00  0.00    +0.000 NA
ATOM     30  C   UNL     1       3.775   5.026  19.579  0.00  0.00    +0.000 A 
ENDBRANCH  24  25
ENDBRANCH   4  20
TORSDOF 4
ENDMDL
MODEL 8
REMARK VINA RESULT:      -8.1      5.542      9.340
REMARK  Name = 
REMARK  6 active torsions:
REMARK  status: ('A' for Active; 'I' for Inactive)
REMARK    1  A    between atoms: C_1  and  C_2
REMARK    2  A    between atoms: C_6  and  C_7
REMARK    3  A    between atoms: C_10  and  N_11
REMARK    4  A    between atoms: N_14  and  C_15
REMARK    5  A    between atoms: N_14  and  C_16
REMARK    6  A    between atoms: C_20  and  C_21
REMARK                            x       y       z     vdW  Elec       q    Type
REMARK                         _______ _______ _______ _____ _____    ______ ____
ROOT
ATOM      1  N   UNL     1       1.287   9.157  19.577  0.00  0.00    +0.000 N 
ATOM      2  C   UNL     1       1.655   7.846  19.765  0.00  0.00    +0.000 C 
ATOM      3  O   UNL     1       1.395   7.220  20.790  0.00  0.00    +0.000 OA
ATOM      4  N   UNL     1       2.368   7.230  18.743  0.00  0.00    +0.000 N 
ATOM      5  C   UNL     1       2.821   7.869  17.512  0.00  0.00    +0.000 C 
ATOM      6  H   UNL     1       1.679   9.659  18.802  0.00  0.00    +0.000 HD
ENDROOT
BRANCH   1  10
ATOM      7  C   UNL     1      -1.061  11.570  22.199  0.00  0.00    +0.000 A 
ATOM      8  C   UNL     1      -0.273  10.524  22.696  0.00  0.00    +0.000 A 
ATOM      9  C   UNL     1       0.492   9.721  21.852  0.00  0.00    +0.000 A 
ATOM     10  C   UNL     1       0.521   9.940  20.477  0.00  0.00    +0.000 A 
ATOM     11  C   UNL     1      -0.250  10.983  19.957  0.00  0.00    +0.000 A 
ATOM     12  C   UNL     1      -1.030  11.785  20.808  0.00  0.00    +0.000 A 
BRANCH   7  18
ATOM     13  C   UNL     1      -1.734  15.654  24.692  0.00  0.00    +0.000 C 
ATOM     14  C   UNL     1      -2.256  14.313  24.278  0.00  0.00    +0.000 A 
ATOM     15  C   UNL     1      -3.524  13.898  24.634  0.00  0.00    +0.000 A 
ATOM     16  C   UNL     1      -3.903  12.659  24.181  0.00  0.00    +0.000 A 
ATOM     17  N   UNL     1      -3.118  11.879  23.421  0.00  0.00    +0.000 NA
ATOM     18  C   UNL     1      -1.900  12.369  23.110  0.00  0.00    +0.000 A 
ATOM     19  N   UNL     1      -1.431  13.560  23.522  0.00  0.00    +0.000 NA
ENDBRANCH   7  18
ENDBRANCH   1  10
BRANCH   4  20
ATOM     20  C   UNL     1       2.986   5.912  19.036  0.00  0.00    +0.000 C 
ATOM     21  C   UNL     1       1.944   4.811  19.169  0.00  0.00    +0.000 C 
ATOM     22  C   UNL     1       2.753   3.553  18.977  0.00  0.00    +0.000 C 
ATOM     23  O   UNL     1       3.834   3.862  18.097  0.00  0.00    +0.000 OA
ATOM     24  C   UNL     1       3.986   5.302  18.016  0.00  0.00    +0.000 C 
BRANCH  24  25
ATOM     25  C   UNL     1       5.429   5.668  18.266  0.00  0.00    +0.000 A 
ATOM     26  C   UNL     1       6.159   6.495  17.407  0.00  0.00    +0.000 A 
ATOM     27  C   UNL     1       7.465   6.852  17.729  0.00  0.00    +0.000 A 
ATOM     28  C   UNL     1       8.008   6.355  18.901  0.00  0.00    +0.000 A 
ATOM     29  N   UNL     1       7.349   5.533  19.745  0.00  0.00    +0.000 NA
ATOM     30  C   UNL     1       6.074   5.216  19.413  0.00  0.00    +0.000 A 
ENDBRANCH  24  25
ENDBRANCH   4  20
TORSDOF 4
ENDMDL
MODEL 9
REMARK VINA RESULT:      -8.1      1.124      1.673
REMARK  Name = 
REMARK  6 active torsions:
REMARK  status: ('A' for Active; 'I' for Inactive)
REMARK    1  A    between atoms: C_1  and  C_2
REMARK    2  A    between atoms: C_6  and  C_7
REMARK    3  A    between atoms: C_10  and  N_11
REMARK    4  A    between atoms: N_14  and  C_15
REMARK    5  A    between atoms: N_14  and  C_16
REMARK    6  A    between atoms: C_20  and  C_21
REMARK                            x       y       z     vdW  Elec       q    Type
REMARK                         _______ _______ _______ _____ _____    ______ ____
ROOT
ATOM      1  N   UNL     1       8.537   8.338  18.836  0.00  0.00    +0.000 N 
ATOM      2  C   UNL     1       7.834   7.707  17.837  0.00  0.00    +0.000 C 
ATOM      3  O   UNL     1       7.389   8.301  16.857  0.00  0.00    +0.000 OA
ATOM      4  N   UNL     1       7.616   6.341  17.973  0.00  0.00    +0.000 N 
ATOM      5  C   UNL     1       8.008   5.523  19.116  0.00  0.00    +0.000 C 
ATOM      6  H   UNL     1       8.718   7.835  19.686  0.00  0.00    +0.000 HD
ENDROOT
BRANCH   1  10
ATOM      7  C   UNL     1       9.675  12.447  19.001  0.00  0.00    +0.000 A 
ATOM      8  C   UNL     1       9.034  11.923  17.872  0.00  0.00    +0.000 A 
ATOM      9  C   UNL     1       8.664  10.581  17.798  0.00  0.00    +0.000 A 
ATOM     10  C   UNL     1       8.898   9.708  18.858  0.00  0.00    +0.000 A 
ATOM     11  C   UNL     1       9.529  10.209  20.000  0.00  0.00    +0.000 A 
ATOM     12  C   UNL     1       9.912  11.559  20.069  0.00  0.00    +0.000 A 
BRANCH   7  18
ATOM     13  C   UNL     1      11.125  16.282  21.558  0.00  0.00    +0.000 C 
ATOM     14  C   UNL     1      10.822  15.684  20.220  0.00  0.00    +0.000 A 
ATOM     15  C   UNL     1      11.052  16.386  19.053  0.00  0.00    +0.000 A 
ATOM     16  C   UNL     1      10.756  15.729  17.884  0.00  0.00    +0.000 A 
ATOM     17  N   UNL     1      10.284  14.474  17.843  0.00  0.00    +0.000 NA
ATOM     18  C   UNL     1      10.101  13.857  19.029  0.00  0.00    +0.000 A 
ATOM     19  N   UNL     1      10.343  14.423  20.225  0.00  0.00    +0.000 NA
ENDBRANCH   7  18
ENDBRANCH   1  10
BRANCH   4  20
ATOM     20  C   UNL     1       6.652   5.705  17.041  0.00  0.00    +0.000 C 
ATOM     21  C   UNL     1       7.328   5.207  15.773  0.00  0.00    +0.000 C 
ATOM     22  C   UNL     1       6.335   4.214  15.224  0.00  0.00    +0.000 C 
ATOM     23  O   UNL     1       5.645   3.634  16.332  0.00  0.00    +0.000 OA
ATOM     24  C   UNL     1       5.861   4.452  17.510  0.00  0.00    +0.000 C 
BRANCH  24  25
ATOM     25  C   UNL     1       4.532   4.762  18.156  0.00  0.00    +0.000 A 
ATOM     26  C   UNL     1       4.422   5.455  19.365  0.00  0.00    +0.000 A 
ATOM     27  C   UNL     1       3.166   5.772  19.873  0.00  0.00    +0.000 A 
ATOM     28  C   UNL     1       2.052   5.368  19.159  0.00  0.00    +0.000 A 
ATOM     29  N   UNL     1       2.111   4.675  18.002  0.00  0.00    +0.000 NA
ATOM     30  C   UNL     1       3.348   4.396  17.524  0.00  0.00    +0.000 A 
ENDBRANCH  24  25
ENDBRANCH   4  20
TORSDOF 4
ENDMDL
