MODEL 1
REMARK VINA RESULT:      -8.7      0.000      0.000
REMARK  Name = 
REMARK  5 active torsions:
REMARK  status: ('A' for Active; 'I' for Inactive)
REMARK    1  A    between atoms: C_7  and  S_8
REMARK    2  A    between atoms: S_8  and  N_11
REMARK    3  A    between atoms: N_11  and  C_12
REMARK    4  A    between atoms: C_12  and  C_13
REMARK    5  A    between atoms: C_13  and  C_14
REMARK                            x       y       z     vdW  Elec       q    Type
REMARK                         _______ _______ _______ _____ _____    ______ ____
ROOT
ATOM      1  S   UNL     1       2.380   3.187  20.685  0.00  0.00    +0.000 S 
ATOM      2  O   UNL     1       1.096   2.659  20.285  0.00  0.00    +0.000 OA
ATOM      3  O   UNL     1       3.246   2.472  21.595  0.00  0.00    +0.000 OA
ENDROOT
BRANCH   1  10
ATOM      4  O   UNL     1       7.569   5.095  14.900  0.00  0.00    +0.000 OA
ATOM      5  C   UNL     1       6.946   4.801  15.918  0.00  0.00    +0.000 C 
ATOM      6  C   UNL     1       7.624   4.641  17.262  0.00  0.00    +0.000 C 
ATOM      7  C   UNL     1       6.711   5.060  18.400  0.00  0.00    +0.000 C 
ATOM      8  C   UNL     1       5.371   4.395  18.266  0.00  0.00    +0.000 A 
ATOM      9  C   UNL     1       4.611   4.077  19.391  0.00  0.00    +0.000 A 
ATOM     10  C   UNL     1       3.327   3.548  19.227  0.00  0.00    +0.000 A 
ATOM     11  C   UNL     1       2.789   3.342  17.952  0.00  0.00    +0.000 A 
ATOM     12  C   UNL     1       3.548   3.673  16.827  0.00  0.00    +0.000 A 
ATOM     13  C   UNL     1       4.839   4.181  16.988  0.00  0.00    +0.000 A 
ATOM     14  N   UNL     1       5.613   4.488  15.866  0.00  0.00    +0.000 N 
ATOM     15  H   UNL     1       5.205   4.462  14.941  0.00  0.00    +0.000 HD
ENDBRANCH   1  10
BRANCH   1  16
ATOM     16  N   UNL     1       2.160   4.716  21.353  0.00  0.00    +0.000 NA
ATOM     17  H   UNL     1       2.967   5.004  21.907  0.00  0.00    +0.000 HD
BRANCH  16  18
ATOM     18  C   UNL     1       1.449   5.778  20.620  0.00  0.00    +0.000 C 
BRANCH  18  19
ATOM     19  C   UNL     1       2.322   6.995  20.328  0.00  0.00    +0.000 C 
BRANCH  19  20
ATOM     20  C   UNL     1       1.541   8.280  20.424  0.00  0.00    +0.000 A 
ATOM     21  C   UNL     1       1.253   9.031  19.278  0.00  0.00    +0.000 A 
ATOM     22  C   UNL     1       0.552  10.233  19.386  0.00  0.00    +0.000 A 
ATOM     23  C   UNL     1       0.135  10.689  20.635  0.00  0.00    +0.000 A 
ATOM     24  C   UNL     1       0.387   9.925  21.778  0.00  0.00    +0.000 A 
ATOM     25  C   UNL     1       1.094   8.730  21.675  0.00  0.00    +0.000 A 
ATOM     26  O   UNL     1      -0.015  10.292  23.036  0.00  0.00    +0.000 OA
ATOM     27  C   UNL     1      -0.989  11.340  22.986  0.00  0.00    +0.000 C 
ATOM     28  C   UNL     1      -0.572  12.418  22.000  0.00  0.00    +0.000 C 
ATOM     29  O   UNL     1      -0.518  11.894  20.667  0.00  0.00    +0.000 OA
ENDBRANCH  19  20
ENDBRANCH  18  19
ENDBRANCH  16  18
ENDBRANCH   1  16
TORSDOF 5
ENDMDL
MODEL 2
REMARK VINA RESULT:      -8.6      0.985      1.656
REMARK  Name = 
REMARK  5 active torsions:
REMARK  status: ('A' for Active; 'I' for Inactive)
REMARK    1  A    between atoms: C_7  and  S_8
REMARK    2  A    between atoms: S_8  and  N_11
REMARK    3  A    between atoms: N_11  and  C_12
REMARK    4  A    between atoms: C_12  and  C_13
REMARK    5  A    between atoms: C_13  and  C_14
REMARK                            x       y       z     vdW  Elec       q    Type
REMARK                         _______ _______ _______ _____ _____    ______ ____
ROOT
ATOM      1  S   UNL     1       2.976   3.575  19.865  0.00  0.00    +0.000 S 
ATOM      2  O   UNL     1       1.765   3.381  19.101  0.00  0.00    +0.000 OA
ATOM      3  O   UNL     1       3.541   2.519  20.674  0.00  0.00    +0.000 OA
ENDROOT
BRANCH   1  10
ATOM      4  O   UNL     1       8.133   5.506  14.060  0.00  0.00    +0.000 OA
ATOM      5  C   UNL     1       7.213   5.144  14.789  0.00  0.00    +0.000 C 
ATOM      6  C   UNL     1       5.936   4.543  14.241  0.00  0.00    +0.000 C 
ATOM      7  C   UNL     1       5.352   3.514  15.192  0.00  0.00    +0.000 C 
ATOM      8  C   UNL     1       5.259   4.080  16.580  0.00  0.00    +0.000 A 
ATOM      9  C   UNL     1       4.254   3.672  17.457  0.00  0.00    +0.000 A 
ATOM     10  C   UNL     1       4.254   4.145  18.772  0.00  0.00    +0.000 A 
ATOM     11  C   UNL     1       5.252   5.014  19.226  0.00  0.00    +0.000 A 
ATOM     12  C   UNL     1       6.264   5.412  18.349  0.00  0.00    +0.000 A 
ATOM     13  C   UNL     1       6.253   4.958  17.029  0.00  0.00    +0.000 A 
ATOM     14  N   UNL     1       7.248   5.374  16.139  0.00  0.00    +0.000 N 
ATOM     15  H   UNL     1       8.043   5.903  16.473  0.00  0.00    +0.000 HD
ENDBRANCH   1  10
BRANCH   1  16
ATOM     16  N   UNL     1       2.772   4.893  20.891  0.00  0.00    +0.000 NA
ATOM     17  H   UNL     1       3.665   5.234  21.246  0.00  0.00    +0.000 HD
BRANCH  16  18
ATOM     18  C   UNL     1       1.729   5.904  20.644  0.00  0.00    +0.000 C 
BRANCH  18  19
ATOM     19  C   UNL     1       2.234   7.104  19.848  0.00  0.00    +0.000 C 
BRANCH  19  20
ATOM     20  C   UNL     1       1.450   8.353  20.162  0.00  0.00    +0.000 A 
ATOM     21  C   UNL     1       1.245   9.335  19.186  0.00  0.00    +0.000 A 
ATOM     22  C   UNL     1       0.541  10.498  19.500  0.00  0.00    +0.000 A 
ATOM     23  C   UNL     1       0.038  10.685  20.787  0.00  0.00    +0.000 A 
ATOM     24  C   UNL     1       0.208   9.691  21.755  0.00  0.00    +0.000 A 
ATOM     25  C   UNL     1       0.917   8.533  21.447  0.00  0.00    +0.000 A 
ATOM     26  O   UNL     1      -0.282   9.789  23.031  0.00  0.00    +0.000 OA
ATOM     27  C   UNL     1      -1.248  10.840  23.139  0.00  0.00    +0.000 C 
ATOM     28  C   UNL     1      -0.760  12.096  22.437  0.00  0.00    +0.000 C 
ATOM     29  O   UNL     1      -0.614  11.866  21.031  0.00  0.00    +0.000 OA
ENDBRANCH  19  20
ENDBRANCH  18  19
ENDBRANCH  16  18
ENDBRANCH   1  16
TORSDOF 5
ENDMDL
MODEL 3
REMARK VINA RESULT:      -8.5      5.336      7.315
REMARK  Name = 
REMARK  5 active torsions:
REMARK  status: ('A' for Active; 'I' for Inactive)
REMARK    1  A    between atoms: C_7  and  S_8
REMARK    2  A    between atoms: S_8  and  N_11
REMARK    3  A    between atoms: N_11  and  C_12
REMARK    4  A    between atoms: C_12  and  C_13
REMARK    5  A    between atoms: C_13  and  C_14
REMARK                            x       y       z     vdW  Elec       q    Type
REMARK                         _______ _______ _______ _____ _____    ______ ____
ROOT
ATOM      1  S   UNL     1       7.525   5.155  18.230  0.00  0.00    +0.000 S 
ATOM      2  O   UNL     1       7.657   5.680  19.569  0.00  0.00    +0.000 OA
ATOM      3  O   UNL     1       8.438   4.164  17.708  0.00  0.00    +0.000 OA
ENDROOT
BRANCH   1  10
ATOM      4  O   UNL     1       0.118   2.144  18.554  0.00  0.00    +0.000 OA
ATOM      5  C   UNL     1       1.235   2.630  18.719  0.00  0.00    +0.000 C 
ATOM      6  C   UNL     1       1.746   3.036  20.085  0.00  0.00    +0.000 C 
ATOM      7  C   UNL     1       3.248   2.847  20.196  0.00  0.00    +0.000 C 
ATOM      8  C   UNL     1       3.943   3.486  19.027  0.00  0.00    +0.000 A 
ATOM      9  C   UNL     1       5.225   4.018  19.157  0.00  0.00    +0.000 A 
ATOM     10  C   UNL     1       5.880   4.518  18.028  0.00  0.00    +0.000 A 
ATOM     11  C   UNL     1       5.273   4.484  16.767  0.00  0.00    +0.000 A 
ATOM     12  C   UNL     1       3.993   3.940  16.638  0.00  0.00    +0.000 A 
ATOM     13  C   UNL     1       3.328   3.460  17.769  0.00  0.00    +0.000 A 
ATOM     14  N   UNL     1       2.036   2.939  17.651  0.00  0.00    +0.000 N 
ATOM     15  H   UNL     1       1.625   2.795  16.739  0.00  0.00    +0.000 HD
ENDBRANCH   1  10
BRANCH   1  16
ATOM     16  N   UNL     1       7.547   6.434  17.135  0.00  0.00    +0.000 NA
ATOM     17  H   UNL     1       7.051   6.200  16.275  0.00  0.00    +0.000 HD
BRANCH  16  18
ATOM     18  C   UNL     1       7.464   7.833  17.588  0.00  0.00    +0.000 C 
BRANCH  18  19
ATOM     19  C   UNL     1       8.557   8.208  18.584  0.00  0.00    +0.000 C 
BRANCH  19  20
ATOM     20  C   UNL     1       8.777   9.698  18.638  0.00  0.00    +0.000 A 
ATOM     21  C   UNL     1       8.256  10.536  17.646  0.00  0.00    +0.000 A 
ATOM     22  C   UNL     1       8.492  11.911  17.695  0.00  0.00    +0.000 A 
ATOM     23  C   UNL     1       9.246  12.453  18.735  0.00  0.00    +0.000 A 
ATOM     24  C   UNL     1       9.736  11.626  19.749  0.00  0.00    +0.000 A 
ATOM     25  C   UNL     1       9.511  10.253  19.698  0.00  0.00    +0.000 A 
ATOM     26  O   UNL     1      10.459  12.088  20.818  0.00  0.00    +0.000 OA
ATOM     27  C   UNL     1      10.355  13.511  20.940  0.00  0.00    +0.000 C 
ATOM     28  C   UNL     1      10.523  14.184  19.588  0.00  0.00    +0.000 C 
ATOM     29  O   UNL     1       9.464  13.807  18.699  0.00  0.00    +0.000 OA
ENDBRANCH  19  20
ENDBRANCH  18  19
ENDBRANCH  16  18
ENDBRANCH   1  16
TORSDOF 5
ENDMDL
MODEL 4
REMARK VINA RESULT:      -8.5      1.821      2.602
REMARK  Name = 
REMARK  5 active torsions:
REMARK  status: ('A' for Active; 'I' for Inactive)
REMARK    1  A    between atoms: C_7  and  S_8
REMARK    2  A    between atoms: S_8  and  N_11
REMARK    3  A    between atoms: N_11  and  C_12
REMARK    4  A    between atoms: C_12  and  C_13
REMARK    5  A    between atoms: C_13  and  C_14
REMARK                            x       y       z     vdW  Elec       q    Type
REMARK                         _______ _______ _______ _____ _____    ______ ____
ROOT
ATOM      1  S   UNL     1       4.061   3.281  18.817  0.00  0.00    +0.000 S 
ATOM      2  O   UNL     1       3.129   2.427  18.117  0.00  0.00    +0.000 OA
ATOM      3  O   UNL     1       4.852   2.797  19.925  0.00  0.00    +0.000 OA
ENDROOT
BRANCH   1  10
ATOM      4  O   UNL     1       8.495   5.803  12.652  0.00  0.00    +0.000 OA
ATOM      5  C   UNL     1       7.677   5.343  13.446  0.00  0.00    +0.000 C 
ATOM      6  C   UNL     1       6.414   4.643  12.992  0.00  0.00    +0.000 C 
ATOM      7  C   UNL     1       6.009   3.544  13.957  0.00  0.00    +0.000 C 
ATOM      8  C   UNL     1       5.991   4.066  15.365  0.00  0.00    +0.000 A 
ATOM      9  C   UNL     1       5.107   3.549  16.312  0.00  0.00    +0.000 A 
ATOM     10  C   UNL     1       5.182   3.990  17.636  0.00  0.00    +0.000 A 
ATOM     11  C   UNL     1       6.136   4.934  18.030  0.00  0.00    +0.000 A 
ATOM     12  C   UNL     1       7.028   5.442  17.082  0.00  0.00    +0.000 A 
ATOM     13  C   UNL     1       6.940   5.020  15.753  0.00  0.00    +0.000 A 
ATOM     14  N   UNL     1       7.812   5.544  14.795  0.00  0.00    +0.000 N 
ATOM     15  H   UNL     1       8.584   6.134  15.075  0.00  0.00    +0.000 HD
ENDBRANCH   1  10
BRANCH   1  16
ATOM     16  N   UNL     1       3.240   4.637  19.385  0.00  0.00    +0.000 NA
ATOM     17  H   UNL     1       3.785   5.139  20.087  0.00  0.00    +0.000 HD
BRANCH  16  18
ATOM     18  C   UNL     1       2.398   5.453  18.494  0.00  0.00    +0.000 C 
BRANCH  18  19
ATOM     19  C   UNL     1       2.984   6.833  18.210  0.00  0.00    +0.000 C 
BRANCH  19  20
ATOM     20  C   UNL     1       2.127   7.933  18.780  0.00  0.00    +0.000 A 
ATOM     21  C   UNL     1       1.654   8.968  17.966  0.00  0.00    +0.000 A 
ATOM     22  C   UNL     1       0.884   9.995  18.513  0.00  0.00    +0.000 A 
ATOM     23  C   UNL     1       0.582   9.992  19.874  0.00  0.00    +0.000 A 
ATOM     24  C   UNL     1       1.019   8.942  20.686  0.00  0.00    +0.000 A 
ATOM     25  C   UNL     1       1.796   7.920  20.144  0.00  0.00    +0.000 A 
ATOM     26  O   UNL     1       0.739   8.853  22.024  0.00  0.00    +0.000 OA
ATOM     27  C   UNL     1      -0.309   9.754  22.397  0.00  0.00    +0.000 C 
ATOM     28  C   UNL     1      -0.089  11.124  21.777  0.00  0.00    +0.000 C 
ATOM     29  O   UNL     1      -0.151  11.050  20.348  0.00  0.00    +0.000 OA
ENDBRANCH  19  20
ENDBRANCH  18  19
ENDBRANCH  16  18
ENDBRANCH   1  16
TORSDOF 5
ENDMDL
MODEL 5
REMARK VINA RESULT:      -8.4      1.749      2.673
REMARK  Name = 
REMARK  5 active torsions:
REMARK  status: ('A' for Active; 'I' for Inactive)
REMARK    1  A    between atoms: C_7  and  S_8
REMARK    2  A    between atoms: S_8  and  N_11
REMARK    3  A    between atoms: N_11  and  C_12
REMARK    4  A    between atoms: C_12  and  C_13
REMARK    5  A    between atoms: C_13  and  C_14
REMARK                            x       y       z     vdW  Elec       q    Type
REMARK                         _______ _______ _______ _____ _____    ______ ____
ROOT
ATOM      1  S   UNL     1       2.951   2.612  19.372  0.00  0.00    +0.000 S 
ATOM      2  O   UNL     1       2.577   1.387  18.703  0.00  0.00    +0.000 OA
ATOM      3  O   UNL     1       3.357   2.628  20.758  0.00  0.00    +0.000 OA
ENDROOT
BRANCH   1  10
ATOM      4  O   UNL     1       8.185   5.683  14.155  0.00  0.00    +0.000 OA
ATOM      5  C   UNL     1       7.259   5.173  14.781  0.00  0.00    +0.000 C 
ATOM      6  C   UNL     1       6.014   4.648  14.099  0.00  0.00    +0.000 C 
ATOM      7  C   UNL     1       5.439   3.451  14.833  0.00  0.00    +0.000 C 
ATOM      8  C   UNL     1       5.296   3.756  16.297  0.00  0.00    +0.000 A 
ATOM      9  C   UNL     1       4.283   3.172  17.057  0.00  0.00    +0.000 A 
ATOM     10  C   UNL     1       4.237   3.402  18.435  0.00  0.00    +0.000 A 
ATOM     11  C   UNL     1       5.197   4.200  19.066  0.00  0.00    +0.000 A 
ATOM     12  C   UNL     1       6.218   4.774  18.304  0.00  0.00    +0.000 A 
ATOM     13  C   UNL     1       6.252   4.564  16.923  0.00  0.00    +0.000 A 
ATOM     14  N   UNL     1       7.255   5.158  16.152  0.00  0.00    +0.000 N 
ATOM     15  H   UNL     1       8.025   5.639  16.597  0.00  0.00    +0.000 HD
ENDBRANCH   1  10
BRANCH   1  16
ATOM     16  N   UNL     1       1.688   3.716  19.240  0.00  0.00    +0.000 NA
ATOM     17  H   UNL     1       0.977   3.396  18.582  0.00  0.00    +0.000 HD
BRANCH  16  18
ATOM     18  C   UNL     1       1.213   4.482  20.406  0.00  0.00    +0.000 C 
BRANCH  18  19
ATOM     19  C   UNL     1       2.194   5.561  20.855  0.00  0.00    +0.000 C 
BRANCH  19  20
ATOM     20  C   UNL     1       2.118   6.785  19.980  0.00  0.00    +0.000 A 
ATOM     21  C   UNL     1       2.640   6.772  18.682  0.00  0.00    +0.000 A 
ATOM     22  C   UNL     1       2.586   7.922  17.893  0.00  0.00    +0.000 A 
ATOM     23  C   UNL     1       2.011   9.088  18.396  0.00  0.00    +0.000 A 
ATOM     24  C   UNL     1       1.454   9.097  19.678  0.00  0.00    +0.000 A 
ATOM     25  C   UNL     1       1.514   7.953  20.471  0.00  0.00    +0.000 A 
ATOM     26  O   UNL     1       0.846  10.193  20.231  0.00  0.00    +0.000 OA
ATOM     27  C   UNL     1       0.556  11.183  19.238  0.00  0.00    +0.000 C 
ATOM     28  C   UNL     1       1.745  11.385  18.313  0.00  0.00    +0.000 C 
ATOM     29  O   UNL     1       2.024  10.188  17.577  0.00  0.00    +0.000 OA
ENDBRANCH  19  20
ENDBRANCH  18  19
ENDBRANCH  16  18
ENDBRANCH   1  16
TORSDOF 5
ENDMDL
MODEL 6
REMARK VINA RESULT:      -8.4      0.782      1.583
REMARK  Name = 
REMARK  5 active torsions:
REMARK  status: ('A' for Active; 'I' for Inactive)
REMARK    1  A    between atoms: C_7  and  S_8
REMARK    2  A    between atoms: S_8  and  N_11
REMARK    3  A    between atoms: N_11  and  C_12
REMARK    4  A    between atoms: C_12  and  C_13
REMARK    5  A    between atoms: C_13  and  C_14
REMARK                            x       y       z     vdW  Elec       q    Type
REMARK                         _______ _______ _______ _____ _____    ______ ____
ROOT
ATOM      1  S   UNL     1       2.500   3.097  20.667  0.00  0.00    +0.000 S 
ATOM      2  O   UNL     1       1.221   2.549  20.280  0.00  0.00    +0.000 OA
ATOM      3  O   UNL     1       3.395   2.387  21.552  0.00  0.00    +0.000 OA
ENDROOT
BRANCH   1  10
ATOM      4  O   UNL     1       7.563   5.165  14.826  0.00  0.00    +0.000 OA
ATOM      5  C   UNL     1       6.963   4.842  15.848  0.00  0.00    +0.000 C 
ATOM      6  C   UNL     1       7.670   4.640  17.171  0.00  0.00    +0.000 C 
ATOM      7  C   UNL     1       6.784   5.028  18.341  0.00  0.00    +0.000 C 
ATOM      8  C   UNL     1       5.439   4.370  18.218  0.00  0.00    +0.000 A 
ATOM      9  C   UNL     1       4.704   4.020  19.350  0.00  0.00    +0.000 A 
ATOM     10  C   UNL     1       3.416   3.499  19.199  0.00  0.00    +0.000 A 
ATOM     11  C   UNL     1       2.848   3.332  17.932  0.00  0.00    +0.000 A 
ATOM     12  C   UNL     1       3.582   3.694  16.800  0.00  0.00    +0.000 A 
ATOM     13  C   UNL     1       4.878   4.194  16.947  0.00  0.00    +0.000 A 
ATOM     14  N   UNL     1       5.628   4.534  15.817  0.00  0.00    +0.000 N 
ATOM     15  H   UNL     1       5.199   4.535  14.901  0.00  0.00    +0.000 HD
ENDBRANCH   1  10
BRANCH   1  16
ATOM     16  N   UNL     1       2.260   4.612  21.361  0.00  0.00    +0.000 NA
ATOM     17  H   UNL     1       3.096   4.939  21.845  0.00  0.00    +0.000 HD
BRANCH  16  18
ATOM     18  C   UNL     1       1.435   5.637  20.699  0.00  0.00    +0.000 C 
BRANCH  18  19
ATOM     19  C   UNL     1       2.249   6.814  20.170  0.00  0.00    +0.000 C 
BRANCH  19  20
ATOM     20  C   UNL     1       1.573   8.131  20.449  0.00  0.00    +0.000 A 
ATOM     21  C   UNL     1       1.244   8.506  21.756  0.00  0.00    +0.000 A 
ATOM     22  C   UNL     1       0.594   9.718  21.996  0.00  0.00    +0.000 A 
ATOM     23  C   UNL     1       0.271  10.560  20.932  0.00  0.00    +0.000 A 
ATOM     24  C   UNL     1       0.631  10.208  19.628  0.00  0.00    +0.000 A 
ATOM     25  C   UNL     1       1.272   8.996  19.385  0.00  0.00    +0.000 A 
ATOM     26  O   UNL     1       0.375  10.995  18.535  0.00  0.00    +0.000 OA
ATOM     27  C   UNL     1       0.020  12.326  18.925  0.00  0.00    +0.000 C 
ATOM     28  C   UNL     1      -0.979  12.305  20.070  0.00  0.00    +0.000 C 
ATOM     29  O   UNL     1      -0.396  11.717  21.240  0.00  0.00    +0.000 OA
ENDBRANCH  19  20
ENDBRANCH  18  19
ENDBRANCH  16  18
ENDBRANCH   1  16
TORSDOF 5
ENDMDL
MODEL 7
REMARK VINA RESULT:      -8.2      5.526      7.690
REMARK  Name = 
REMARK  5 active torsions:
REMARK  status: ('A' for Active; 'I' for Inactive)
REMARK    1  A    between atoms: C_7  and  S_8
REMARK    2  A    between atoms: S_8  and  N_11
REMARK    3  A    between atoms: N_11  and  C_12
REMARK    4  A    between atoms: C_12  and  C_13
REMARK    5  A    between atoms: C_13  and  C_14
REMARK                            x       y       z     vdW  Elec       q    Type
REMARK                         _______ _______ _______ _____ _____    ______ ____
ROOT
ATOM      1  S   UNL     1       7.186   5.814  18.029  0.00  0.00    +0.000 S 
ATOM      2  O   UNL     1       7.769   5.621  19.337  0.00  0.00    +0.000 OA
ATOM      3  O   UNL     1       7.905   5.485  16.820  0.00  0.00    +0.000 OA
ENDROOT
BRANCH   1  10
ATOM      4  O   UNL     1       0.048   2.314  18.940  0.00  0.00    +0.000 OA
ATOM      5  C   UNL     1       1.096   2.953  18.986  0.00  0.00    +0.000 C 
ATOM      6  C   UNL     1       1.412   3.909  20.117  0.00  0.00    +0.000 C 
ATOM      7  C   UNL     1       2.901   3.954  20.409  0.00  0.00    +0.000 C 
ATOM      8  C   UNL     1       3.675   4.172  19.141  0.00  0.00    +0.000 A 
ATOM      9  C   UNL     1       4.889   4.859  19.149  0.00  0.00    +0.000 A 
ATOM     10  C   UNL     1       5.630   4.960  17.968  0.00  0.00    +0.000 A 
ATOM     11  C   UNL     1       5.179   4.375  16.780  0.00  0.00    +0.000 A 
ATOM     12  C   UNL     1       3.969   3.677  16.778  0.00  0.00    +0.000 A 
ATOM     13  C   UNL     1       3.215   3.594  17.951  0.00  0.00    +0.000 A 
ATOM     14  N   UNL     1       1.990   2.920  17.948  0.00  0.00    +0.000 N 
ATOM     15  H   UNL     1       1.701   2.390  17.138  0.00  0.00    +0.000 HD
ENDBRANCH   1  10
BRANCH   1  16
ATOM     16  N   UNL     1       6.715   7.422  17.871  0.00  0.00    +0.000 NA
ATOM     17  H   UNL     1       5.936   7.648  18.491  0.00  0.00    +0.000 HD
BRANCH  16  18
ATOM     18  C   UNL     1       7.700   8.491  17.631  0.00  0.00    +0.000 C 
BRANCH  18  19
ATOM     19  C   UNL     1       8.760   8.586  18.724  0.00  0.00    +0.000 C 
BRANCH  19  20
ATOM     20  C   UNL     1       9.136  10.016  19.016  0.00  0.00    +0.000 A 
ATOM     21  C   UNL     1       9.180  10.492  20.331  0.00  0.00    +0.000 A 
ATOM     22  C   UNL     1       9.503  11.826  20.584  0.00  0.00    +0.000 A 
ATOM     23  C   UNL     1       9.784  12.689  19.525  0.00  0.00    +0.000 A 
ATOM     24  C   UNL     1       9.778  12.211  18.212  0.00  0.00    +0.000 A 
ATOM     25  C   UNL     1       9.447  10.882  17.956  0.00  0.00    +0.000 A 
ATOM     26  O   UNL     1      10.072  12.989  17.123  0.00  0.00    +0.000 OA
ATOM     27  C   UNL     1      10.699  14.215  17.514  0.00  0.00    +0.000 C 
ATOM     28  C   UNL     1       9.975  14.840  18.695  0.00  0.00    +0.000 C 
ATOM     29  O   UNL     1      10.060  13.993  19.847  0.00  0.00    +0.000 OA
ENDBRANCH  19  20
ENDBRANCH  18  19
ENDBRANCH  16  18
ENDBRANCH   1  16
TORSDOF 5
ENDMDL
MODEL 8
REMARK VINA RESULT:      -8.2      1.485      2.352
REMARK  Name = 
REMARK  5 active torsions:
REMARK  status: ('A' for Active; 'I' for Inactive)
REMARK    1  A    between atoms: C_7  and  S_8
REMARK    2  A    between atoms: S_8  and  N_11
REMARK    3  A    between atoms: N_11  and  C_12
REMARK    4  A    between atoms: C_12  and  C_13
REMARK    5  A    between atoms: C_13  and  C_14
REMARK                            x       y       z     vdW  Elec       q    Type
REMARK                         _______ _______ _______ _____ _____    ______ ____
ROOT
ATOM      1  S   UNL     1       2.612   4.280  19.332  0.00  0.00    +0.000 S 
ATOM      2  O   UNL     1       1.327   4.337  18.675  0.00  0.00    +0.000 OA
ATOM      3  O   UNL     1       3.089   3.073  19.967  0.00  0.00    +0.000 OA
ENDROOT
BRANCH   1  10
ATOM      4  O   UNL     1       8.041   5.546  13.591  0.00  0.00    +0.000 OA
ATOM      5  C   UNL     1       7.138   5.191  14.345  0.00  0.00    +0.000 C 
ATOM      6  C   UNL     1       6.224   4.028  14.020  0.00  0.00    +0.000 C 
ATOM      7  C   UNL     1       5.784   3.297  15.275  0.00  0.00    +0.000 C 
ATOM      8  C   UNL     1       5.258   4.272  16.290  0.00  0.00    +0.000 A 
ATOM      9  C   UNL     1       4.260   3.902  17.191  0.00  0.00    +0.000 A 
ATOM     10  C   UNL     1       3.862   4.802  18.184  0.00  0.00    +0.000 A 
ATOM     11  C   UNL     1       4.456   6.064  18.295  0.00  0.00    +0.000 A 
ATOM     12  C   UNL     1       5.464   6.427  17.398  0.00  0.00    +0.000 A 
ATOM     13  C   UNL     1       5.847   5.538  16.391  0.00  0.00    +0.000 A 
ATOM     14  N   UNL     1       6.836   5.906  15.474  0.00  0.00    +0.000 N 
ATOM     15  H   UNL     1       7.362   6.760  15.605  0.00  0.00    +0.000 HD
ENDBRANCH   1  10
BRANCH   1  16
ATOM     16  N   UNL     1       2.682   5.485  20.505  0.00  0.00    +0.000 NA
ATOM     17  H   UNL     1       3.614   5.895  20.567  0.00  0.00    +0.000 HD
BRANCH  16  18
ATOM     18  C   UNL     1       1.544   6.390  20.745  0.00  0.00    +0.000 C 
BRANCH  18  19
ATOM     19  C   UNL     1       1.808   7.821  20.285  0.00  0.00    +0.000 C 
BRANCH  19  20
ATOM     20  C   UNL     1       0.961   8.815  21.037  0.00  0.00    +0.000 A 
ATOM     21  C   UNL     1       0.855   8.756  22.432  0.00  0.00    +0.000 A 
ATOM     22  C   UNL     1       0.046   9.667  23.112  0.00  0.00    +0.000 A 
ATOM     23  C   UNL     1      -0.659  10.640  22.404  0.00  0.00    +0.000 A 
ATOM     24  C   UNL     1      -0.528  10.727  21.016  0.00  0.00    +0.000 A 
ATOM     25  C   UNL     1       0.272   9.814  20.333  0.00  0.00    +0.000 A 
ATOM     26  O   UNL     1      -1.164  11.672  20.254  0.00  0.00    +0.000 OA
ATOM     27  C   UNL     1      -1.683  12.731  21.066  0.00  0.00    +0.000 C 
ATOM     28  C   UNL     1      -2.386  12.175  22.294  0.00  0.00    +0.000 C 
ATOM     29  O   UNL     1      -1.459  11.478  23.136  0.00  0.00    +0.000 OA
ENDBRANCH  19  20
ENDBRANCH  18  19
ENDBRANCH  16  18
ENDBRANCH   1  16
TORSDOF 5
ENDMDL
MODEL 9
REMARK VINA RESULT:      -8.2      2.048      2.973
REMARK  Name = 
REMARK  5 active torsions:
REMARK  status: ('A' for Active; 'I' for Inactive)
REMARK    1  A    between atoms: C_7  and  S_8
REMARK    2  A    between atoms: S_8  and  N_11
REMARK    3  A    between atoms: N_11  and  C_12
REMARK    4  A    between atoms: C_12  and  C_13
REMARK    5  A    between atoms: C_13  and  C_14
REMARK                            x       y       z     vdW  Elec       q    Type
REMARK                         _______ _______ _______ _____ _____    ______ ____
ROOT
ATOM      1  S   UNL     1       3.105   2.977  17.749  0.00  0.00    +0.000 S 
ATOM      2  O   UNL     1       1.873   3.390  17.116  0.00  0.00    +0.000 OA
ATOM      3  O   UNL     1       3.461   1.583  17.881  0.00  0.00    +0.000 OA
ENDROOT
BRANCH   1  10
ATOM      4  O   UNL     1       8.891   6.010  13.128  0.00  0.00    +0.000 OA
ATOM      5  C   UNL     1       7.917   5.472  13.651  0.00  0.00    +0.000 C 
ATOM      6  C   UNL     1       6.871   4.734  12.844  0.00  0.00    +0.000 C 
ATOM      7  C   UNL     1       6.285   3.570  13.624  0.00  0.00    +0.000 C 
ATOM      8  C   UNL     1       5.852   4.022  14.989  0.00  0.00    +0.000 A 
ATOM      9  C   UNL     1       4.776   3.417  15.639  0.00  0.00    +0.000 A 
ATOM     10  C   UNL     1       4.460   3.796  16.946  0.00  0.00    +0.000 A 
ATOM     11  C   UNL     1       5.212   4.766  17.619  0.00  0.00    +0.000 A 
ATOM     12  C   UNL     1       6.296   5.362  16.969  0.00  0.00    +0.000 A 
ATOM     13  C   UNL     1       6.600   5.001  15.655  0.00  0.00    +0.000 A 
ATOM     14  N   UNL     1       7.667   5.614  14.991  0.00  0.00    +0.000 N 
ATOM     15  H   UNL     1       8.295   6.227  15.492  0.00  0.00    +0.000 HD
ENDBRANCH   1  10
BRANCH   1  16
ATOM     16  N   UNL     1       3.167   3.625  19.301  0.00  0.00    +0.000 NA
ATOM     17  H   UNL     1       4.082   4.031  19.502  0.00  0.00    +0.000 HD
BRANCH  16  18
ATOM     18  C   UNL     1       2.000   4.295  19.901  0.00  0.00    +0.000 C 
BRANCH  18  19
ATOM     19  C   UNL     1       2.375   5.500  20.758  0.00  0.00    +0.000 C 
BRANCH  19  20
ATOM     20  C   UNL     1       2.094   6.800  20.050  0.00  0.00    +0.000 A 
ATOM     21  C   UNL     1       2.515   7.003  18.731  0.00  0.00    +0.000 A 
ATOM     22  C   UNL     1       2.272   8.222  18.097  0.00  0.00    +0.000 A 
ATOM     23  C   UNL     1       1.605   9.242  18.776  0.00  0.00    +0.000 A 
ATOM     24  C   UNL     1       1.148   9.031  20.080  0.00  0.00    +0.000 A 
ATOM     25  C   UNL     1       1.398   7.819  20.718  0.00  0.00    +0.000 A 
ATOM     26  O   UNL     1       0.461   9.973  20.801  0.00  0.00    +0.000 OA
ATOM     27  C   UNL     1      -0.014  11.028  19.959  0.00  0.00    +0.000 C 
ATOM     28  C   UNL     1       1.072  11.482  18.996  0.00  0.00    +0.000 C 
ATOM     29  O   UNL     1       1.431  10.422  18.101  0.00  0.00    +0.000 OA
ENDBRANCH  19  20
ENDBRANCH  18  19
ENDBRANCH  16  18
ENDBRANCH   1  16
TORSDOF 5
ENDMDL
