MODEL 1
REMARK VINA RESULT:      -9.4      0.000      0.000
REMARK  Name = 
REMARK  5 active torsions:
REMARK  status: ('A' for Active; 'I' for Inactive)
REMARK    1  A    between atoms: C_1  and  C_2
REMARK    2  A    between atoms: C_2  and  C_3
REMARK    3  A    between atoms: C_7  and  N_8
REMARK    4  A    between atoms: C_9  and  C_11
REMARK    5  A    between atoms: C_15  and  N_16
REMARK                            x       y       z     vdW  Elec       q    Type
REMARK                         _______ _______ _______ _____ _____    ______ ____
ROOT
ATOM      1  C   UNL     1       4.967   5.533  17.191  0.00  0.00    +0.000 A 
ATOM      2  C   UNL     1       4.425   4.237  17.143  0.00  0.00    +0.000 A 
ATOM      3  C   UNL     1       3.111   3.997  17.529  0.00  0.00    +0.000 A 
ATOM      4  C   UNL     1       2.328   5.037  18.012  0.00  0.00    +0.000 A 
ATOM      5  C   UNL     1       2.842   6.329  18.133  0.00  0.00    +0.000 A 
ATOM      6  C   UNL     1       4.153   6.576  17.691  0.00  0.00    +0.000 A 
ENDROOT
BRANCH   1   8
ATOM      7  C   UNL     1       6.780   4.974  15.530  0.00  0.00    +0.000 C 
ATOM      8  C   UNL     1       6.424   5.766  16.783  0.00  0.00    +0.000 C 
ATOM      9  N   UNL     1       6.708   7.181  16.606  0.00  0.00    +0.000 N 
ATOM     10  C   UNL     1       7.456   7.700  17.629  0.00  0.00    +0.000 C 
ATOM     11  O   UNL     1       7.728   8.878  17.762  0.00  0.00    +0.000 OA
ATOM     12  N   UNL     1       7.860   6.689  18.426  0.00  0.00    +0.000 N 
ATOM     13  C   UNL     1       7.423   5.497  17.938  0.00  0.00    +0.000 C 
ATOM     14  O   UNL     1       7.758   4.406  18.377  0.00  0.00    +0.000 OA
ATOM     15  H   UNL     1       6.276   7.795  15.931  0.00  0.00    +0.000 HD
ATOM     16  H   UNL     1       8.497   6.804  19.195  0.00  0.00    +0.000 HD
ENDBRANCH   1   8
BRANCH   5  17
ATOM     17  N   UNL     1       2.110   7.391  18.721  0.00  0.00    +0.000 N 
ATOM     18  C   UNL     1       1.910   8.640  18.158  0.00  0.00    +0.000 C 
ATOM     19  O   UNL     1       2.394   9.061  17.110  0.00  0.00    +0.000 OA
ATOM     20  H   UNL     1       1.569   7.201  19.560  0.00  0.00    +0.000 HD
BRANCH  18  21
ATOM     21  C   UNL     1       0.958   9.526  18.884  0.00  0.00    +0.000 A 
ATOM     22  C   UNL     1       1.250   9.895  20.188  0.00  0.00    +0.000 A 
ATOM     23  N   UNL     1       0.467  10.745  20.882  0.00  0.00    +0.000 NA
ATOM     24  C   UNL     1      -0.618  11.197  20.199  0.00  0.00    +0.000 A 
ATOM     25  C   UNL     1      -0.954  10.826  18.886  0.00  0.00    +0.000 A 
ATOM     26  N   UNL     1      -0.139   9.975  18.212  0.00  0.00    +0.000 NA
BRANCH  25  27
ATOM     27  N   UNL     1      -2.073  11.290  18.246  0.00  0.00    +0.000 N 
ATOM     28  C   UNL     1      -2.260  11.056  16.821  0.00  0.00    +0.000 C 
ATOM     29  C   UNL     1      -3.764  11.217  16.589  0.00  0.00    +0.000 C 
ATOM     30  C   UNL     1      -4.386  11.197  17.977  0.00  0.00    +0.000 C 
ATOM     31  C   UNL     1      -3.295  11.758  18.879  0.00  0.00    +0.000 C 
ENDBRANCH  25  27
ENDBRANCH  18  21
ENDBRANCH   5  17
TORSDOF 4
ENDMDL
MODEL 2
REMARK VINA RESULT:      -9.4      1.403      1.568
REMARK  Name = 
REMARK  5 active torsions:
REMARK  status: ('A' for Active; 'I' for Inactive)
REMARK    1  A    between atoms: C_1  and  C_2
REMARK    2  A    between atoms: C_2  and  C_3
REMARK    3  A    between atoms: C_7  and  N_8
REMARK    4  A    between atoms: C_9  and  C_11
REMARK    5  A    between atoms: C_15  and  N_16
REMARK                            x       y       z     vdW  Elec       q    Type
REMARK                         _______ _______ _______ _____ _____    ______ ____
ROOT
ATOM      1  C   UNL     1       5.061   5.490  17.163  0.00  0.00    +0.000 A 
ATOM      2  C   UNL     1       4.506   4.209  16.997  0.00  0.00    +0.000 A 
ATOM      3  C   UNL     1       3.187   3.950  17.350  0.00  0.00    +0.000 A 
ATOM      4  C   UNL     1       2.410   4.952  17.916  0.00  0.00    +0.000 A 
ATOM      5  C   UNL     1       2.936   6.223  18.154  0.00  0.00    +0.000 A 
ATOM      6  C   UNL     1       4.253   6.494  17.747  0.00  0.00    +0.000 A 
ENDROOT
BRANCH   1   8
ATOM      7  C   UNL     1       6.922   4.949  15.549  0.00  0.00    +0.000 C 
ATOM      8  C   UNL     1       6.524   5.742  16.789  0.00  0.00    +0.000 C 
ATOM      9  N   UNL     1       6.791   7.160  16.611  0.00  0.00    +0.000 N 
ATOM     10  C   UNL     1       7.506   7.696  17.647  0.00  0.00    +0.000 C 
ATOM     11  O   UNL     1       7.758   8.879  17.780  0.00  0.00    +0.000 OA
ATOM     12  N   UNL     1       7.906   6.696  18.460  0.00  0.00    +0.000 N 
ATOM     13  C   UNL     1       7.499   5.495  17.969  0.00  0.00    +0.000 C 
ATOM     14  O   UNL     1       7.839   4.411  18.422  0.00  0.00    +0.000 OA
ATOM     15  H   UNL     1       6.366   7.764  15.921  0.00  0.00    +0.000 HD
ATOM     16  H   UNL     1       8.522   6.825  19.244  0.00  0.00    +0.000 HD
ENDBRANCH   1   8
BRANCH   5  17
ATOM     17  N   UNL     1       2.209   7.236  18.827  0.00  0.00    +0.000 N 
ATOM     18  C   UNL     1       1.798   7.192  20.149  0.00  0.00    +0.000 C 
ATOM     19  O   UNL     1       1.919   6.247  20.925  0.00  0.00    +0.000 OA
ATOM     20  H   UNL     1       2.083   8.132  18.364  0.00  0.00    +0.000 HD
BRANCH  18  21
ATOM     21  C   UNL     1       1.206   8.450  20.680  0.00  0.00    +0.000 A 
ATOM     22  C   UNL     1       1.498   8.830  21.980  0.00  0.00    +0.000 A 
ATOM     23  N   UNL     1       1.049   9.989  22.504  0.00  0.00    +0.000 NA
ATOM     24  C   UNL     1       0.295  10.736  21.655  0.00  0.00    +0.000 A 
ATOM     25  C   UNL     1      -0.037  10.371  20.340  0.00  0.00    +0.000 A 
ATOM     26  N   UNL     1       0.439   9.201  19.840  0.00  0.00    +0.000 NA
BRANCH  25  27
ATOM     27  N   UNL     1      -0.822  11.148  19.528  0.00  0.00    +0.000 N 
ATOM     28  C   UNL     1      -1.014  10.794  18.128  0.00  0.00    +0.000 C 
ATOM     29  C   UNL     1      -2.296  11.518  17.712  0.00  0.00    +0.000 C 
ATOM     30  C   UNL     1      -2.941  11.968  19.015  0.00  0.00    +0.000 C 
ATOM     31  C   UNL     1      -1.765  12.165  19.960  0.00  0.00    +0.000 C 
ENDBRANCH  25  27
ENDBRANCH  18  21
ENDBRANCH   5  17
TORSDOF 4
ENDMDL
MODEL 3
REMARK VINA RESULT:      -9.3      1.904      2.340
REMARK  Name = 
REMARK  5 active torsions:
REMARK  status: ('A' for Active; 'I' for Inactive)
REMARK    1  A    between atoms: C_1  and  C_2
REMARK    2  A    between atoms: C_2  and  C_3
REMARK    3  A    between atoms: C_7  and  N_8
REMARK    4  A    between atoms: C_9  and  C_11
REMARK    5  A    between atoms: C_15  and  N_16
REMARK                            x       y       z     vdW  Elec       q    Type
REMARK                         _______ _______ _______ _____ _____    ______ ____
ROOT
ATOM      1  C   UNL     1       4.996   5.433  17.164  0.00  0.00    +0.000 A 
ATOM      2  C   UNL     1       4.383   4.173  17.044  0.00  0.00    +0.000 A 
ATOM      3  C   UNL     1       3.054   3.987  17.408  0.00  0.00    +0.000 A 
ATOM      4  C   UNL     1       2.325   5.043  17.939  0.00  0.00    +0.000 A 
ATOM      5  C   UNL     1       2.909   6.296  18.132  0.00  0.00    +0.000 A 
ATOM      6  C   UNL     1       4.236   6.492  17.713  0.00  0.00    +0.000 A 
ENDROOT
BRANCH   1   8
ATOM      7  C   UNL     1       6.828   4.742  15.574  0.00  0.00    +0.000 C 
ATOM      8  C   UNL     1       6.468   5.605  16.779  0.00  0.00    +0.000 C 
ATOM      9  N   UNL     1       6.796   7.001  16.541  0.00  0.00    +0.000 N 
ATOM     10  C   UNL     1       7.536   7.548  17.554  0.00  0.00    +0.000 C 
ATOM     11  O   UNL     1       7.840   8.724  17.636  0.00  0.00    +0.000 OA
ATOM     12  N   UNL     1       7.893   6.567  18.408  0.00  0.00    +0.000 N 
ATOM     13  C   UNL     1       7.433   5.365  17.968  0.00  0.00    +0.000 C 
ATOM     14  O   UNL     1       7.727   4.287  18.467  0.00  0.00    +0.000 OA
ATOM     15  H   UNL     1       6.397   7.592  15.826  0.00  0.00    +0.000 HD
ATOM     16  H   UNL     1       8.517   6.702  19.185  0.00  0.00    +0.000 HD
ENDBRANCH   1   8
BRANCH   5  17
ATOM     17  N   UNL     1       2.232   7.365  18.769  0.00  0.00    +0.000 N 
ATOM     18  C   UNL     1       1.797   7.374  20.084  0.00  0.00    +0.000 C 
ATOM     19  O   UNL     1       1.850   6.442  20.882  0.00  0.00    +0.000 OA
ATOM     20  H   UNL     1       2.166   8.256  18.284  0.00  0.00    +0.000 HD
BRANCH  18  21
ATOM     21  C   UNL     1       1.270   8.676  20.576  0.00  0.00    +0.000 A 
ATOM     22  C   UNL     1       0.967   8.810  21.922  0.00  0.00    +0.000 A 
ATOM     23  N   UNL     1       0.548   9.978  22.448  0.00  0.00    +0.000 NA
ATOM     24  C   UNL     1       0.448  10.996  21.551  0.00  0.00    +0.000 A 
ATOM     25  C   UNL     1       0.727  10.889  20.179  0.00  0.00    +0.000 A 
ATOM     26  N   UNL     1       1.156   9.700  19.684  0.00  0.00    +0.000 NA
BRANCH  25  27
ATOM     27  N   UNL     1       0.589  11.939  19.309  0.00  0.00    +0.000 N 
ATOM     28  C   UNL     1      -0.727  12.491  19.017  0.00  0.00    +0.000 C 
ATOM     29  C   UNL     1      -0.454  13.897  18.481  0.00  0.00    +0.000 C 
ATOM     30  C   UNL     1       1.001  14.181  18.826  0.00  0.00    +0.000 C 
ATOM     31  C   UNL     1       1.654  12.806  18.832  0.00  0.00    +0.000 C 
ENDBRANCH  25  27
ENDBRANCH  18  21
ENDBRANCH   5  17
TORSDOF 4
ENDMDL
MODEL 4
REMARK VINA RESULT:      -9.3      2.676      4.063
REMARK  Name = 
REMARK  5 active torsions:
REMARK  status: ('A' for Active; 'I' for Inactive)
REMARK    1  A    between atoms: C_1  and  C_2
REMARK    2  A    between atoms: C_2  and  C_3
REMARK    3  A    between atoms: C_7  and  N_8
REMARK    4  A    between atoms: C_9  and  C_11
REMARK    5  A    between atoms: C_15  and  N_16
REMARK                            x       y       z     vdW  Elec       q    Type
REMARK                         _______ _______ _______ _____ _____    ______ ____
ROOT
ATOM      1  C   UNL     1       3.091   4.516  18.562  0.00  0.00    +0.000 A 
ATOM      2  C   UNL     1       4.099   4.733  17.606  0.00  0.00    +0.000 A 
ATOM      3  C   UNL     1       4.426   6.019  17.191  0.00  0.00    +0.000 A 
ATOM      4  C   UNL     1       3.724   7.109  17.689  0.00  0.00    +0.000 A 
ATOM      5  C   UNL     1       2.676   6.938  18.595  0.00  0.00    +0.000 A 
ATOM      6  C   UNL     1       2.385   5.641  19.051  0.00  0.00    +0.000 A 
ENDROOT
BRANCH   1   8
ATOM      7  C   UNL     1       3.437   2.061  18.104  0.00  0.00    +0.000 C 
ATOM      8  C   UNL     1       2.733   3.089  18.983  0.00  0.00    +0.000 C 
ATOM      9  N   UNL     1       3.023   2.860  20.390  0.00  0.00    +0.000 N 
ATOM     10  C   UNL     1       1.892   2.814  21.159  0.00  0.00    +0.000 C 
ATOM     11  O   UNL     1       1.881   2.743  22.375  0.00  0.00    +0.000 OA
ATOM     12  N   UNL     1       0.815   2.824  20.347  0.00  0.00    +0.000 N 
ATOM     13  C   UNL     1       1.204   2.844  19.045  0.00  0.00    +0.000 C 
ATOM     14  O   UNL     1       0.444   2.715  18.094  0.00  0.00    +0.000 OA
ATOM     15  H   UNL     1       3.933   2.909  20.825  0.00  0.00    +0.000 HD
ATOM     16  H   UNL     1      -0.130   2.707  20.671  0.00  0.00    +0.000 HD
ENDBRANCH   1   8
BRANCH   5  17
ATOM     17  N   UNL     1       1.868   8.013  19.041  0.00  0.00    +0.000 N 
ATOM     18  C   UNL     1       1.591   9.165  18.324  0.00  0.00    +0.000 C 
ATOM     19  O   UNL     1       2.059   9.482  17.233  0.00  0.00    +0.000 OA
ATOM     20  H   UNL     1       1.331   7.894  19.896  0.00  0.00    +0.000 HD
BRANCH  18  21
ATOM     21  C   UNL     1       0.575  10.069  18.929  0.00  0.00    +0.000 A 
ATOM     22  C   UNL     1       0.841  10.647  20.160  0.00  0.00    +0.000 A 
ATOM     23  N   UNL     1      -0.005  11.524  20.736  0.00  0.00    +0.000 NA
ATOM     24  C   UNL     1      -1.126  11.784  20.012  0.00  0.00    +0.000 A 
ATOM     25  C   UNL     1      -1.437  11.200  18.773  0.00  0.00    +0.000 A 
ATOM     26  N   UNL     1      -0.557  10.327  18.216  0.00  0.00    +0.000 NA
BRANCH  25  27
ATOM     27  N   UNL     1      -2.592  11.476  18.089  0.00  0.00    +0.000 N 
ATOM     28  C   UNL     1      -2.713  11.144  16.676  0.00  0.00    +0.000 C 
ATOM     29  C   UNL     1      -4.218  11.089  16.412  0.00  0.00    +0.000 C 
ATOM     30  C   UNL     1      -4.865  11.060  17.789  0.00  0.00    +0.000 C 
ATOM     31  C   UNL     1      -3.880  11.809  18.675  0.00  0.00    +0.000 C 
ENDBRANCH  25  27
ENDBRANCH  18  21
ENDBRANCH   5  17
TORSDOF 4
ENDMDL
MODEL 5
REMARK VINA RESULT:      -9.2      1.641      2.033
REMARK  Name = 
REMARK  5 active torsions:
REMARK  status: ('A' for Active; 'I' for Inactive)
REMARK    1  A    between atoms: C_1  and  C_2
REMARK    2  A    between atoms: C_2  and  C_3
REMARK    3  A    between atoms: C_7  and  N_8
REMARK    4  A    between atoms: C_9  and  C_11
REMARK    5  A    between atoms: C_15  and  N_16
REMARK                            x       y       z     vdW  Elec       q    Type
REMARK                         _______ _______ _______ _____ _____    ______ ____
ROOT
ATOM      1  C   UNL     1       4.944   5.421  17.205  0.00  0.00    +0.000 A 
ATOM      2  C   UNL     1       4.263   4.215  16.968  0.00  0.00    +0.000 A 
ATOM      3  C   UNL     1       2.937   4.054  17.355  0.00  0.00    +0.000 A 
ATOM      4  C   UNL     1       2.281   5.077  18.025  0.00  0.00    +0.000 A 
ATOM      5  C   UNL     1       2.935   6.271  18.335  0.00  0.00    +0.000 A 
ATOM      6  C   UNL     1       4.257   6.448  17.895  0.00  0.00    +0.000 A 
ENDROOT
BRANCH   1   8
ATOM      7  C   UNL     1       6.752   4.626  15.638  0.00  0.00    +0.000 C 
ATOM      8  C   UNL     1       6.411   5.564  16.791  0.00  0.00    +0.000 C 
ATOM      9  N   UNL     1       6.740   6.941  16.461  0.00  0.00    +0.000 N 
ATOM     10  C   UNL     1       7.495   7.548  17.427  0.00  0.00    +0.000 C 
ATOM     11  O   UNL     1       7.803   8.726  17.431  0.00  0.00    +0.000 OA
ATOM     12  N   UNL     1       7.861   6.621  18.336  0.00  0.00    +0.000 N 
ATOM     13  C   UNL     1       7.392   5.396  17.979  0.00  0.00    +0.000 C 
ATOM     14  O   UNL     1       7.690   4.351  18.541  0.00  0.00    +0.000 OA
ATOM     15  H   UNL     1       6.332   7.488  15.716  0.00  0.00    +0.000 HD
ATOM     16  H   UNL     1       8.496   6.802  19.095  0.00  0.00    +0.000 HD
ENDBRANCH   1   8
BRANCH   5  17
ATOM     17  N   UNL     1       2.333   7.293  19.111  0.00  0.00    +0.000 N 
ATOM     18  C   UNL     1       1.884   8.511  18.631  0.00  0.00    +0.000 C 
ATOM     19  O   UNL     1       2.004   8.939  17.485  0.00  0.00    +0.000 OA
ATOM     20  H   UNL     1       2.080   7.086  20.074  0.00  0.00    +0.000 HD
BRANCH  18  21
ATOM     21  C   UNL     1       1.127   9.345  19.604  0.00  0.00    +0.000 A 
ATOM     22  C   UNL     1       0.977   8.887  20.903  0.00  0.00    +0.000 A 
ATOM     23  N   UNL     1       0.359   9.619  21.852  0.00  0.00    +0.000 NA
ATOM     24  C   UNL     1      -0.096  10.827  21.425  0.00  0.00    +0.000 A 
ATOM     25  C   UNL     1       0.020  11.312  20.112  0.00  0.00    +0.000 A 
ATOM     26  N   UNL     1       0.656  10.552  19.182  0.00  0.00    +0.000 NA
BRANCH  25  27
ATOM     27  N   UNL     1      -0.476  12.528  19.722  0.00  0.00    +0.000 N 
ATOM     28  C   UNL     1      -0.892  13.510  20.713  0.00  0.00    +0.000 C 
ATOM     29  C   UNL     1      -0.868  14.850  19.976  0.00  0.00    +0.000 C 
ATOM     30  C   UNL     1      -0.103  14.582  18.688  0.00  0.00    +0.000 C 
ATOM     31  C   UNL     1      -0.374  13.113  18.395  0.00  0.00    +0.000 C 
ENDBRANCH  25  27
ENDBRANCH  18  21
ENDBRANCH   5  17
TORSDOF 4
ENDMDL
MODEL 6
REMARK VINA RESULT:      -9.1      2.744      4.121
REMARK  Name = 
REMARK  5 active torsions:
REMARK  status: ('A' for Active; 'I' for Inactive)
REMARK    1  A    between atoms: C_1  and  C_2
REMARK    2  A    between atoms: C_2  and  C_3
REMARK    3  A    between atoms: C_7  and  N_8
REMARK    4  A    between atoms: C_9  and  C_11
REMARK    5  A    between atoms: C_15  and  N_16
REMARK                            x       y       z     vdW  Elec       q    Type
REMARK                         _______ _______ _______ _____ _____    ______ ____
ROOT
ATOM      1  C   UNL     1       3.338   4.525  18.432  0.00  0.00    +0.000 A 
ATOM      2  C   UNL     1       4.571   4.673  17.773  0.00  0.00    +0.000 A 
ATOM      3  C   UNL     1       4.977   5.910  17.284  0.00  0.00    +0.000 A 
ATOM      4  C   UNL     1       4.141   7.012  17.404  0.00  0.00    +0.000 A 
ATOM      5  C   UNL     1       2.883   6.900  17.998  0.00  0.00    +0.000 A 
ATOM      6  C   UNL     1       2.501   5.660  18.537  0.00  0.00    +0.000 A 
ENDROOT
BRANCH   1   8
ATOM      7  C   UNL     1       3.471   2.034  18.064  0.00  0.00    +0.000 C 
ATOM      8  C   UNL     1       2.904   3.147  18.938  0.00  0.00    +0.000 C 
ATOM      9  N   UNL     1       3.268   2.953  20.333  0.00  0.00    +0.000 N 
ATOM     10  C   UNL     1       2.189   3.026  21.173  0.00  0.00    +0.000 C 
ATOM     11  O   UNL     1       2.252   3.005  22.388  0.00  0.00    +0.000 OA
ATOM     12  N   UNL     1       1.065   3.086  20.429  0.00  0.00    +0.000 N 
ATOM     13  C   UNL     1       1.368   3.023  19.106  0.00  0.00    +0.000 C 
ATOM     14  O   UNL     1       0.541   2.914  18.211  0.00  0.00    +0.000 OA
ATOM     15  H   UNL     1       4.205   2.950  20.708  0.00  0.00    +0.000 HD
ATOM     16  H   UNL     1       0.137   3.054  20.816  0.00  0.00    +0.000 HD
ENDBRANCH   1   8
BRANCH   5  17
ATOM     17  N   UNL     1       1.960   7.975  18.041  0.00  0.00    +0.000 N 
ATOM     18  C   UNL     1       1.561   8.649  19.183  0.00  0.00    +0.000 C 
ATOM     19  O   UNL     1       1.870   8.380  20.341  0.00  0.00    +0.000 OA
ATOM     20  H   UNL     1       1.655   8.388  17.164  0.00  0.00    +0.000 HD
BRANCH  18  21
ATOM     21  C   UNL     1       0.721   9.856  18.954  0.00  0.00    +0.000 A 
ATOM     22  C   UNL     1       1.217  11.096  19.323  0.00  0.00    +0.000 A 
ATOM     23  N   UNL     1       0.538  12.237  19.087  0.00  0.00    +0.000 NA
ATOM     24  C   UNL     1      -0.659  12.062  18.467  0.00  0.00    +0.000 A 
ATOM     25  C   UNL     1      -1.201  10.819  18.099  0.00  0.00    +0.000 A 
ATOM     26  N   UNL     1      -0.486   9.690  18.344  0.00  0.00    +0.000 NA
BRANCH  25  27
ATOM     27  N   UNL     1      -2.424  10.690  17.495  0.00  0.00    +0.000 N 
ATOM     28  C   UNL     1      -3.538  11.540  17.893  0.00  0.00    +0.000 C 
ATOM     29  C   UNL     1      -4.508  11.498  16.710  0.00  0.00    +0.000 C 
ATOM     30  C   UNL     1      -3.713  10.888  15.564  0.00  0.00    +0.000 C 
ATOM     31  C   UNL     1      -2.702   9.984  16.256  0.00  0.00    +0.000 C 
ENDBRANCH  25  27
ENDBRANCH  18  21
ENDBRANCH   5  17
TORSDOF 4
ENDMDL
MODEL 7
REMARK VINA RESULT:      -9.1      1.349      1.749
REMARK  Name = 
REMARK  5 active torsions:
REMARK  status: ('A' for Active; 'I' for Inactive)
REMARK    1  A    between atoms: C_1  and  C_2
REMARK    2  A    between atoms: C_2  and  C_3
REMARK    3  A    between atoms: C_7  and  N_8
REMARK    4  A    between atoms: C_9  and  C_11
REMARK    5  A    between atoms: C_15  and  N_16
REMARK                            x       y       z     vdW  Elec       q    Type
REMARK                         _______ _______ _______ _____ _____    ______ ____
ROOT
ATOM      1  C   UNL     1       4.973   5.327  17.220  0.00  0.00    +0.000 A 
ATOM      2  C   UNL     1       4.286   4.153  16.866  0.00  0.00    +0.000 A 
ATOM      3  C   UNL     1       2.972   3.944  17.269  0.00  0.00    +0.000 A 
ATOM      4  C   UNL     1       2.335   4.882  18.071  0.00  0.00    +0.000 A 
ATOM      5  C   UNL     1       2.997   6.034  18.497  0.00  0.00    +0.000 A 
ATOM      6  C   UNL     1       4.307   6.265  18.043  0.00  0.00    +0.000 A 
ENDROOT
BRANCH   1   8
ATOM      7  C   UNL     1       6.780   4.608  15.614  0.00  0.00    +0.000 C 
ATOM      8  C   UNL     1       6.428   5.520  16.784  0.00  0.00    +0.000 C 
ATOM      9  N   UNL     1       6.708   6.911  16.466  0.00  0.00    +0.000 N 
ATOM     10  C   UNL     1       7.459   7.531  17.427  0.00  0.00    +0.000 C 
ATOM     11  O   UNL     1       7.730   8.717  17.441  0.00  0.00    +0.000 OA
ATOM     12  N   UNL     1       7.870   6.605  18.319  0.00  0.00    +0.000 N 
ATOM     13  C   UNL     1       7.433   5.370  17.954  0.00  0.00    +0.000 C 
ATOM     14  O   UNL     1       7.773   4.328  18.498  0.00  0.00    +0.000 OA
ATOM     15  H   UNL     1       6.270   7.454  15.734  0.00  0.00    +0.000 HD
ATOM     16  H   UNL     1       8.511   6.797  19.069  0.00  0.00    +0.000 HD
ENDBRANCH   1   8
BRANCH   5  17
ATOM     17  N   UNL     1       2.418   6.958  19.402  0.00  0.00    +0.000 N 
ATOM     18  C   UNL     1       1.862   8.180  19.061  0.00  0.00    +0.000 C 
ATOM     19  O   UNL     1       1.852   8.697  17.947  0.00  0.00    +0.000 OA
ATOM     20  H   UNL     1       2.267   6.666  20.364  0.00  0.00    +0.000 HD
BRANCH  18  21
ATOM     21  C   UNL     1       1.157   8.893  20.161  0.00  0.00    +0.000 A 
ATOM     22  C   UNL     1       1.358   8.476  21.467  0.00  0.00    +0.000 A 
ATOM     23  N   UNL     1       0.803   9.115  22.515  0.00  0.00    +0.000 NA
ATOM     24  C   UNL     1       0.038  10.188  22.180  0.00  0.00    +0.000 A 
ATOM     25  C   UNL     1      -0.205  10.625  20.867  0.00  0.00    +0.000 A 
ATOM     26  N   UNL     1       0.378   9.962  19.834  0.00  0.00    +0.000 NA
BRANCH  25  27
ATOM     27  N   UNL     1      -1.004  11.699  20.577  0.00  0.00    +0.000 N 
ATOM     28  C   UNL     1      -2.009  11.611  19.526  0.00  0.00    +0.000 C 
ATOM     29  C   UNL     1      -3.006  12.727  19.841  0.00  0.00    +0.000 C 
ATOM     30  C   UNL     1      -2.680  13.166  21.261  0.00  0.00    +0.000 C 
ATOM     31  C   UNL     1      -1.192  12.880  21.403  0.00  0.00    +0.000 C 
ENDBRANCH  25  27
ENDBRANCH  18  21
ENDBRANCH   5  17
TORSDOF 4
ENDMDL
MODEL 8
REMARK VINA RESULT:      -9.0      2.399      3.596
REMARK  Name = 
REMARK  5 active torsions:
REMARK  status: ('A' for Active; 'I' for Inactive)
REMARK    1  A    between atoms: C_1  and  C_2
REMARK    2  A    between atoms: C_2  and  C_3
REMARK    3  A    between atoms: C_7  and  N_8
REMARK    4  A    between atoms: C_9  and  C_11
REMARK    5  A    between atoms: C_15  and  N_16
REMARK                            x       y       z     vdW  Elec       q    Type
REMARK                         _______ _______ _______ _____ _____    ______ ____
ROOT
ATOM      1  C   UNL     1       3.508   4.414  18.251  0.00  0.00    +0.000 A 
ATOM      2  C   UNL     1       4.470   4.699  17.266  0.00  0.00    +0.000 A 
ATOM      3  C   UNL     1       4.738   6.009  16.886  0.00  0.00    +0.000 A 
ATOM      4  C   UNL     1       4.019   7.056  17.447  0.00  0.00    +0.000 A 
ATOM      5  C   UNL     1       3.013   6.817  18.385  0.00  0.00    +0.000 A 
ATOM      6  C   UNL     1       2.784   5.496  18.805  0.00  0.00    +0.000 A 
ENDROOT
BRANCH   1   8
ATOM      7  C   UNL     1       2.632   2.187  17.457  0.00  0.00    +0.000 C 
ATOM      8  C   UNL     1       3.215   2.961  18.634  0.00  0.00    +0.000 C 
ATOM      9  N   UNL     1       4.398   2.300  19.160  0.00  0.00    +0.000 N 
ATOM     10  C   UNL     1       4.343   2.123  20.516  0.00  0.00    +0.000 C 
ATOM     11  O   UNL     1       5.254   1.694  21.199  0.00  0.00    +0.000 OA
ATOM     12  N   UNL     1       3.111   2.465  20.947  0.00  0.00    +0.000 N 
ATOM     13  C   UNL     1       2.329   2.838  19.900  0.00  0.00    +0.000 C 
ATOM     14  O   UNL     1       1.129   3.063  19.978  0.00  0.00    +0.000 OA
ATOM     15  H   UNL     1       5.262   2.141  18.662  0.00  0.00    +0.000 HD
ATOM     16  H   UNL     1       2.794   2.336  21.893  0.00  0.00    +0.000 HD
ENDBRANCH   1   8
BRANCH   5  17
ATOM     17  N   UNL     1       2.187   7.847  18.898  0.00  0.00    +0.000 N 
ATOM     18  C   UNL     1       1.779   8.975  18.206  0.00  0.00    +0.000 C 
ATOM     19  O   UNL     1       2.126   9.308  17.075  0.00  0.00    +0.000 OA
ATOM     20  H   UNL     1       1.737   7.705  19.799  0.00  0.00    +0.000 HD
BRANCH  18  21
ATOM     21  C   UNL     1       0.770   9.823  18.897  0.00  0.00    +0.000 A 
ATOM     22  C   UNL     1       1.025  10.245  20.192  0.00  0.00    +0.000 A 
ATOM     23  N   UNL     1       0.186  11.067  20.854  0.00  0.00    +0.000 NA
ATOM     24  C   UNL     1      -0.916  11.435  20.148  0.00  0.00    +0.000 A 
ATOM     25  C   UNL     1      -1.215  11.009  18.844  0.00  0.00    +0.000 A 
ATOM     26  N   UNL     1      -0.344  10.188  18.202  0.00  0.00    +0.000 NA
BRANCH  25  27
ATOM     27  N   UNL     1      -2.352  11.389  18.180  0.00  0.00    +0.000 N 
ATOM     28  C   UNL     1      -2.549  11.027  16.783  0.00  0.00    +0.000 C 
ATOM     29  C   UNL     1      -4.058  11.131  16.558  0.00  0.00    +0.000 C 
ATOM     30  C   UNL     1      -4.664  11.219  17.951  0.00  0.00    +0.000 C 
ATOM     31  C   UNL     1      -3.578  11.882  18.786  0.00  0.00    +0.000 C 
ENDBRANCH  25  27
ENDBRANCH  18  21
ENDBRANCH   5  17
TORSDOF 4
ENDMDL
MODEL 9
REMARK VINA RESULT:      -9.0      0.663      1.005
REMARK  Name = 
REMARK  5 active torsions:
REMARK  status: ('A' for Active; 'I' for Inactive)
REMARK    1  A    between atoms: C_1  and  C_2
REMARK    2  A    between atoms: C_2  and  C_3
REMARK    3  A    between atoms: C_7  and  N_8
REMARK    4  A    between atoms: C_9  and  C_11
REMARK    5  A    between atoms: C_15  and  N_16
REMARK                            x       y       z     vdW  Elec       q    Type
REMARK                         _______ _______ _______ _____ _____    ______ ____
ROOT
ATOM      1  C   UNL     1       4.931   5.373  17.456  0.00  0.00    +0.000 A 
ATOM      2  C   UNL     1       4.486   4.081  17.786  0.00  0.00    +0.000 A 
ATOM      3  C   UNL     1       3.216   3.876  18.313  0.00  0.00    +0.000 A 
ATOM      4  C   UNL     1       2.384   4.959  18.562  0.00  0.00    +0.000 A 
ATOM      5  C   UNL     1       2.805   6.265  18.305  0.00  0.00    +0.000 A 
ATOM      6  C   UNL     1       4.069   6.462  17.724  0.00  0.00    +0.000 A 
ENDROOT
BRANCH   1   8
ATOM      7  C   UNL     1       6.605   4.657  15.711  0.00  0.00    +0.000 C 
ATOM      8  C   UNL     1       6.344   5.574  16.901  0.00  0.00    +0.000 C 
ATOM      9  N   UNL     1       6.586   6.965  16.553  0.00  0.00    +0.000 N 
ATOM     10  C   UNL     1       7.409   7.596  17.446  0.00  0.00    +0.000 C 
ATOM     11  O   UNL     1       7.671   8.784  17.432  0.00  0.00    +0.000 OA
ATOM     12  N   UNL     1       7.898   6.678  18.306  0.00  0.00    +0.000 N 
ATOM     13  C   UNL     1       7.443   5.438  17.986  0.00  0.00    +0.000 C 
ATOM     14  O   UNL     1       7.834   4.402  18.506  0.00  0.00    +0.000 OA
ATOM     15  H   UNL     1       6.086   7.500  15.857  0.00  0.00    +0.000 HD
ATOM     16  H   UNL     1       8.597   6.880  19.001  0.00  0.00    +0.000 HD
ENDBRANCH   1   8
BRANCH   5  17
ATOM     17  N   UNL     1       2.028   7.400  18.646  0.00  0.00    +0.000 N 
ATOM     18  C   UNL     1       1.997   8.595  17.948  0.00  0.00    +0.000 C 
ATOM     19  O   UNL     1       2.689   8.898  16.979  0.00  0.00    +0.000 OA
ATOM     20  H   UNL     1       1.330   7.307  19.380  0.00  0.00    +0.000 HD
BRANCH  18  21
ATOM     21  C   UNL     1       0.970   9.574  18.397  0.00  0.00    +0.000 A 
ATOM     22  C   UNL     1       1.302  10.485  19.388  0.00  0.00    +0.000 A 
ATOM     23  N   UNL     1       0.443  11.440  19.797  0.00  0.00    +0.000 NA
ATOM     24  C   UNL     1      -0.759  11.427  19.161  0.00  0.00    +0.000 A 
ATOM     25  C   UNL     1      -1.135  10.507  18.169  0.00  0.00    +0.000 A 
ATOM     26  N   UNL     1      -0.242   9.562  17.774  0.00  0.00    +0.000 NA
BRANCH  25  27
ATOM     27  N   UNL     1      -2.368  10.519  17.572  0.00  0.00    +0.000 N 
ATOM     28  C   UNL     1      -3.427  11.379  18.080  0.00  0.00    +0.000 C 
ATOM     29  C   UNL     1      -4.406  11.530  16.914  0.00  0.00    +0.000 C 
ATOM     30  C   UNL     1      -3.657  11.014  15.695  0.00  0.00    +0.000 C 
ATOM     31  C   UNL     1      -2.695   9.979  16.263  0.00  0.00    +0.000 C 
ENDBRANCH  25  27
ENDBRANCH  18  21
ENDBRANCH   5  17
TORSDOF 4
ENDMDL
