MODEL 1
REMARK VINA RESULT:      -9.2      0.000      0.000
REMARK  Name = 
REMARK  3 active torsions:
REMARK  status: ('A' for Active; 'I' for Inactive)
REMARK    1  A    between atoms: C_2  and  C_17
REMARK    2  A    between atoms: N_3  and  C_4
REMARK    3  A    between atoms: C_8  and  C_9
REMARK                            x       y       z     vdW  Elec       q    Type
REMARK                         _______ _______ _______ _____ _____    ______ ____
ROOT
ATOM      1  O   UNL     1       1.928   7.781  20.026  0.00  0.00    +0.000 OA
ATOM      2  C   UNL     1       2.593   7.417  19.052  0.00  0.00    +0.000 C 
ATOM      3  N   UNL     1       2.539   8.180  17.915  0.00  0.00    +0.000 N 
ATOM      4  H   UNL     1       2.443   7.592  17.107  0.00  0.00    +0.000 HD
ENDROOT
BRANCH   2   5
ATOM      5  C   UNL     1       3.778   6.293  19.025  0.00  0.00    +0.000 C 
ATOM      6  C   UNL     1       3.359   4.642  19.681  0.00  0.00    +0.000 A 
ATOM      7  C   UNL     1       3.009   3.334  20.181  0.00  0.00    +0.000 A 
ATOM      8  C   UNL     1       1.800   2.260  19.899  0.00  0.00    +0.000 A 
ATOM      9  C   UNL     1       0.824   2.472  19.024  0.00  0.00    +0.000 A 
ATOM     10  C   UNL     1       1.116   3.653  18.476  0.00  0.00    +0.000 A 
ATOM     11  C   UNL     1       2.335   4.448  18.715  0.00  0.00    +0.000 A 
ATOM     12  O   UNL     1       2.530   4.898  17.412  0.00  0.00    +0.000 OA
ATOM     13  C   UNL     1       3.828   5.005  17.114  0.00  0.00    +0.000 A 
ATOM     14  C   UNL     1       4.719   3.976  17.108  0.00  0.00    +0.000 A 
ATOM     15  C   UNL     1       5.939   4.248  16.544  0.00  0.00    +0.000 A 
ATOM     16  C   UNL     1       6.270   5.558  16.229  0.00  0.00    +0.000 A 
ATOM     17  C   UNL     1       5.499   6.582  16.809  0.00  0.00    +0.000 A 
ATOM     18  C   UNL     1       4.306   6.218  17.462  0.00  0.00    +0.000 A 
ENDBRANCH   2   5
BRANCH   3  19
ATOM     19  C   UNL     1       1.754   9.334  17.870  0.00  0.00    +0.000 A 
ATOM     20  C   UNL     1       0.427   9.043  17.680  0.00  0.00    +0.000 A 
ATOM     21  C   UNL     1      -0.500   9.987  18.043  0.00  0.00    +0.000 A 
ATOM     22  C   UNL     1      -0.101  11.136  18.733  0.00  0.00    +0.000 A 
ATOM     23  C   UNL     1       1.224  11.397  19.038  0.00  0.00    +0.000 A 
ATOM     24  C   UNL     1       2.162  10.577  18.413  0.00  0.00    +0.000 A 
BRANCH  23  25
ATOM     25  C   UNL     1       1.621  12.510  19.987  0.00  0.00    +0.000 C 
ATOM     26  O   UNL     1       1.485  12.403  21.202  0.00  0.00    +0.000 OA
ATOM     27  N   UNL     1       2.261  13.631  19.499  0.00  0.00    +0.000 N 
ATOM     28  C   UNL     1       2.571  14.041  18.140  0.00  0.00    +0.000 C 
ATOM     29  C   UNL     1       4.027  14.450  18.269  0.00  0.00    +0.000 C 
ATOM     30  C   UNL     1       4.063  15.136  19.638  0.00  0.00    +0.000 C 
ATOM     31  C   UNL     1       2.966  14.454  20.453  0.00  0.00    +0.000 C 
ENDBRANCH  23  25
ENDBRANCH   3  19
TORSDOF 3
ENDMDL
MODEL 2
REMARK VINA RESULT:      -9.1      2.126      4.548
REMARK  Name = 
REMARK  3 active torsions:
REMARK  status: ('A' for Active; 'I' for Inactive)
REMARK    1  A    between atoms: C_2  and  C_17
REMARK    2  A    between atoms: N_3  and  C_4
REMARK    3  A    between atoms: C_8  and  C_9
REMARK                            x       y       z     vdW  Elec       q    Type
REMARK                         _______ _______ _______ _____ _____    ______ ____
ROOT
ATOM      1  O   UNL     1       2.579   7.161  19.852  0.00  0.00    +0.000 OA
ATOM      2  C   UNL     1       2.265   6.934  18.680  0.00  0.00    +0.000 C 
ATOM      3  N   UNL     1       1.760   7.969  17.938  0.00  0.00    +0.000 N 
ATOM      4  H   UNL     1       0.963   7.662  17.411  0.00  0.00    +0.000 HD
ENDROOT
BRANCH   2   5
ATOM      5  C   UNL     1       2.649   5.621  17.788  0.00  0.00    +0.000 C 
ATOM      6  C   UNL     1       4.354   5.536  17.143  0.00  0.00    +0.000 A 
ATOM      7  C   UNL     1       5.712   5.470  16.656  0.00  0.00    +0.000 A 
ATOM      8  C   UNL     1       7.202   5.614  17.329  0.00  0.00    +0.000 A 
ATOM      9  C   UNL     1       7.401   5.836  18.623  0.00  0.00    +0.000 A 
ATOM     10  C   UNL     1       6.175   5.855  19.152  0.00  0.00    +0.000 A 
ATOM     11  C   UNL     1       4.917   5.552  18.447  0.00  0.00    +0.000 A 
ATOM     12  O   UNL     1       4.285   4.853  19.472  0.00  0.00    +0.000 OA
ATOM     13  C   UNL     1       3.520   3.866  19.000  0.00  0.00    +0.000 A 
ATOM     14  C   UNL     1       3.968   2.802  18.277  0.00  0.00    +0.000 A 
ATOM     15  C   UNL     1       3.070   1.782  18.097  0.00  0.00    +0.000 A 
ATOM     16  C   UNL     1       1.740   1.973  18.447  0.00  0.00    +0.000 A 
ATOM     17  C   UNL     1       1.302   3.296  18.643  0.00  0.00    +0.000 A 
ATOM     18  C   UNL     1       2.277   4.308  18.717  0.00  0.00    +0.000 A 
ENDBRANCH   2   5
BRANCH   3  19
ATOM     19  C   UNL     1       1.610   9.239  18.499  0.00  0.00    +0.000 A 
ATOM     20  C   UNL     1       2.491  10.143  17.963  0.00  0.00    +0.000 A 
ATOM     21  C   UNL     1       2.192  11.478  18.071  0.00  0.00    +0.000 A 
ATOM     22  C   UNL     1       0.951  11.884  18.569  0.00  0.00    +0.000 A 
ATOM     23  C   UNL     1      -0.002  10.982  19.011  0.00  0.00    +0.000 A 
ATOM     24  C   UNL     1       0.431   9.666  19.158  0.00  0.00    +0.000 A 
BRANCH  23  25
ATOM     25  C   UNL     1      -1.423  11.410  19.320  0.00  0.00    +0.000 C 
ATOM     26  O   UNL     1      -1.679  12.196  20.229  0.00  0.00    +0.000 OA
ATOM     27  N   UNL     1      -2.454  11.009  18.496  0.00  0.00    +0.000 N 
ATOM     28  C   UNL     1      -2.475  10.108  17.357  0.00  0.00    +0.000 C 
ATOM     29  C   UNL     1      -3.265  10.915  16.343  0.00  0.00    +0.000 C 
ATOM     30  C   UNL     1      -4.337  11.584  17.209  0.00  0.00    +0.000 C 
ATOM     31  C   UNL     1      -3.692  11.748  18.583  0.00  0.00    +0.000 C 
ENDBRANCH  23  25
ENDBRANCH   3  19
TORSDOF 3
ENDMDL
MODEL 3
REMARK VINA RESULT:      -8.9      1.667      2.431
REMARK  Name = 
REMARK  3 active torsions:
REMARK  status: ('A' for Active; 'I' for Inactive)
REMARK    1  A    between atoms: C_2  and  C_17
REMARK    2  A    between atoms: N_3  and  C_4
REMARK    3  A    between atoms: C_8  and  C_9
REMARK                            x       y       z     vdW  Elec       q    Type
REMARK                         _______ _______ _______ _____ _____    ______ ____
ROOT
ATOM      1  O   UNL     1       1.568   8.086  20.139  0.00  0.00    +0.000 OA
ATOM      2  C   UNL     1       2.203   7.687  19.159  0.00  0.00    +0.000 C 
ATOM      3  N   UNL     1       2.062   8.369  17.980  0.00  0.00    +0.000 N 
ATOM      4  H   UNL     1       1.956   7.727  17.216  0.00  0.00    +0.000 HD
ENDROOT
BRANCH   2   5
ATOM      5  C   UNL     1       3.436   6.615  19.146  0.00  0.00    +0.000 C 
ATOM      6  C   UNL     1       3.185   5.064  20.076  0.00  0.00    +0.000 A 
ATOM      7  C   UNL     1       2.968   3.832  20.796  0.00  0.00    +0.000 A 
ATOM      8  C   UNL     1       1.794   2.685  20.820  0.00  0.00    +0.000 A 
ATOM      9  C   UNL     1       0.712   2.731  20.050  0.00  0.00    +0.000 A 
ATOM     10  C   UNL     1       0.874   3.828  19.308  0.00  0.00    +0.000 A 
ATOM     11  C   UNL     1       2.068   4.693  19.281  0.00  0.00    +0.000 A 
ATOM     12  O   UNL     1       2.086   4.953  17.913  0.00  0.00    +0.000 OA
ATOM     13  C   UNL     1       3.332   5.063  17.446  0.00  0.00    +0.000 A 
ATOM     14  C   UNL     1       4.271   4.077  17.476  0.00  0.00    +0.000 A 
ATOM     15  C   UNL     1       5.400   4.307  16.733  0.00  0.00    +0.000 A 
ATOM     16  C   UNL     1       5.622   5.568  16.197  0.00  0.00    +0.000 A 
ATOM     17  C   UNL     1       4.869   6.637  16.717  0.00  0.00    +0.000 A 
ATOM     18  C   UNL     1       3.782   6.330  17.557  0.00  0.00    +0.000 A 
ENDBRANCH   2   5
BRANCH   3  19
ATOM     19  C   UNL     1       1.224   9.484  17.900  0.00  0.00    +0.000 A 
ATOM     20  C   UNL     1      -0.044   9.143  17.504  0.00  0.00    +0.000 A 
ATOM     21  C   UNL     1      -1.066  10.011  17.792  0.00  0.00    +0.000 A 
ATOM     22  C   UNL     1      -0.836  11.124  18.606  0.00  0.00    +0.000 A 
ATOM     23  C   UNL     1       0.416  11.426  19.113  0.00  0.00    +0.000 A 
ATOM     24  C   UNL     1       1.479  10.702  18.576  0.00  0.00    +0.000 A 
BRANCH  23  25
ATOM     25  C   UNL     1       0.611  12.485  20.180  0.00  0.00    +0.000 C 
ATOM     26  O   UNL     1       1.173  13.550  19.939  0.00  0.00    +0.000 OA
ATOM     27  N   UNL     1       0.046  12.315  21.426  0.00  0.00    +0.000 N 
ATOM     28  C   UNL     1      -0.674  11.194  22.006  0.00  0.00    +0.000 C 
ATOM     29  C   UNL     1      -1.877  11.887  22.620  0.00  0.00    +0.000 C 
ATOM     30  C   UNL     1      -1.272  13.182  23.171  0.00  0.00    +0.000 C 
ATOM     31  C   UNL     1      -0.090  13.490  22.255  0.00  0.00    +0.000 C 
ENDBRANCH  23  25
ENDBRANCH   3  19
TORSDOF 3
ENDMDL
MODEL 4
REMARK VINA RESULT:      -8.8      2.330      4.721
REMARK  Name = 
REMARK  3 active torsions:
REMARK  status: ('A' for Active; 'I' for Inactive)
REMARK    1  A    between atoms: C_2  and  C_17
REMARK    2  A    between atoms: N_3  and  C_4
REMARK    3  A    between atoms: C_8  and  C_9
REMARK                            x       y       z     vdW  Elec       q    Type
REMARK                         _______ _______ _______ _____ _____    ______ ____
ROOT
ATOM      1  O   UNL     1       2.570   8.156  17.180  0.00  0.00    +0.000 OA
ATOM      2  C   UNL     1       2.367   7.387  18.124  0.00  0.00    +0.000 C 
ATOM      3  N   UNL     1       1.817   7.903  19.267  0.00  0.00    +0.000 N 
ATOM      4  H   UNL     1       2.297   7.548  20.074  0.00  0.00    +0.000 HD
ENDROOT
BRANCH   2   5
ATOM      5  C   UNL     1       2.392   5.754  18.095  0.00  0.00    +0.000 C 
ATOM      6  C   UNL     1       3.839   4.969  17.304  0.00  0.00    +0.000 A 
ATOM      7  C   UNL     1       4.998   4.360  16.697  0.00  0.00    +0.000 A 
ATOM      8  C   UNL     1       6.623   4.516  16.866  0.00  0.00    +0.000 A 
ATOM      9  C   UNL     1       7.191   5.349  17.730  0.00  0.00    +0.000 A 
ATOM     10  C   UNL     1       6.167   5.914  18.374  0.00  0.00    +0.000 A 
ATOM     11  C   UNL     1       4.743   5.560  18.226  0.00  0.00    +0.000 A 
ATOM     12  O   UNL     1       4.377   5.677  19.565  0.00  0.00    +0.000 OA
ATOM     13  C   UNL     1       3.443   4.784  19.902  0.00  0.00    +0.000 A 
ATOM     14  C   UNL     1       3.596   3.432  19.851  0.00  0.00    +0.000 A 
ATOM     15  C   UNL     1       2.613   2.698  20.465  0.00  0.00    +0.000 A 
ATOM     16  C   UNL     1       1.451   3.329  20.888  0.00  0.00    +0.000 A 
ATOM     17  C   UNL     1       1.179   4.608  20.367  0.00  0.00    +0.000 A 
ATOM     18  C   UNL     1       2.205   5.262  19.659  0.00  0.00    +0.000 A 
ENDBRANCH   2   5
BRANCH   3  19
ATOM     19  C   UNL     1       1.498   9.260  19.353  0.00  0.00    +0.000 A 
ATOM     20  C   UNL     1       2.380  10.039  18.650  0.00  0.00    +0.000 A 
ATOM     21  C   UNL     1       1.976  11.295  18.273  0.00  0.00    +0.000 A 
ATOM     22  C   UNL     1       0.650  11.694  18.464  0.00  0.00    +0.000 A 
ATOM     23  C   UNL     1      -0.291  10.879  19.070  0.00  0.00    +0.000 A 
ATOM     24  C   UNL     1       0.208   9.738  19.695  0.00  0.00    +0.000 A 
BRANCH  23  25
ATOM     25  C   UNL     1      -1.768  11.217  19.056  0.00  0.00    +0.000 C 
ATOM     26  O   UNL     1      -2.268  11.967  19.891  0.00  0.00    +0.000 OA
ATOM     27  N   UNL     1      -2.563  10.776  18.018  0.00  0.00    +0.000 N 
ATOM     28  C   UNL     1      -2.273   9.900  16.896  0.00  0.00    +0.000 C 
ATOM     29  C   UNL     1      -2.865  10.683  15.737  0.00  0.00    +0.000 C 
ATOM     30  C   UNL     1      -4.142  11.270  16.347  0.00  0.00    +0.000 C 
ATOM     31  C   UNL     1      -3.832  11.441  17.832  0.00  0.00    +0.000 C 
ENDBRANCH  23  25
ENDBRANCH   3  19
TORSDOF 3
ENDMDL
MODEL 5
REMARK VINA RESULT:      -8.8      2.198      4.261
REMARK  Name = 
REMARK  3 active torsions:
REMARK  status: ('A' for Active; 'I' for Inactive)
REMARK    1  A    between atoms: C_2  and  C_17
REMARK    2  A    between atoms: N_3  and  C_4
REMARK    3  A    between atoms: C_8  and  C_9
REMARK                            x       y       z     vdW  Elec       q    Type
REMARK                         _______ _______ _______ _____ _____    ______ ____
ROOT
ATOM      1  O   UNL     1       2.585   7.304  19.875  0.00  0.00    +0.000 OA
ATOM      2  C   UNL     1       2.229   7.082  18.714  0.00  0.00    +0.000 C 
ATOM      3  N   UNL     1       1.756   8.134  17.975  0.00  0.00    +0.000 N 
ATOM      4  H   UNL     1       0.931   7.862  17.472  0.00  0.00    +0.000 HD
ENDROOT
BRANCH   2   5
ATOM      5  C   UNL     1       2.521   5.743  17.826  0.00  0.00    +0.000 C 
ATOM      6  C   UNL     1       4.184   5.594  17.087  0.00  0.00    +0.000 A 
ATOM      7  C   UNL     1       5.508   5.478  16.526  0.00  0.00    +0.000 A 
ATOM      8  C   UNL     1       7.038   5.587  17.111  0.00  0.00    +0.000 A 
ATOM      9  C   UNL     1       7.317   5.825  18.387  0.00  0.00    +0.000 A 
ATOM     10  C   UNL     1       6.125   5.891  18.984  0.00  0.00    +0.000 A 
ATOM     11  C   UNL     1       4.820   5.615  18.357  0.00  0.00    +0.000 A 
ATOM     12  O   UNL     1       4.227   4.953  19.429  0.00  0.00    +0.000 OA
ATOM     13  C   UNL     1       3.407   3.982  19.019  0.00  0.00    +0.000 A 
ATOM     14  C   UNL     1       3.782   2.893  18.292  0.00  0.00    +0.000 A 
ATOM     15  C   UNL     1       2.844   1.898  18.182  0.00  0.00    +0.000 A 
ATOM     16  C   UNL     1       1.543   2.136  18.602  0.00  0.00    +0.000 A 
ATOM     17  C   UNL     1       1.156   3.475  18.799  0.00  0.00    +0.000 A 
ATOM     18  C   UNL     1       2.164   4.457  18.799  0.00  0.00    +0.000 A 
ENDBRANCH   2   5
BRANCH   3  19
ATOM     19  C   UNL     1       1.685   9.415  18.526  0.00  0.00    +0.000 A 
ATOM     20  C   UNL     1       2.568  10.278  17.930  0.00  0.00    +0.000 A 
ATOM     21  C   UNL     1       2.327  11.625  18.037  0.00  0.00    +0.000 A 
ATOM     22  C   UNL     1       1.131  12.084  18.597  0.00  0.00    +0.000 A 
ATOM     23  C   UNL     1       0.171  11.224  19.103  0.00  0.00    +0.000 A 
ATOM     24  C   UNL     1       0.562   9.894  19.244  0.00  0.00    +0.000 A 
BRANCH  23  25
ATOM     25  C   UNL     1      -1.214  11.710  19.484  0.00  0.00    +0.000 C 
ATOM     26  O   UNL     1      -2.182  11.547  18.746  0.00  0.00    +0.000 OA
ATOM     27  N   UNL     1      -1.432  12.243  20.737  0.00  0.00    +0.000 N 
ATOM     28  C   UNL     1      -0.513  12.551  21.820  0.00  0.00    +0.000 C 
ATOM     29  C   UNL     1      -1.232  11.945  23.012  0.00  0.00    +0.000 C 
ATOM     30  C   UNL     1      -2.700  12.268  22.718  0.00  0.00    +0.000 C 
ATOM     31  C   UNL     1      -2.800  12.312  21.195  0.00  0.00    +0.000 C 
ENDBRANCH  23  25
ENDBRANCH   3  19
TORSDOF 3
ENDMDL
MODEL 6
REMARK VINA RESULT:      -8.7      2.541      4.347
REMARK  Name = 
REMARK  3 active torsions:
REMARK  status: ('A' for Active; 'I' for Inactive)
REMARK    1  A    between atoms: C_2  and  C_17
REMARK    2  A    between atoms: N_3  and  C_4
REMARK    3  A    between atoms: C_8  and  C_9
REMARK                            x       y       z     vdW  Elec       q    Type
REMARK                         _______ _______ _______ _____ _____    ______ ____
ROOT
ATOM      1  O   UNL     1       3.153   8.175  17.815  0.00  0.00    +0.000 OA
ATOM      2  C   UNL     1       2.562   7.307  18.464  0.00  0.00    +0.000 C 
ATOM      3  N   UNL     1       1.648   7.713  19.399  0.00  0.00    +0.000 N 
ATOM      4  H   UNL     1       1.762   7.189  20.248  0.00  0.00    +0.000 HD
ENDROOT
BRANCH   2   5
ATOM      5  C   UNL     1       2.504   5.705  18.152  0.00  0.00    +0.000 C 
ATOM      6  C   UNL     1       3.949   4.981  17.302  0.00  0.00    +0.000 A 
ATOM      7  C   UNL     1       5.105   4.415  16.649  0.00  0.00    +0.000 A 
ATOM      8  C   UNL     1       6.725   4.442  16.914  0.00  0.00    +0.000 A 
ATOM      9  C   UNL     1       7.288   5.078  17.935  0.00  0.00    +0.000 A 
ATOM     10  C   UNL     1       6.262   5.585  18.621  0.00  0.00    +0.000 A 
ATOM     11  C   UNL     1       4.831   5.349  18.352  0.00  0.00    +0.000 A 
ATOM     12  O   UNL     1       4.400   5.257  19.672  0.00  0.00    +0.000 OA
ATOM     13  C   UNL     1       3.404   4.377  19.807  0.00  0.00    +0.000 A 
ATOM     14  C   UNL     1       3.488   3.047  19.529  0.00  0.00    +0.000 A 
ATOM     15  C   UNL     1       2.438   2.280  19.962  0.00  0.00    +0.000 A 
ATOM     16  C   UNL     1       1.289   2.898  20.436  0.00  0.00    +0.000 A 
ATOM     17  C   UNL     1       1.112   4.262  20.135  0.00  0.00    +0.000 A 
ATOM     18  C   UNL     1       2.207   4.964  19.597  0.00  0.00    +0.000 A 
ENDBRANCH   2   5
BRANCH   3  19
ATOM     19  C   UNL     1       1.397   9.072  19.605  0.00  0.00    +0.000 A 
ATOM     20  C   UNL     1       1.106   9.722  18.433  0.00  0.00    +0.000 A 
ATOM     21  C   UNL     1       0.426  10.911  18.506  0.00  0.00    +0.000 A 
ATOM     22  C   UNL     1      -0.090  11.354  19.728  0.00  0.00    +0.000 A 
ATOM     23  C   UNL     1       0.095  10.654  20.908  0.00  0.00    +0.000 A 
ATOM     24  C   UNL     1       1.021   9.615  20.858  0.00  0.00    +0.000 A 
BRANCH  23  25
ATOM     25  C   UNL     1      -0.663  11.008  22.173  0.00  0.00    +0.000 C 
ATOM     26  O   UNL     1      -0.287  10.631  23.279  0.00  0.00    +0.000 OA
ATOM     27  N   UNL     1      -1.736  11.872  22.109  0.00  0.00    +0.000 N 
ATOM     28  C   UNL     1      -2.406  12.486  20.975  0.00  0.00    +0.000 C 
ATOM     29  C   UNL     1      -2.505  13.933  21.425  0.00  0.00    +0.000 C 
ATOM     30  C   UNL     1      -2.815  13.799  22.919  0.00  0.00    +0.000 C 
ATOM     31  C   UNL     1      -2.161  12.486  23.346  0.00  0.00    +0.000 C 
ENDBRANCH  23  25
ENDBRANCH   3  19
TORSDOF 3
ENDMDL
MODEL 7
REMARK VINA RESULT:      -8.7      1.790      2.279
REMARK  Name = 
REMARK  3 active torsions:
REMARK  status: ('A' for Active; 'I' for Inactive)
REMARK    1  A    between atoms: C_2  and  C_17
REMARK    2  A    between atoms: N_3  and  C_4
REMARK    3  A    between atoms: C_8  and  C_9
REMARK                            x       y       z     vdW  Elec       q    Type
REMARK                         _______ _______ _______ _____ _____    ______ ____
ROOT
ATOM      1  O   UNL     1       2.047   7.756  18.109  0.00  0.00    +0.000 OA
ATOM      2  C   UNL     1       2.727   7.287  19.027  0.00  0.00    +0.000 C 
ATOM      3  N   UNL     1       2.354   7.572  20.314  0.00  0.00    +0.000 N 
ATOM      4  H   UNL     1       3.159   7.814  20.863  0.00  0.00    +0.000 HD
ENDROOT
BRANCH   2   5
ATOM      5  C   UNL     1       3.857   6.112  18.923  0.00  0.00    +0.000 C 
ATOM      6  C   UNL     1       3.425   4.492  19.645  0.00  0.00    +0.000 A 
ATOM      7  C   UNL     1       3.064   3.209  20.199  0.00  0.00    +0.000 A 
ATOM      8  C   UNL     1       1.792   2.184  20.041  0.00  0.00    +0.000 A 
ATOM      9  C   UNL     1       0.755   2.425  19.246  0.00  0.00    +0.000 A 
ATOM     10  C   UNL     1       1.049   3.583  18.652  0.00  0.00    +0.000 A 
ATOM     11  C   UNL     1       2.317   4.327  18.772  0.00  0.00    +0.000 A 
ATOM     12  O   UNL     1       2.420   4.747  17.449  0.00  0.00    +0.000 OA
ATOM     13  C   UNL     1       3.691   4.792  17.042  0.00  0.00    +0.000 A 
ATOM     14  C   UNL     1       4.535   3.725  16.982  0.00  0.00    +0.000 A 
ATOM     15  C   UNL     1       5.713   3.934  16.312  0.00  0.00    +0.000 A 
ATOM     16  C   UNL     1       6.071   5.224  15.944  0.00  0.00    +0.000 A 
ATOM     17  C   UNL     1       5.395   6.290  16.567  0.00  0.00    +0.000 A 
ATOM     18  C   UNL     1       4.248   5.989  17.324  0.00  0.00    +0.000 A 
ENDBRANCH   2   5
BRANCH   3  19
ATOM     19  C   UNL     1       1.236   8.369  20.570  0.00  0.00    +0.000 A 
ATOM     20  C   UNL     1       0.461   7.855  21.578  0.00  0.00    +0.000 A 
ATOM     21  C   UNL     1      -0.394   8.706  22.232  0.00  0.00    +0.000 A 
ATOM     22  C   UNL     1      -0.350  10.080  21.981  0.00  0.00    +0.000 A 
ATOM     23  C   UNL     1       0.508  10.637  21.048  0.00  0.00    +0.000 A 
ATOM     24  C   UNL     1       1.151   9.735  20.202  0.00  0.00    +0.000 A 
BRANCH  23  25
ATOM     25  C   UNL     1       0.722  12.134  20.953  0.00  0.00    +0.000 C 
ATOM     26  O   UNL     1       1.645  12.694  21.538  0.00  0.00    +0.000 OA
ATOM     27  N   UNL     1      -0.059  12.886  20.099  0.00  0.00    +0.000 N 
ATOM     28  C   UNL     1      -1.201  12.524  19.278  0.00  0.00    +0.000 C 
ATOM     29  C   UNL     1      -0.836  13.159  17.949  0.00  0.00    +0.000 C 
ATOM     30  C   UNL     1      -0.189  14.480  18.375  0.00  0.00    +0.000 C 
ATOM     31  C   UNL     1       0.430  14.197  19.742  0.00  0.00    +0.000 C 
ENDBRANCH  23  25
ENDBRANCH   3  19
TORSDOF 3
ENDMDL
MODEL 8
REMARK VINA RESULT:      -8.6      1.607      1.798
REMARK  Name = 
REMARK  3 active torsions:
REMARK  status: ('A' for Active; 'I' for Inactive)
REMARK    1  A    between atoms: C_2  and  C_17
REMARK    2  A    between atoms: N_3  and  C_4
REMARK    3  A    between atoms: C_8  and  C_9
REMARK                            x       y       z     vdW  Elec       q    Type
REMARK                         _______ _______ _______ _____ _____    ______ ____
ROOT
ATOM      1  O   UNL     1       1.830   7.775  18.130  0.00  0.00    +0.000 OA
ATOM      2  C   UNL     1       2.575   7.414  19.046  0.00  0.00    +0.000 C 
ATOM      3  N   UNL     1       2.261   7.802  20.321  0.00  0.00    +0.000 N 
ATOM      4  H   UNL     1       3.084   8.118  20.801  0.00  0.00    +0.000 HD
ENDROOT
BRANCH   2   5
ATOM      5  C   UNL     1       3.740   6.271  18.982  0.00  0.00    +0.000 C 
ATOM      6  C   UNL     1       3.358   4.664  19.759  0.00  0.00    +0.000 A 
ATOM      7  C   UNL     1       3.036   3.390  20.358  0.00  0.00    +0.000 A 
ATOM      8  C   UNL     1       1.796   2.323  20.235  0.00  0.00    +0.000 A 
ATOM      9  C   UNL     1       0.753   2.503  19.432  0.00  0.00    +0.000 A 
ATOM     10  C   UNL     1       1.012   3.649  18.798  0.00  0.00    +0.000 A 
ATOM     11  C   UNL     1       2.256   4.435  18.893  0.00  0.00    +0.000 A 
ATOM     12  O   UNL     1       2.347   4.812  17.556  0.00  0.00    +0.000 OA
ATOM     13  C   UNL     1       3.617   4.883  17.148  0.00  0.00    +0.000 A 
ATOM     14  C   UNL     1       4.493   3.841  17.124  0.00  0.00    +0.000 A 
ATOM     15  C   UNL     1       5.665   4.063  16.448  0.00  0.00    +0.000 A 
ATOM     16  C   UNL     1       5.984   5.349  16.035  0.00  0.00    +0.000 A 
ATOM     17  C   UNL     1       5.275   6.415  16.621  0.00  0.00    +0.000 A 
ATOM     18  C   UNL     1       4.137   6.105  17.388  0.00  0.00    +0.000 A 
ENDBRANCH   2   5
BRANCH   3  19
ATOM     19  C   UNL     1       1.129   8.582  20.569  0.00  0.00    +0.000 A 
ATOM     20  C   UNL     1       0.341   8.043  21.552  0.00  0.00    +0.000 A 
ATOM     21  C   UNL     1      -0.537   8.873  22.204  0.00  0.00    +0.000 A 
ATOM     22  C   UNL     1      -0.503  10.252  21.977  0.00  0.00    +0.000 A 
ATOM     23  C   UNL     1       0.367  10.833  21.070  0.00  0.00    +0.000 A 
ATOM     24  C   UNL     1       1.036   9.953  20.222  0.00  0.00    +0.000 A 
BRANCH  23  25
ATOM     25  C   UNL     1       0.566  12.335  21.004  0.00  0.00    +0.000 C 
ATOM     26  O   UNL     1       0.457  13.045  22.000  0.00  0.00    +0.000 OA
ATOM     27  N   UNL     1       0.996  12.918  19.831  0.00  0.00    +0.000 N 
ATOM     28  C   UNL     1       1.222  12.359  18.509  0.00  0.00    +0.000 C 
ATOM     29  C   UNL     1       2.584  12.933  18.163  0.00  0.00    +0.000 C 
ATOM     30  C   UNL     1       2.505  14.351  18.735  0.00  0.00    +0.000 C 
ATOM     31  C   UNL     1       1.550  14.249  19.922  0.00  0.00    +0.000 C 
ENDBRANCH  23  25
ENDBRANCH   3  19
TORSDOF 3
ENDMDL
MODEL 9
REMARK VINA RESULT:      -8.6      2.609      4.102
REMARK  Name = 
REMARK  3 active torsions:
REMARK  status: ('A' for Active; 'I' for Inactive)
REMARK    1  A    between atoms: C_2  and  C_17
REMARK    2  A    between atoms: N_3  and  C_4
REMARK    3  A    between atoms: C_8  and  C_9
REMARK                            x       y       z     vdW  Elec       q    Type
REMARK                         _______ _______ _______ _____ _____    ______ ____
ROOT
ATOM      1  O   UNL     1       1.165   7.816  20.899  0.00  0.00    +0.000 OA
ATOM      2  C   UNL     1       1.819   7.736  19.855  0.00  0.00    +0.000 C 
ATOM      3  N   UNL     1       1.632   8.703  18.903  0.00  0.00    +0.000 N 
ATOM      4  H   UNL     1       1.563   8.285  17.993  0.00  0.00    +0.000 HD
ENDROOT
BRANCH   2   5
ATOM      5  C   UNL     1       3.115   6.784  19.568  0.00  0.00    +0.000 C 
ATOM      6  C   UNL     1       3.070   5.101  20.275  0.00  0.00    +0.000 A 
ATOM      7  C   UNL     1       3.013   3.766  20.821  0.00  0.00    +0.000 A 
ATOM      8  C   UNL     1       1.930   2.533  20.781  0.00  0.00    +0.000 A 
ATOM      9  C   UNL     1       0.774   2.596  20.130  0.00  0.00    +0.000 A 
ATOM     10  C   UNL     1       0.783   3.798  19.548  0.00  0.00    +0.000 A 
ATOM     11  C   UNL     1       1.905   4.754  19.540  0.00  0.00    +0.000 A 
ATOM     12  O   UNL     1       1.762   5.206  18.231  0.00  0.00    +0.000 OA
ATOM     13  C   UNL     1       2.943   5.485  17.673  0.00  0.00    +0.000 A 
ATOM     14  C   UNL     1       3.946   4.586  17.469  0.00  0.00    +0.000 A 
ATOM     15  C   UNL     1       4.974   5.013  16.667  0.00  0.00    +0.000 A 
ATOM     16  C   UNL     1       5.051   6.351  16.307  0.00  0.00    +0.000 A 
ATOM     17  C   UNL     1       4.284   7.270  17.049  0.00  0.00    +0.000 A 
ATOM     18  C   UNL     1       3.314   6.757  17.930  0.00  0.00    +0.000 A 
ENDBRANCH   2   5
BRANCH   3  19
ATOM     19  C   UNL     1       0.727   9.745  19.116  0.00  0.00    +0.000 A 
ATOM     20  C   UNL     1       1.358  10.903  19.492  0.00  0.00    +0.000 A 
ATOM     21  C   UNL     1       0.692  12.089  19.315  0.00  0.00    +0.000 A 
ATOM     22  C   UNL     1      -0.522  12.117  18.623  0.00  0.00    +0.000 A 
ATOM     23  C   UNL     1      -1.124  10.971  18.132  0.00  0.00    +0.000 A 
ATOM     24  C   UNL     1      -0.581   9.766  18.571  0.00  0.00    +0.000 A 
BRANCH  23  25
ATOM     25  C   UNL     1      -2.305  11.033  17.183  0.00  0.00    +0.000 C 
ATOM     26  O   UNL     1      -2.256  10.545  16.057  0.00  0.00    +0.000 OA
ATOM     27  N   UNL     1      -3.510  11.542  17.621  0.00  0.00    +0.000 N 
ATOM     28  C   UNL     1      -3.885  12.172  18.875  0.00  0.00    +0.000 C 
ATOM     29  C   UNL     1      -5.172  11.441  19.211  0.00  0.00    +0.000 C 
ATOM     30  C   UNL     1      -5.838  11.286  17.840  0.00  0.00    +0.000 C 
ATOM     31  C   UNL     1      -4.683  11.216  16.843  0.00  0.00    +0.000 C 
ENDBRANCH  23  25
ENDBRANCH   3  19
TORSDOF 3
ENDMDL
