MODEL 1
REMARK VINA RESULT:      -8.6      0.000      0.000
REMARK  Name = 
REMARK  4 active torsions:
REMARK  status: ('A' for Active; 'I' for Inactive)
REMARK    1  A    between atoms: C_1  and  C_2
REMARK    2  A    between atoms: C_5  and  C_6
REMARK    3  A    between atoms: C_14  and  S_15
REMARK    4  A    between atoms: S_15  and  N_18
REMARK                            x       y       z     vdW  Elec       q    Type
REMARK                         _______ _______ _______ _____ _____    ______ ____
ROOT
ATOM      1  C   UNL     1      -0.414  10.699  22.378  0.00  0.00    +0.000 C 
ATOM      2  O   UNL     1      -0.007   9.979  23.289  0.00  0.00    +0.000 OA
ATOM      3  N   UNL     1      -0.194  10.488  20.998  0.00  0.00    +0.000 N 
ATOM      4  C   UNL     1      -0.870  11.246  19.927  0.00  0.00    +0.000 C 
ATOM      5  C   UNL     1       0.172  11.789  18.966  0.00  0.00    +0.000 C 
ATOM      6  C   UNL     1       0.778  10.607  18.223  0.00  0.00    +0.000 C 
ATOM      7  C   UNL     1       1.088   9.446  19.145  0.00  0.00    +0.000 A 
ATOM      8  C   UNL     1       1.845   8.377  18.620  0.00  0.00    +0.000 A 
ATOM      9  C   UNL     1       2.211   7.308  19.440  0.00  0.00    +0.000 A 
ATOM     10  C   UNL     1       1.876   7.325  20.788  0.00  0.00    +0.000 A 
ATOM     11  C   UNL     1       1.091   8.360  21.299  0.00  0.00    +0.000 A 
ATOM     12  C   UNL     1       0.659   9.426  20.499  0.00  0.00    +0.000 A 
ENDROOT
BRANCH   1  17
ATOM     13  C   UNL     1      -3.291  15.390  24.196  0.00  0.00    +0.000 C 
ATOM     14  C   UNL     1      -2.548  14.190  23.699  0.00  0.00    +0.000 A 
ATOM     15  C   UNL     1      -1.279  14.300  23.125  0.00  0.00    +0.000 A 
ATOM     16  C   UNL     1      -0.596  13.151  22.717  0.00  0.00    +0.000 A 
ATOM     17  C   UNL     1      -1.179  11.881  22.862  0.00  0.00    +0.000 A 
ATOM     18  C   UNL     1      -2.486  11.784  23.338  0.00  0.00    +0.000 A 
ATOM     19  C   UNL     1      -3.134  12.925  23.796  0.00  0.00    +0.000 A 
ATOM     20  F   UNL     1      -4.348  12.794  24.348  0.00  0.00    +0.000 F 
ENDBRANCH   1  17
BRANCH   9  21
ATOM     21  S   UNL     1       3.201   5.969  18.807  0.00  0.00    +0.000 S 
ATOM     22  O   UNL     1       3.809   6.426  17.574  0.00  0.00    +0.000 OA
ATOM     23  O   UNL     1       4.026   5.487  19.898  0.00  0.00    +0.000 OA
BRANCH  21  24
ATOM     24  N   UNL     1       2.088   4.760  18.425  0.00  0.00    +0.000 NA
ATOM     25  C   UNL     1       1.382   4.064  19.511  0.00  0.00    +0.000 C 
ATOM     26  C   UNL     1       1.945   2.658  19.474  0.00  0.00    +0.000 C 
ATOM     27  C   UNL     1       2.196   2.402  17.999  0.00  0.00    +0.000 C 
ATOM     28  C   UNL     1       2.424   3.776  17.373  0.00  0.00    +0.000 C 
ENDBRANCH  21  24
ENDBRANCH   9  21
TORSDOF 3
ENDMDL
MODEL 2
REMARK VINA RESULT:      -8.6      1.112      1.451
REMARK  Name = 
REMARK  4 active torsions:
REMARK  status: ('A' for Active; 'I' for Inactive)
REMARK    1  A    between atoms: C_1  and  C_2
REMARK    2  A    between atoms: C_5  and  C_6
REMARK    3  A    between atoms: C_14  and  S_15
REMARK    4  A    between atoms: S_15  and  N_18
REMARK                            x       y       z     vdW  Elec       q    Type
REMARK                         _______ _______ _______ _____ _____    ______ ____
ROOT
ATOM      1  C   UNL     1       0.261   9.880  21.883  0.00  0.00    +0.000 C 
ATOM      2  O   UNL     1       0.624   9.182  22.830  0.00  0.00    +0.000 OA
ATOM      3  N   UNL     1       0.508   9.612  20.518  0.00  0.00    +0.000 N 
ATOM      4  C   UNL     1      -0.118  10.350  19.404  0.00  0.00    +0.000 C 
ATOM      5  C   UNL     1       0.963  10.826  18.450  0.00  0.00    +0.000 C 
ATOM      6  C   UNL     1       1.551   9.601  17.766  0.00  0.00    +0.000 C 
ATOM      7  C   UNL     1       1.804   8.466  18.737  0.00  0.00    +0.000 A 
ATOM      8  C   UNL     1       2.541   7.357  18.270  0.00  0.00    +0.000 A 
ATOM      9  C   UNL     1       2.854   6.308  19.137  0.00  0.00    +0.000 A 
ATOM     10  C   UNL     1       2.487   6.385  20.475  0.00  0.00    +0.000 A 
ATOM     11  C   UNL     1       1.722   7.460  20.929  0.00  0.00    +0.000 A 
ATOM     12  C   UNL     1       1.341   8.508  20.079  0.00  0.00    +0.000 A 
ENDROOT
BRANCH   1  17
ATOM     13  C   UNL     1      -2.539  14.714  23.429  0.00  0.00    +0.000 C 
ATOM     14  C   UNL     1      -1.821  13.472  23.002  0.00  0.00    +0.000 A 
ATOM     15  C   UNL     1      -0.670  13.527  22.210  0.00  0.00    +0.000 A 
ATOM     16  C   UNL     1       0.001  12.349  21.872  0.00  0.00    +0.000 A 
ATOM     17  C   UNL     1      -0.479  11.101  22.305  0.00  0.00    +0.000 A 
ATOM     18  C   UNL     1      -1.684  11.042  23.005  0.00  0.00    +0.000 A 
ATOM     19  C   UNL     1      -2.311  12.222  23.387  0.00  0.00    +0.000 A 
ATOM     20  F   UNL     1      -3.411  12.144  24.150  0.00  0.00    +0.000 F 
ENDBRANCH   1  17
BRANCH   9  21
ATOM     21  S   UNL     1       3.819   4.919  18.579  0.00  0.00    +0.000 S 
ATOM     22  O   UNL     1       3.958   5.038  17.142  0.00  0.00    +0.000 OA
ATOM     23  O   UNL     1       4.994   4.839  19.426  0.00  0.00    +0.000 OA
BRANCH  21  24
ATOM     24  N   UNL     1       2.854   3.573  18.902  0.00  0.00    +0.000 NA
ATOM     25  C   UNL     1       1.421   3.623  18.580  0.00  0.00    +0.000 C 
ATOM     26  C   UNL     1       0.740   3.628  19.934  0.00  0.00    +0.000 C 
ATOM     27  C   UNL     1       1.633   2.754  20.797  0.00  0.00    +0.000 C 
ATOM     28  C   UNL     1       3.027   2.852  20.182  0.00  0.00    +0.000 C 
ENDBRANCH  21  24
ENDBRANCH   9  21
TORSDOF 3
ENDMDL
MODEL 3
REMARK VINA RESULT:      -8.4      1.876      2.644
REMARK  Name = 
REMARK  4 active torsions:
REMARK  status: ('A' for Active; 'I' for Inactive)
REMARK    1  A    between atoms: C_1  and  C_2
REMARK    2  A    between atoms: C_5  and  C_6
REMARK    3  A    between atoms: C_14  and  S_15
REMARK    4  A    between atoms: S_15  and  N_18
REMARK                            x       y       z     vdW  Elec       q    Type
REMARK                         _______ _______ _______ _____ _____    ______ ____
ROOT
ATOM      1  C   UNL     1       0.763   9.386  21.437  0.00  0.00    +0.000 C 
ATOM      2  O   UNL     1       0.983   8.704  22.437  0.00  0.00    +0.000 OA
ATOM      3  N   UNL     1       1.084   9.029  20.108  0.00  0.00    +0.000 N 
ATOM      4  C   UNL     1       0.619   9.768  18.918  0.00  0.00    +0.000 C 
ATOM      5  C   UNL     1       1.810  10.091  18.034  0.00  0.00    +0.000 C 
ATOM      6  C   UNL     1       2.322   8.783  17.450  0.00  0.00    +0.000 C 
ATOM      7  C   UNL     1       2.388   7.678  18.484  0.00  0.00    +0.000 A 
ATOM      8  C   UNL     1       3.044   6.482  18.124  0.00  0.00    +0.000 A 
ATOM      9  C   UNL     1       3.187   5.452  19.056  0.00  0.00    +0.000 A 
ATOM     10  C   UNL     1       2.730   5.629  20.356  0.00  0.00    +0.000 A 
ATOM     11  C   UNL     1       2.044   6.794  20.702  0.00  0.00    +0.000 A 
ATOM     12  C   UNL     1       1.833   7.830  19.783  0.00  0.00    +0.000 A 
ENDROOT
BRANCH   1  17
ATOM     13  C   UNL     1      -1.815  14.405  22.765  0.00  0.00    +0.000 C 
ATOM     14  C   UNL     1      -1.140  13.107  22.449  0.00  0.00    +0.000 A 
ATOM     15  C   UNL     1      -1.517  11.915  23.075  0.00  0.00    +0.000 A 
ATOM     16  C   UNL     1      -0.897  10.714  22.719  0.00  0.00    +0.000 A 
ATOM     17  C   UNL     1       0.118  10.692  21.748  0.00  0.00    +0.000 A 
ATOM     18  C   UNL     1       0.563  11.896  21.203  0.00  0.00    +0.000 A 
ATOM     19  C   UNL     1      -0.099  13.076  21.518  0.00  0.00    +0.000 A 
ATOM     20  F   UNL     1       0.276  14.206  20.902  0.00  0.00    +0.000 F 
ENDBRANCH   1  17
BRANCH   9  21
ATOM     21  S   UNL     1       4.048   3.951  18.634  0.00  0.00    +0.000 S 
ATOM     22  O   UNL     1       4.063   3.853  17.189  0.00  0.00    +0.000 OA
ATOM     23  O   UNL     1       5.289   3.938  19.384  0.00  0.00    +0.000 OA
BRANCH  21  24
ATOM     24  N   UNL     1       3.067   2.715  19.233  0.00  0.00    +0.000 NA
ATOM     25  C   UNL     1       1.748   2.487  18.626  0.00  0.00    +0.000 C 
ATOM     26  C   UNL     1       0.770   2.905  19.706  0.00  0.00    +0.000 C 
ATOM     27  C   UNL     1       1.458   2.506  20.998  0.00  0.00    +0.000 C 
ATOM     28  C   UNL     1       2.955   2.528  20.695  0.00  0.00    +0.000 C 
ENDBRANCH  21  24
ENDBRANCH   9  21
TORSDOF 3
ENDMDL
MODEL 4
REMARK VINA RESULT:      -8.4      0.890      1.271
REMARK  Name = 
REMARK  4 active torsions:
REMARK  status: ('A' for Active; 'I' for Inactive)
REMARK    1  A    between atoms: C_1  and  C_2
REMARK    2  A    between atoms: C_5  and  C_6
REMARK    3  A    between atoms: C_14  and  S_15
REMARK    4  A    between atoms: S_15  and  N_18
REMARK                            x       y       z     vdW  Elec       q    Type
REMARK                         _______ _______ _______ _____ _____    ______ ____
ROOT
ATOM      1  C   UNL     1      -0.643  10.843  22.444  0.00  0.00    +0.000 C 
ATOM      2  O   UNL     1      -0.313  10.082  23.353  0.00  0.00    +0.000 OA
ATOM      3  N   UNL     1      -0.353  10.665  21.073  0.00  0.00    +0.000 N 
ATOM      4  C   UNL     1      -0.940  11.480  19.991  0.00  0.00    +0.000 C 
ATOM      5  C   UNL     1       0.172  12.012  19.107  0.00  0.00    +0.000 C 
ATOM      6  C   UNL     1       0.777  10.831  18.361  0.00  0.00    +0.000 C 
ATOM      7  C   UNL     1       0.994   9.632  19.261  0.00  0.00    +0.000 A 
ATOM      8  C   UNL     1       1.741   8.552  18.745  0.00  0.00    +0.000 A 
ATOM      9  C   UNL     1       2.023   7.446  19.550  0.00  0.00    +0.000 A 
ATOM     10  C   UNL     1       1.613   7.436  20.877  0.00  0.00    +0.000 A 
ATOM     11  C   UNL     1       0.838   8.484  21.377  0.00  0.00    +0.000 A 
ATOM     12  C   UNL     1       0.489   9.588  20.588  0.00  0.00    +0.000 A 
ENDROOT
BRANCH   1  17
ATOM     13  C   UNL     1      -3.664  15.403  24.363  0.00  0.00    +0.000 C 
ATOM     14  C   UNL     1      -2.886  14.213  23.894  0.00  0.00    +0.000 A 
ATOM     15  C   UNL     1      -3.443  12.931  23.885  0.00  0.00    +0.000 A 
ATOM     16  C   UNL     1      -2.702  11.852  23.394  0.00  0.00    +0.000 A 
ATOM     17  C   UNL     1      -1.392  12.037  22.923  0.00  0.00    +0.000 A 
ATOM     18  C   UNL     1      -0.803  13.297  23.030  0.00  0.00    +0.000 A 
ATOM     19  C   UNL     1      -1.566  14.375  23.464  0.00  0.00    +0.000 A 
ATOM     20  F   UNL     1      -1.013  15.595  23.459  0.00  0.00    +0.000 F 
ENDBRANCH   1  17
BRANCH   9  21
ATOM     21  S   UNL     1       2.999   6.092  18.930  0.00  0.00    +0.000 S 
ATOM     22  O   UNL     1       3.545   6.501  17.652  0.00  0.00    +0.000 OA
ATOM     23  O   UNL     1       3.879   5.666  20.002  0.00  0.00    +0.000 OA
BRANCH  21  24
ATOM     24  N   UNL     1       1.885   4.856  18.653  0.00  0.00    +0.000 NA
ATOM     25  C   UNL     1       1.375   4.079  19.792  0.00  0.00    +0.000 C 
ATOM     26  C   UNL     1       1.975   2.701  19.595  0.00  0.00    +0.000 C 
ATOM     27  C   UNL     1       2.011   2.529  18.087  0.00  0.00    +0.000 C 
ATOM     28  C   UNL     1       2.093   3.940  17.510  0.00  0.00    +0.000 C 
ENDBRANCH  21  24
ENDBRANCH   9  21
TORSDOF 3
ENDMDL
MODEL 5
REMARK VINA RESULT:      -8.3      1.280      1.634
REMARK  Name = 
REMARK  4 active torsions:
REMARK  status: ('A' for Active; 'I' for Inactive)
REMARK    1  A    between atoms: C_1  and  C_2
REMARK    2  A    between atoms: C_5  and  C_6
REMARK    3  A    between atoms: C_14  and  S_15
REMARK    4  A    between atoms: S_15  and  N_18
REMARK                            x       y       z     vdW  Elec       q    Type
REMARK                         _______ _______ _______ _____ _____    ______ ____
ROOT
ATOM      1  C   UNL     1      -0.061  10.455  22.000  0.00  0.00    +0.000 C 
ATOM      2  O   UNL     1       0.223   9.742  22.962  0.00  0.00    +0.000 OA
ATOM      3  N   UNL     1       0.244  10.177  20.649  0.00  0.00    +0.000 N 
ATOM      4  C   UNL     1      -0.292  10.941  19.506  0.00  0.00    +0.000 C 
ATOM      5  C   UNL     1       0.855  11.371  18.610  0.00  0.00    +0.000 C 
ATOM      6  C   UNL     1       1.425  10.121  17.954  0.00  0.00    +0.000 C 
ATOM      7  C   UNL     1       1.579   8.977  18.934  0.00  0.00    +0.000 A 
ATOM      8  C   UNL     1       2.292   7.837  18.503  0.00  0.00    +0.000 A 
ATOM      9  C   UNL     1       2.515   6.776  19.383  0.00  0.00    +0.000 A 
ATOM     10  C   UNL     1       2.083   6.868  20.700  0.00  0.00    +0.000 A 
ATOM     11  C   UNL     1       1.342   7.975  21.116  0.00  0.00    +0.000 A 
ATOM     12  C   UNL     1       1.051   9.038  20.251  0.00  0.00    +0.000 A 
ENDROOT
BRANCH   1  17
ATOM     13  C   UNL     1      -2.911  15.245  23.588  0.00  0.00    +0.000 C 
ATOM     14  C   UNL     1      -2.173  14.001  23.206  0.00  0.00    +0.000 A 
ATOM     15  C   UNL     1      -2.679  12.731  23.497  0.00  0.00    +0.000 A 
ATOM     16  C   UNL     1      -1.984  11.591  23.082  0.00  0.00    +0.000 A 
ATOM     17  C   UNL     1      -0.769  11.706  22.386  0.00  0.00    +0.000 A 
ATOM     18  C   UNL     1      -0.216  12.971  22.190  0.00  0.00    +0.000 A 
ATOM     19  C   UNL     1      -0.942  14.099  22.553  0.00  0.00    +0.000 A 
ATOM     20  F   UNL     1      -0.439  15.307  22.260  0.00  0.00    +0.000 F 
ENDBRANCH   1  17
BRANCH   9  21
ATOM     21  S   UNL     1       3.447   5.347  18.871  0.00  0.00    +0.000 S 
ATOM     22  O   UNL     1       3.362   5.269  17.427  0.00  0.00    +0.000 OA
ATOM     23  O   UNL     1       4.739   5.414  19.528  0.00  0.00    +0.000 OA
BRANCH  21  24
ATOM     24  N   UNL     1       2.605   4.035  19.518  0.00  0.00    +0.000 NA
ATOM     25  C   UNL     1       3.308   2.761  19.722  0.00  0.00    +0.000 C 
ATOM     26  C   UNL     1       2.683   1.829  18.703  0.00  0.00    +0.000 C 
ATOM     27  C   UNL     1       1.233   2.276  18.638  0.00  0.00    +0.000 C 
ATOM     28  C   UNL     1       1.236   3.750  19.038  0.00  0.00    +0.000 C 
ENDBRANCH  21  24
ENDBRANCH   9  21
TORSDOF 3
ENDMDL
MODEL 6
REMARK VINA RESULT:      -8.3      2.232      2.808
REMARK  Name = 
REMARK  4 active torsions:
REMARK  status: ('A' for Active; 'I' for Inactive)
REMARK    1  A    between atoms: C_1  and  C_2
REMARK    2  A    between atoms: C_5  and  C_6
REMARK    3  A    between atoms: C_14  and  S_15
REMARK    4  A    between atoms: S_15  and  N_18
REMARK                            x       y       z     vdW  Elec       q    Type
REMARK                         _______ _______ _______ _____ _____    ______ ____
ROOT
ATOM      1  C   UNL     1       0.184   9.940  21.741  0.00  0.00    +0.000 C 
ATOM      2  O   UNL     1       0.371   9.152  22.668  0.00  0.00    +0.000 OA
ATOM      3  N   UNL     1       0.566   9.737  20.395  0.00  0.00    +0.000 N 
ATOM      4  C   UNL     1       0.143  10.601  19.276  0.00  0.00    +0.000 C 
ATOM      5  C   UNL     1       1.365  11.031  18.487  0.00  0.00    +0.000 C 
ATOM      6  C   UNL     1       1.919   9.800  17.783  0.00  0.00    +0.000 C 
ATOM      7  C   UNL     1       1.956   8.587  18.690  0.00  0.00    +0.000 A 
ATOM      8  C   UNL     1       2.642   7.444  18.227  0.00  0.00    +0.000 A 
ATOM      9  C   UNL     1       2.758   6.317  19.044  0.00  0.00    +0.000 A 
ATOM     10  C   UNL     1       2.244   6.344  20.334  0.00  0.00    +0.000 A 
ATOM     11  C   UNL     1       1.529   7.457  20.778  0.00  0.00    +0.000 A 
ATOM     12  C   UNL     1       1.344   8.588  19.971  0.00  0.00    +0.000 A 
ENDROOT
BRANCH   1  17
ATOM     13  C   UNL     1      -2.522  14.755  23.499  0.00  0.00    +0.000 C 
ATOM     14  C   UNL     1      -1.817  13.505  23.072  0.00  0.00    +0.000 A 
ATOM     15  C   UNL     1      -2.258  12.242  23.476  0.00  0.00    +0.000 A 
ATOM     16  C   UNL     1      -1.603  11.095  23.018  0.00  0.00    +0.000 A 
ATOM     17  C   UNL     1      -0.490  11.197  22.167  0.00  0.00    +0.000 A 
ATOM     18  C   UNL     1       0.010  12.460  21.852  0.00  0.00    +0.000 A 
ATOM     19  C   UNL     1      -0.682  13.593  22.262  0.00  0.00    +0.000 A 
ATOM     20  F   UNL     1      -0.243  14.793  21.859  0.00  0.00    +0.000 F 
ENDBRANCH   1  17
BRANCH   9  21
ATOM     21  S   UNL     1       3.656   4.880  18.495  0.00  0.00    +0.000 S 
ATOM     22  O   UNL     1       3.967   4.090  19.669  0.00  0.00    +0.000 OA
ATOM     23  O   UNL     1       2.912   4.299  17.394  0.00  0.00    +0.000 OA
BRANCH  21  24
ATOM     24  N   UNL     1       5.102   5.493  17.877  0.00  0.00    +0.000 NA
ATOM     25  C   UNL     1       5.383   5.360  16.440  0.00  0.00    +0.000 C 
ATOM     26  C   UNL     1       6.528   4.370  16.379  0.00  0.00    +0.000 C 
ATOM     27  C   UNL     1       7.342   4.674  17.624  0.00  0.00    +0.000 C 
ATOM     28  C   UNL     1       6.358   5.272  18.627  0.00  0.00    +0.000 C 
ENDBRANCH  21  24
ENDBRANCH   9  21
TORSDOF 3
ENDMDL
MODEL 7
REMARK VINA RESULT:      -8.2      1.983      2.472
REMARK  Name = 
REMARK  4 active torsions:
REMARK  status: ('A' for Active; 'I' for Inactive)
REMARK    1  A    between atoms: C_1  and  C_2
REMARK    2  A    between atoms: C_5  and  C_6
REMARK    3  A    between atoms: C_14  and  S_15
REMARK    4  A    between atoms: S_15  and  N_18
REMARK                            x       y       z     vdW  Elec       q    Type
REMARK                         _______ _______ _______ _____ _____    ______ ____
ROOT
ATOM      1  C   UNL     1       0.199   9.902  21.786  0.00  0.00    +0.000 C 
ATOM      2  O   UNL     1       0.400   9.090  22.689  0.00  0.00    +0.000 OA
ATOM      3  N   UNL     1       0.553   9.731  20.429  0.00  0.00    +0.000 N 
ATOM      4  C   UNL     1       0.113  10.625  19.341  0.00  0.00    +0.000 C 
ATOM      5  C   UNL     1       1.322  11.069  18.538  0.00  0.00    +0.000 C 
ATOM      6  C   UNL     1       1.855   9.854  17.793  0.00  0.00    +0.000 C 
ATOM      7  C   UNL     1       1.903   8.618  18.668  0.00  0.00    +0.000 A 
ATOM      8  C   UNL     1       2.574   7.484  18.163  0.00  0.00    +0.000 A 
ATOM      9  C   UNL     1       2.700   6.337  18.948  0.00  0.00    +0.000 A 
ATOM     10  C   UNL     1       2.212   6.333  20.249  0.00  0.00    +0.000 A 
ATOM     11  C   UNL     1       1.511   7.438  20.735  0.00  0.00    +0.000 A 
ATOM     12  C   UNL     1       1.317   8.590  19.961  0.00  0.00    +0.000 A 
ENDROOT
BRANCH   1  17
ATOM     13  C   UNL     1      -2.282  14.843  23.525  0.00  0.00    +0.000 C 
ATOM     14  C   UNL     1      -1.646  13.575  23.048  0.00  0.00    +0.000 A 
ATOM     15  C   UNL     1      -0.503  13.586  22.244  0.00  0.00    +0.000 A 
ATOM     16  C   UNL     1       0.091  12.381  21.859  0.00  0.00    +0.000 A 
ATOM     17  C   UNL     1      -0.460  11.151  22.257  0.00  0.00    +0.000 A 
ATOM     18  C   UNL     1      -1.658  11.143  22.971  0.00  0.00    +0.000 A 
ATOM     19  C   UNL     1      -2.208  12.345  23.399  0.00  0.00    +0.000 A 
ATOM     20  F   UNL     1      -3.301  12.310  24.174  0.00  0.00    +0.000 F 
ENDBRANCH   1  17
BRANCH   9  21
ATOM     21  S   UNL     1       3.579   4.910  18.345  0.00  0.00    +0.000 S 
ATOM     22  O   UNL     1       4.244   4.300  19.479  0.00  0.00    +0.000 OA
ATOM     23  O   UNL     1       2.654   4.141  17.536  0.00  0.00    +0.000 OA
BRANCH  21  24
ATOM     24  N   UNL     1       4.763   5.540  17.321  0.00  0.00    +0.000 NA
ATOM     25  C   UNL     1       5.090   4.829  16.077  0.00  0.00    +0.000 C 
ATOM     26  C   UNL     1       6.492   4.304  16.311  0.00  0.00    +0.000 C 
ATOM     27  C   UNL     1       7.150   5.380  17.156  0.00  0.00    +0.000 C 
ATOM     28  C   UNL     1       6.013   6.072  17.905  0.00  0.00    +0.000 C 
ENDBRANCH  21  24
ENDBRANCH   9  21
TORSDOF 3
ENDMDL
MODEL 8
REMARK VINA RESULT:      -8.2      2.694      3.670
REMARK  Name = 
REMARK  4 active torsions:
REMARK  status: ('A' for Active; 'I' for Inactive)
REMARK    1  A    between atoms: C_1  and  C_2
REMARK    2  A    between atoms: C_5  and  C_6
REMARK    3  A    between atoms: C_14  and  S_15
REMARK    4  A    between atoms: S_15  and  N_18
REMARK                            x       y       z     vdW  Elec       q    Type
REMARK                         _______ _______ _______ _____ _____    ______ ____
ROOT
ATOM      1  C   UNL     1       1.164  10.010  18.665  0.00  0.00    +0.000 C 
ATOM      2  O   UNL     1       1.564  10.136  17.508  0.00  0.00    +0.000 OA
ATOM      3  N   UNL     1       1.498   8.955  19.543  0.00  0.00    +0.000 N 
ATOM      4  C   UNL     1       1.175   8.944  20.983  0.00  0.00    +0.000 C 
ATOM      5  C   UNL     1       0.472   7.644  21.328  0.00  0.00    +0.000 C 
ATOM      6  C   UNL     1       1.487   6.518  21.193  0.00  0.00    +0.000 C 
ATOM      7  C   UNL     1       2.328   6.649  19.939  0.00  0.00    +0.000 A 
ATOM      8  C   UNL     1       3.155   5.560  19.589  0.00  0.00    +0.000 A 
ATOM      9  C   UNL     1       3.907   5.602  18.413  0.00  0.00    +0.000 A 
ATOM     10  C   UNL     1       3.797   6.694  17.560  0.00  0.00    +0.000 A 
ATOM     11  C   UNL     1       3.012   7.789  17.926  0.00  0.00    +0.000 A 
ATOM     12  C   UNL     1       2.282   7.810  19.122  0.00  0.00    +0.000 A 
ENDROOT
BRANCH   1  17
ATOM     13  C   UNL     1      -2.315  14.341  20.318  0.00  0.00    +0.000 C 
ATOM     14  C   UNL     1      -1.405  13.240  19.871  0.00  0.00    +0.000 A 
ATOM     15  C   UNL     1      -0.015  13.366  19.941  0.00  0.00    +0.000 A 
ATOM     16  C   UNL     1       0.802  12.298  19.559  0.00  0.00    +0.000 A 
ATOM     17  C   UNL     1       0.241  11.099  19.088  0.00  0.00    +0.000 A 
ATOM     18  C   UNL     1      -1.141  11.016  18.921  0.00  0.00    +0.000 A 
ATOM     19  C   UNL     1      -1.948  12.059  19.358  0.00  0.00    +0.000 A 
ATOM     20  F   UNL     1      -3.278  11.915  19.286  0.00  0.00    +0.000 F 
ENDBRANCH   1  17
BRANCH   9  21
ATOM     21  S   UNL     1       4.925   4.222  17.931  0.00  0.00    +0.000 S 
ATOM     22  O   UNL     1       5.452   4.512  16.614  0.00  0.00    +0.000 OA
ATOM     23  O   UNL     1       5.821   3.939  19.035  0.00  0.00    +0.000 OA
BRANCH  21  24
ATOM     24  N   UNL     1       3.850   2.928  17.792  0.00  0.00    +0.000 NA
ATOM     25  C   UNL     1       2.578   3.125  17.081  0.00  0.00    +0.000 C 
ATOM     26  C   UNL     1       1.530   3.037  18.172  0.00  0.00    +0.000 C 
ATOM     27  C   UNL     1       2.091   2.009  19.137  0.00  0.00    +0.000 C 
ATOM     28  C   UNL     1       3.607   2.062  18.966  0.00  0.00    +0.000 C 
ENDBRANCH  21  24
ENDBRANCH   9  21
TORSDOF 3
ENDMDL
MODEL 9
REMARK VINA RESULT:      -8.2      3.189      4.608
REMARK  Name = 
REMARK  4 active torsions:
REMARK  status: ('A' for Active; 'I' for Inactive)
REMARK    1  A    between atoms: C_1  and  C_2
REMARK    2  A    between atoms: C_5  and  C_6
REMARK    3  A    between atoms: C_14  and  S_15
REMARK    4  A    between atoms: S_15  and  N_18
REMARK                            x       y       z     vdW  Elec       q    Type
REMARK                         _______ _______ _______ _____ _____    ______ ____
ROOT
ATOM      1  C   UNL     1       1.203   9.632  19.013  0.00  0.00    +0.000 C 
ATOM      2  O   UNL     1       1.469  10.162  17.935  0.00  0.00    +0.000 OA
ATOM      3  N   UNL     1       1.743   8.417  19.492  0.00  0.00    +0.000 N 
ATOM      4  C   UNL     1       1.566   7.919  20.870  0.00  0.00    +0.000 C 
ATOM      5  C   UNL     1       1.060   6.489  20.823  0.00  0.00    +0.000 C 
ATOM      6  C   UNL     1       2.184   5.617  20.282  0.00  0.00    +0.000 C 
ATOM      7  C   UNL     1       2.877   6.245  19.090  0.00  0.00    +0.000 A 
ATOM      8  C   UNL     1       3.789   5.447  18.367  0.00  0.00    +0.000 A 
ATOM      9  C   UNL     1       4.412   5.954  17.226  0.00  0.00    +0.000 A 
ATOM     10  C   UNL     1       4.090   7.227  16.770  0.00  0.00    +0.000 A 
ATOM     11  C   UNL     1       3.221   8.033  17.507  0.00  0.00    +0.000 A 
ATOM     12  C   UNL     1       2.614   7.581  18.687  0.00  0.00    +0.000 A 
ENDROOT
BRANCH   1  17
ATOM     13  C   UNL     1      -2.781  12.609  21.990  0.00  0.00    +0.000 C 
ATOM     14  C   UNL     1      -1.773  11.823  21.212  0.00  0.00    +0.000 A 
ATOM     15  C   UNL     1      -1.841  11.720  19.820  0.00  0.00    +0.000 A 
ATOM     16  C   UNL     1      -0.854  11.017  19.123  0.00  0.00    +0.000 A 
ATOM     17  C   UNL     1       0.202  10.394  19.809  0.00  0.00    +0.000 A 
ATOM     18  C   UNL     1       0.208  10.410  21.204  0.00  0.00    +0.000 A 
ATOM     19  C   UNL     1      -0.743  11.161  21.884  0.00  0.00    +0.000 A 
ATOM     20  F   UNL     1      -0.655  11.249  23.219  0.00  0.00    +0.000 F 
ENDBRANCH   1  17
BRANCH   9  21
ATOM     21  S   UNL     1       5.535   4.949  16.276  0.00  0.00    +0.000 S 
ATOM     22  O   UNL     1       5.301   3.569  16.649  0.00  0.00    +0.000 OA
ATOM     23  O   UNL     1       5.423   5.365  14.891  0.00  0.00    +0.000 OA
BRANCH  21  24
ATOM     24  N   UNL     1       7.069   5.388  16.826  0.00  0.00    +0.000 NA
ATOM     25  C   UNL     1       7.675   4.640  17.936  0.00  0.00    +0.000 C 
ATOM     26  C   UNL     1       7.690   5.631  19.083  0.00  0.00    +0.000 C 
ATOM     27  C   UNL     1       7.935   6.968  18.409  0.00  0.00    +0.000 C 
ATOM     28  C   UNL     1       7.394   6.822  16.988  0.00  0.00    +0.000 C 
ENDBRANCH  21  24
ENDBRANCH   9  21
TORSDOF 3
ENDMDL
