MODEL 1
REMARK VINA RESULT:      -8.7      0.000      0.000
REMARK  Name = 
REMARK  4 active torsions:
REMARK  status: ('A' for Active; 'I' for Inactive)
REMARK    1  A    between atoms: C_1  and  N_2
REMARK    2  A    between atoms: N_2  and  C_3
REMARK    3  A    between atoms: N_2  and  C_15
REMARK    4  A    between atoms: C_3  and  C_4
REMARK                            x       y       z     vdW  Elec       q    Type
REMARK                         _______ _______ _______ _____ _____    ______ ____
ROOT
ATOM      1  C   UNL     1       2.629   7.000  19.770  0.00  0.00    +0.000 C 
ATOM      2  N   UNL     1       2.283   7.091  18.351  0.00  0.00    +0.000 NA
ENDROOT
BRANCH   2   3
ATOM      3  C   UNL     1       2.939   6.059  17.494  0.00  0.00    +0.000 C 
ATOM      4  C   UNL     1       4.486   6.076  17.612  0.00  0.00    +0.000 A 
ATOM      5  C   UNL     1       5.396   7.053  17.214  0.00  0.00    +0.000 A 
ATOM      6  C   UNL     1       6.755   6.870  17.489  0.00  0.00    +0.000 A 
ATOM      7  C   UNL     1       7.210   5.690  18.090  0.00  0.00    +0.000 A 
ATOM      8  C   UNL     1       6.313   4.672  18.417  0.00  0.00    +0.000 A 
ATOM      9  C   UNL     1       4.958   4.876  18.182  0.00  0.00    +0.000 A 
ATOM     10  C   UNL     1       3.846   3.981  18.391  0.00  0.00    +0.000 A 
ATOM     11  C   UNL     1       3.838   2.680  18.881  0.00  0.00    +0.000 A 
ATOM     12  C   UNL     1       2.626   1.991  18.939  0.00  0.00    +0.000 A 
ATOM     13  C   UNL     1       1.451   2.587  18.467  0.00  0.00    +0.000 A 
ATOM     14  C   UNL     1       1.471   3.883  17.946  0.00  0.00    +0.000 A 
ATOM     15  C   UNL     1       2.659   4.607  17.955  0.00  0.00    +0.000 A 
ENDBRANCH   2   3
BRANCH   2  16
ATOM     16  C   UNL     1       2.451   8.488  17.892  0.00  0.00    +0.000 C 
BRANCH  16  17
ATOM     17  C   UNL     1       1.253   9.378  18.217  0.00  0.00    +0.000 A 
ATOM     18  N   UNL     1       0.114   9.235  17.614  0.00  0.00    +0.000 NA
ATOM     19  C   UNL     1      -0.934  10.105  17.952  0.00  0.00    +0.000 A 
ATOM     20  C   UNL     1      -2.177   9.946  17.335  0.00  0.00    +0.000 A 
ATOM     21  C   UNL     1      -3.239  10.805  17.638  0.00  0.00    +0.000 A 
ATOM     22  C   UNL     1      -3.063  11.839  18.560  0.00  0.00    +0.000 A 
ATOM     23  C   UNL     1      -1.829  12.012  19.183  0.00  0.00    +0.000 A 
ATOM     24  C   UNL     1      -0.780  11.140  18.877  0.00  0.00    +0.000 A 
ATOM     25  C   UNL     1       0.536  11.277  19.522  0.00  0.00    +0.000 A 
ATOM     26  O   UNL     1       0.787  12.174  20.316  0.00  0.00    +0.000 OA
ATOM     27  N   UNL     1       1.468  10.337  19.173  0.00  0.00    +0.000 N 
ATOM     28  H   UNL     1       2.375  10.441  19.608  0.00  0.00    +0.000 HD
ENDBRANCH  16  17
ENDBRANCH   2  16
TORSDOF 3
ENDMDL
MODEL 2
REMARK VINA RESULT:      -8.6      1.113      1.840
REMARK  Name = 
REMARK  4 active torsions:
REMARK  status: ('A' for Active; 'I' for Inactive)
REMARK    1  A    between atoms: C_1  and  N_2
REMARK    2  A    between atoms: N_2  and  C_3
REMARK    3  A    between atoms: N_2  and  C_15
REMARK    4  A    between atoms: C_3  and  C_4
REMARK                            x       y       z     vdW  Elec       q    Type
REMARK                         _______ _______ _______ _____ _____    ______ ____
ROOT
ATOM      1  C   UNL     1       2.565   7.002  19.855  0.00  0.00    +0.000 C 
ATOM      2  N   UNL     1       2.211   7.139  18.442  0.00  0.00    +0.000 NA
ENDROOT
BRANCH   2   3
ATOM      3  C   UNL     1       2.835   6.115  17.553  0.00  0.00    +0.000 C 
ATOM      4  C   UNL     1       4.385   6.118  17.630  0.00  0.00    +0.000 A 
ATOM      5  C   UNL     1       5.292   7.093  17.222  0.00  0.00    +0.000 A 
ATOM      6  C   UNL     1       6.656   6.894  17.458  0.00  0.00    +0.000 A 
ATOM      7  C   UNL     1       7.117   5.702  18.029  0.00  0.00    +0.000 A 
ATOM      8  C   UNL     1       6.220   4.687  18.364  0.00  0.00    +0.000 A 
ATOM      9  C   UNL     1       4.861   4.905  18.168  0.00  0.00    +0.000 A 
ATOM     10  C   UNL     1       3.747   4.017  18.394  0.00  0.00    +0.000 A 
ATOM     11  C   UNL     1       3.741   2.708  18.864  0.00  0.00    +0.000 A 
ATOM     12  C   UNL     1       2.525   2.028  18.944  0.00  0.00    +0.000 A 
ATOM     13  C   UNL     1       1.344   2.640  18.513  0.00  0.00    +0.000 A 
ATOM     14  C   UNL     1       1.360   3.944  18.010  0.00  0.00    +0.000 A 
ATOM     15  C   UNL     1       2.555   4.658  17.999  0.00  0.00    +0.000 A 
ENDBRANCH   2   3
BRANCH   2  16
ATOM     16  C   UNL     1       2.410   8.543  18.019  0.00  0.00    +0.000 C 
BRANCH  16  17
ATOM     17  C   UNL     1       1.222   9.446  18.346  0.00  0.00    +0.000 A 
ATOM     18  N   UNL     1       1.204  10.189  19.408  0.00  0.00    +0.000 NA
ATOM     19  C   UNL     1       0.067  10.977  19.653  0.00  0.00    +0.000 A 
ATOM     20  C   UNL     1       0.043  11.807  20.776  0.00  0.00    +0.000 A 
ATOM     21  C   UNL     1      -1.079  12.594  21.057  0.00  0.00    +0.000 A 
ATOM     22  C   UNL     1      -2.193  12.552  20.216  0.00  0.00    +0.000 A 
ATOM     23  C   UNL     1      -2.185  11.728  19.092  0.00  0.00    +0.000 A 
ATOM     24  C   UNL     1      -1.053  10.954  18.820  0.00  0.00    +0.000 A 
ATOM     25  C   UNL     1      -0.996  10.081  17.637  0.00  0.00    +0.000 A 
ATOM     26  O   UNL     1      -1.938   9.958  16.866  0.00  0.00    +0.000 OA
ATOM     27  N   UNL     1       0.182   9.407  17.454  0.00  0.00    +0.000 N 
ATOM     28  H   UNL     1       0.214   8.798  16.647  0.00  0.00    +0.000 HD
ENDBRANCH  16  17
ENDBRANCH   2  16
TORSDOF 3
ENDMDL
MODEL 3
REMARK VINA RESULT:      -8.5      1.726      3.882
REMARK  Name = 
REMARK  4 active torsions:
REMARK  status: ('A' for Active; 'I' for Inactive)
REMARK    1  A    between atoms: C_1  and  N_2
REMARK    2  A    between atoms: N_2  and  C_3
REMARK    3  A    between atoms: N_2  and  C_15
REMARK    4  A    between atoms: C_3  and  C_4
REMARK                            x       y       z     vdW  Elec       q    Type
REMARK                         _______ _______ _______ _____ _____    ______ ____
ROOT
ATOM      1  C   UNL     1       1.728   8.119  20.291  0.00  0.00    +0.000 C 
ATOM      2  N   UNL     1       2.050   7.423  19.045  0.00  0.00    +0.000 NA
ENDROOT
BRANCH   2   3
ATOM      3  C   UNL     1       3.000   6.282  19.209  0.00  0.00    +0.000 C 
ATOM      4  C   UNL     1       2.283   4.907  19.258  0.00  0.00    +0.000 A 
ATOM      5  C   UNL     1       1.421   4.390  20.223  0.00  0.00    +0.000 A 
ATOM      6  C   UNL     1       0.840   3.135  20.013  0.00  0.00    +0.000 A 
ATOM      7  C   UNL     1       1.172   2.372  18.887  0.00  0.00    +0.000 A 
ATOM      8  C   UNL     1       2.098   2.850  17.959  0.00  0.00    +0.000 A 
ATOM      9  C   UNL     1       2.640   4.116  18.148  0.00  0.00    +0.000 A 
ATOM     10  C   UNL     1       3.631   4.816  17.367  0.00  0.00    +0.000 A 
ATOM     11  C   UNL     1       4.304   4.407  16.221  0.00  0.00    +0.000 A 
ATOM     12  C   UNL     1       5.271   5.249  15.672  0.00  0.00    +0.000 A 
ATOM     13  C   UNL     1       5.587   6.462  16.294  0.00  0.00    +0.000 A 
ATOM     14  C   UNL     1       4.930   6.853  17.464  0.00  0.00    +0.000 A 
ATOM     15  C   UNL     1       3.910   6.057  17.976  0.00  0.00    +0.000 A 
ENDBRANCH   2   3
BRANCH   2  16
ATOM     16  C   UNL     1       2.430   8.413  18.013  0.00  0.00    +0.000 C 
BRANCH  16  17
ATOM     17  C   UNL     1       1.671   9.733  18.134  0.00  0.00    +0.000 A 
ATOM     18  N   UNL     1       2.284  10.853  18.365  0.00  0.00    +0.000 NA
ATOM     19  C   UNL     1       1.516  12.022  18.485  0.00  0.00    +0.000 A 
ATOM     20  C   UNL     1       2.162  13.241  18.703  0.00  0.00    +0.000 A 
ATOM     21  C   UNL     1       1.426  14.423  18.841  0.00  0.00    +0.000 A 
ATOM     22  C   UNL     1       0.032  14.393  18.768  0.00  0.00    +0.000 A 
ATOM     23  C   UNL     1      -0.628  13.185  18.553  0.00  0.00    +0.000 A 
ATOM     24  C   UNL     1       0.122  12.014  18.407  0.00  0.00    +0.000 A 
ATOM     25  C   UNL     1      -0.532  10.718  18.164  0.00  0.00    +0.000 A 
ATOM     26  O   UNL     1      -1.748  10.595  18.119  0.00  0.00    +0.000 OA
ATOM     27  N   UNL     1       0.310   9.651  17.995  0.00  0.00    +0.000 N 
ATOM     28  H   UNL     1      -0.142   8.760  17.841  0.00  0.00    +0.000 HD
ENDBRANCH  16  17
ENDBRANCH   2  16
TORSDOF 3
ENDMDL
MODEL 4
REMARK VINA RESULT:      -8.4      1.469      2.074
REMARK  Name = 
REMARK  4 active torsions:
REMARK  status: ('A' for Active; 'I' for Inactive)
REMARK    1  A    between atoms: C_1  and  N_2
REMARK    2  A    between atoms: N_2  and  C_3
REMARK    3  A    between atoms: N_2  and  C_15
REMARK    4  A    between atoms: C_3  and  C_4
REMARK                            x       y       z     vdW  Elec       q    Type
REMARK                         _______ _______ _______ _____ _____    ______ ____
ROOT
ATOM      1  C   UNL     1       2.785   6.857  19.947  0.00  0.00    +0.000 C 
ATOM      2  N   UNL     1       2.218   6.972  18.603  0.00  0.00    +0.000 NA
ENDROOT
BRANCH   2   3
ATOM      3  C   UNL     1       2.780   6.001  17.616  0.00  0.00    +0.000 C 
ATOM      4  C   UNL     1       4.331   6.017  17.576  0.00  0.00    +0.000 A 
ATOM      5  C   UNL     1       5.198   7.021  17.152  0.00  0.00    +0.000 A 
ATOM      6  C   UNL     1       6.578   6.825  17.273  0.00  0.00    +0.000 A 
ATOM      7  C   UNL     1       7.088   5.609  17.745  0.00  0.00    +0.000 A 
ATOM      8  C   UNL     1       6.226   4.569  18.094  0.00  0.00    +0.000 A 
ATOM      9  C   UNL     1       4.855   4.783  18.014  0.00  0.00    +0.000 A 
ATOM     10  C   UNL     1       3.767   3.873  18.276  0.00  0.00    +0.000 A 
ATOM     11  C   UNL     1       3.806   2.542  18.677  0.00  0.00    +0.000 A 
ATOM     12  C   UNL     1       2.604   1.846  18.813  0.00  0.00    +0.000 A 
ATOM     13  C   UNL     1       1.389   2.467  18.505  0.00  0.00    +0.000 A 
ATOM     14  C   UNL     1       1.359   3.795  18.071  0.00  0.00    +0.000 A 
ATOM     15  C   UNL     1       2.544   4.521  18.007  0.00  0.00    +0.000 A 
ENDBRANCH   2   3
BRANCH   2  16
ATOM     16  C   UNL     1       2.248   8.389  18.175  0.00  0.00    +0.000 C 
BRANCH  16  17
ATOM     17  C   UNL     1       1.345   9.291  19.015  0.00  0.00    +0.000 A 
ATOM     18  N   UNL     1       1.099   9.037  20.262  0.00  0.00    +0.000 NA
ATOM     19  C   UNL     1       0.242   9.901  20.963  0.00  0.00    +0.000 A 
ATOM     20  C   UNL     1      -0.010   9.660  22.316  0.00  0.00    +0.000 A 
ATOM     21  C   UNL     1      -0.870  10.493  23.039  0.00  0.00    +0.000 A 
ATOM     22  C   UNL     1      -1.493  11.574  22.412  0.00  0.00    +0.000 A 
ATOM     23  C   UNL     1      -1.253  11.827  21.063  0.00  0.00    +0.000 A 
ATOM     24  C   UNL     1      -0.384  10.991  20.355  0.00  0.00    +0.000 A 
ATOM     25  C   UNL     1      -0.090  11.229  18.932  0.00  0.00    +0.000 A 
ATOM     26  O   UNL     1      -0.617  12.132  18.296  0.00  0.00    +0.000 OA
ATOM     27  N   UNL     1       0.809  10.370  18.361  0.00  0.00    +0.000 N 
ATOM     28  H   UNL     1       1.000  10.528  17.380  0.00  0.00    +0.000 HD
ENDBRANCH  16  17
ENDBRANCH   2  16
TORSDOF 3
ENDMDL
MODEL 5
REMARK VINA RESULT:      -8.4      1.689      2.163
REMARK  Name = 
REMARK  4 active torsions:
REMARK  status: ('A' for Active; 'I' for Inactive)
REMARK    1  A    between atoms: C_1  and  N_2
REMARK    2  A    between atoms: N_2  and  C_3
REMARK    3  A    between atoms: N_2  and  C_15
REMARK    4  A    between atoms: C_3  and  C_4
REMARK                            x       y       z     vdW  Elec       q    Type
REMARK                         _______ _______ _______ _____ _____    ______ ____
ROOT
ATOM      1  C   UNL     1       2.160   8.626  17.678  0.00  0.00    +0.000 C 
ATOM      2  N   UNL     1       2.983   7.639  18.377  0.00  0.00    +0.000 NA
ENDROOT
BRANCH   2   3
ATOM      3  C   UNL     1       3.518   6.556  17.499  0.00  0.00    +0.000 C 
ATOM      4  C   UNL     1       5.044   6.339  17.674  0.00  0.00    +0.000 A 
ATOM      5  C   UNL     1       6.103   7.186  17.353  0.00  0.00    +0.000 A 
ATOM      6  C   UNL     1       7.408   6.793  17.668  0.00  0.00    +0.000 A 
ATOM      7  C   UNL     1       7.660   5.536  18.232  0.00  0.00    +0.000 A 
ATOM      8  C   UNL     1       6.610   4.650  18.479  0.00  0.00    +0.000 A 
ATOM      9  C   UNL     1       5.311   5.061  18.205  0.00  0.00    +0.000 A 
ATOM     10  C   UNL     1       4.072   4.333  18.333  0.00  0.00    +0.000 A 
ATOM     11  C   UNL     1       3.853   3.030  18.763  0.00  0.00    +0.000 A 
ATOM     12  C   UNL     1       2.552   2.525  18.746  0.00  0.00    +0.000 A 
ATOM     13  C   UNL     1       1.498   3.306  18.260  0.00  0.00    +0.000 A 
ATOM     14  C   UNL     1       1.729   4.605  17.798  0.00  0.00    +0.000 A 
ATOM     15  C   UNL     1       3.009   5.144  17.883  0.00  0.00    +0.000 A 
ENDBRANCH   2   3
BRANCH   2  16
ATOM     16  C   UNL     1       2.271   7.172  19.587  0.00  0.00    +0.000 C 
BRANCH  16  17
ATOM     17  C   UNL     1       1.463   8.272  20.273  0.00  0.00    +0.000 A 
ATOM     18  N   UNL     1       0.679   9.059  19.604  0.00  0.00    +0.000 NA
ATOM     19  C   UNL     1      -0.016  10.060  20.301  0.00  0.00    +0.000 A 
ATOM     20  C   UNL     1      -0.888  10.897  19.601  0.00  0.00    +0.000 A 
ATOM     21  C   UNL     1      -1.585  11.914  20.263  0.00  0.00    +0.000 A 
ATOM     22  C   UNL     1      -1.410  12.106  21.635  0.00  0.00    +0.000 A 
ATOM     23  C   UNL     1      -0.542  11.281  22.347  0.00  0.00    +0.000 A 
ATOM     24  C   UNL     1       0.140  10.263  21.674  0.00  0.00    +0.000 A 
ATOM     25  C   UNL     1       1.055   9.359  22.389  0.00  0.00    +0.000 A 
ATOM     26  O   UNL     1       1.294   9.477  23.583  0.00  0.00    +0.000 OA
ATOM     27  N   UNL     1       1.631   8.376  21.630  0.00  0.00    +0.000 N 
ATOM     28  H   UNL     1       2.269   7.763  22.121  0.00  0.00    +0.000 HD
ENDBRANCH  16  17
ENDBRANCH   2  16
TORSDOF 3
ENDMDL
MODEL 6
REMARK VINA RESULT:      -8.4      2.106      3.904
REMARK  Name = 
REMARK  4 active torsions:
REMARK  status: ('A' for Active; 'I' for Inactive)
REMARK    1  A    between atoms: C_1  and  N_2
REMARK    2  A    between atoms: N_2  and  C_3
REMARK    3  A    between atoms: N_2  and  C_15
REMARK    4  A    between atoms: C_3  and  C_4
REMARK                            x       y       z     vdW  Elec       q    Type
REMARK                         _______ _______ _______ _____ _____    ______ ____
ROOT
ATOM      1  C   UNL     1       2.134   7.409  18.063  0.00  0.00    +0.000 C 
ATOM      2  N   UNL     1       2.683   7.100  19.384  0.00  0.00    +0.000 NA
ENDROOT
BRANCH   2   3
ATOM      3  C   UNL     1       3.482   5.840  19.435  0.00  0.00    +0.000 C 
ATOM      4  C   UNL     1       2.601   4.566  19.341  0.00  0.00    +0.000 A 
ATOM      5  C   UNL     1       1.666   4.065  20.243  0.00  0.00    +0.000 A 
ATOM      6  C   UNL     1       0.939   2.919  19.905  0.00  0.00    +0.000 A 
ATOM      7  C   UNL     1       1.194   2.238  18.708  0.00  0.00    +0.000 A 
ATOM      8  C   UNL     1       2.187   2.689  17.837  0.00  0.00    +0.000 A 
ATOM      9  C   UNL     1       2.878   3.853  18.157  0.00  0.00    +0.000 A 
ATOM     10  C   UNL     1       3.959   4.499  17.455  0.00  0.00    +0.000 A 
ATOM     11  C   UNL     1       4.597   4.128  16.277  0.00  0.00    +0.000 A 
ATOM     12  C   UNL     1       5.669   4.895  15.821  0.00  0.00    +0.000 A 
ATOM     13  C   UNL     1       6.120   5.991  16.565  0.00  0.00    +0.000 A 
ATOM     14  C   UNL     1       5.497   6.340  17.766  0.00  0.00    +0.000 A 
ATOM     15  C   UNL     1       4.379   5.628  18.190  0.00  0.00    +0.000 A 
ENDBRANCH   2   3
BRANCH   2  16
ATOM     16  C   UNL     1       1.610   7.205  20.399  0.00  0.00    +0.000 C 
BRANCH  16  17
ATOM     17  C   UNL     1       1.135   8.638  20.629  0.00  0.00    +0.000 A 
ATOM     18  N   UNL     1       1.239   9.546  19.708  0.00  0.00    +0.000 NA
ATOM     19  C   UNL     1       0.800  10.847  20.001  0.00  0.00    +0.000 A 
ATOM     20  C   UNL     1       0.875  11.830  19.011  0.00  0.00    +0.000 A 
ATOM     21  C   UNL     1       0.459  13.139  19.275  0.00  0.00    +0.000 A 
ATOM     22  C   UNL     1      -0.033  13.479  20.537  0.00  0.00    +0.000 A 
ATOM     23  C   UNL     1      -0.113  12.510  21.535  0.00  0.00    +0.000 A 
ATOM     24  C   UNL     1       0.298  11.204  21.254  0.00  0.00    +0.000 A 
ATOM     25  C   UNL     1       0.216  10.145  22.274  0.00  0.00    +0.000 A 
ATOM     26  O   UNL     1      -0.170  10.362  23.415  0.00  0.00    +0.000 OA
ATOM     27  N   UNL     1       0.607   8.898  21.866  0.00  0.00    +0.000 N 
ATOM     28  H   UNL     1       0.563   8.175  22.573  0.00  0.00    +0.000 HD
ENDBRANCH  16  17
ENDBRANCH   2  16
TORSDOF 3
ENDMDL
MODEL 7
REMARK VINA RESULT:      -8.3      4.294      8.021
REMARK  Name = 
REMARK  4 active torsions:
REMARK  status: ('A' for Active; 'I' for Inactive)
REMARK    1  A    between atoms: C_1  and  N_2
REMARK    2  A    between atoms: N_2  and  C_3
REMARK    3  A    between atoms: N_2  and  C_15
REMARK    4  A    between atoms: C_3  and  C_4
REMARK                            x       y       z     vdW  Elec       q    Type
REMARK                         _______ _______ _______ _____ _____    ______ ____
ROOT
ATOM      1  C   UNL     1       6.232   5.759  19.406  0.00  0.00    +0.000 C 
ATOM      2  N   UNL     1       5.753   5.444  18.060  0.00  0.00    +0.000 NA
ENDROOT
BRANCH   2   3
ATOM      3  C   UNL     1       4.280   5.213  17.974  0.00  0.00    +0.000 C 
ATOM      4  C   UNL     1       3.743   4.323  19.127  0.00  0.00    +0.000 A 
ATOM      5  C   UNL     1       3.986   2.979  19.397  0.00  0.00    +0.000 A 
ATOM      6  C   UNL     1       3.434   2.405  20.547  0.00  0.00    +0.000 A 
ATOM      7  C   UNL     1       2.589   3.147  21.381  0.00  0.00    +0.000 A 
ATOM      8  C   UNL     1       2.277   4.471  21.071  0.00  0.00    +0.000 A 
ATOM      9  C   UNL     1       2.861   5.051  19.951  0.00  0.00    +0.000 A 
ATOM     10  C   UNL     1       2.677   6.371  19.400  0.00  0.00    +0.000 A 
ATOM     11  C   UNL     1       1.865   7.409  19.843  0.00  0.00    +0.000 A 
ATOM     12  C   UNL     1       1.814   8.588  19.098  0.00  0.00    +0.000 A 
ATOM     13  C   UNL     1       2.533   8.700  17.903  0.00  0.00    +0.000 A 
ATOM     14  C   UNL     1       3.322   7.641  17.445  0.00  0.00    +0.000 A 
ATOM     15  C   UNL     1       3.440   6.491  18.220  0.00  0.00    +0.000 A 
ENDBRANCH   2   3
BRANCH   2  16
ATOM     16  C   UNL     1       6.591   4.372  17.478  0.00  0.00    +0.000 C 
BRANCH  16  17
ATOM     17  C   UNL     1       6.641   4.408  15.952  0.00  0.00    +0.000 A 
ATOM     18  N   UNL     1       5.829   3.702  15.227  0.00  0.00    +0.000 NA
ATOM     19  C   UNL     1       5.950   3.770  13.830  0.00  0.00    +0.000 A 
ATOM     20  C   UNL     1       5.064   3.041  13.034  0.00  0.00    +0.000 A 
ATOM     21  C   UNL     1       5.166   3.076  11.639  0.00  0.00    +0.000 A 
ATOM     22  C   UNL     1       6.162   3.839  11.027  0.00  0.00    +0.000 A 
ATOM     23  C   UNL     1       7.055   4.572  11.807  0.00  0.00    +0.000 A 
ATOM     24  C   UNL     1       6.935   4.534  13.200  0.00  0.00    +0.000 A 
ATOM     25  C   UNL     1       7.846   5.303  14.062  0.00  0.00    +0.000 A 
ATOM     26  O   UNL     1       8.767   5.971  13.613  0.00  0.00    +0.000 OA
ATOM     27  N   UNL     1       7.601   5.220  15.407  0.00  0.00    +0.000 N 
ATOM     28  H   UNL     1       8.237   5.739  15.998  0.00  0.00    +0.000 HD
ENDBRANCH  16  17
ENDBRANCH   2  16
TORSDOF 3
ENDMDL
MODEL 8
REMARK VINA RESULT:      -8.3      1.349      2.119
REMARK  Name = 
REMARK  4 active torsions:
REMARK  status: ('A' for Active; 'I' for Inactive)
REMARK    1  A    between atoms: C_1  and  N_2
REMARK    2  A    between atoms: N_2  and  C_3
REMARK    3  A    between atoms: N_2  and  C_15
REMARK    4  A    between atoms: C_3  and  C_4
REMARK                            x       y       z     vdW  Elec       q    Type
REMARK                         _______ _______ _______ _____ _____    ______ ____
ROOT
ATOM      1  C   UNL     1       2.274   7.444  19.762  0.00  0.00    +0.000 C 
ATOM      2  N   UNL     1       2.134   7.281  18.314  0.00  0.00    +0.000 NA
ENDROOT
BRANCH   2   3
ATOM      3  C   UNL     1       2.778   6.048  17.772  0.00  0.00    +0.000 C 
ATOM      4  C   UNL     1       4.327   6.094  17.853  0.00  0.00    +0.000 A 
ATOM      5  C   UNL     1       5.226   6.917  17.179  0.00  0.00    +0.000 A 
ATOM      6  C   UNL     1       6.591   6.816  17.470  0.00  0.00    +0.000 A 
ATOM      7  C   UNL     1       7.060   5.853  18.372  0.00  0.00    +0.000 A 
ATOM      8  C   UNL     1       6.171   4.971  18.989  0.00  0.00    +0.000 A 
ATOM      9  C   UNL     1       4.812   5.103  18.730  0.00  0.00    +0.000 A 
ATOM     10  C   UNL     1       3.707   4.307  19.204  0.00  0.00    +0.000 A 
ATOM     11  C   UNL     1       3.711   3.197  20.041  0.00  0.00    +0.000 A 
ATOM     12  C   UNL     1       2.502   2.555  20.313  0.00  0.00    +0.000 A 
ATOM     13  C   UNL     1       1.318   2.995  19.713  0.00  0.00    +0.000 A 
ATOM     14  C   UNL     1       1.324   4.091  18.846  0.00  0.00    +0.000 A 
ATOM     15  C   UNL     1       2.511   4.786  18.630  0.00  0.00    +0.000 A 
ENDBRANCH   2   3
BRANCH   2  16
ATOM     16  C   UNL     1       2.520   8.540  17.638  0.00  0.00    +0.000 C 
BRANCH  16  17
ATOM     17  C   UNL     1       1.604   9.714  17.980  0.00  0.00    +0.000 A 
ATOM     18  N   UNL     1       2.077  10.845  18.402  0.00  0.00    +0.000 NA
ATOM     19  C   UNL     1       1.172  11.871  18.717  0.00  0.00    +0.000 A 
ATOM     20  C   UNL     1       1.665  13.107  19.143  0.00  0.00    +0.000 A 
ATOM     21  C   UNL     1       0.790  14.146  19.479  0.00  0.00    +0.000 A 
ATOM     22  C   UNL     1      -0.591  13.955  19.396  0.00  0.00    +0.000 A 
ATOM     23  C   UNL     1      -1.098  12.727  18.974  0.00  0.00    +0.000 A 
ATOM     24  C   UNL     1      -0.212  11.702  18.634  0.00  0.00    +0.000 A 
ATOM     25  C   UNL     1      -0.703  10.394  18.169  0.00  0.00    +0.000 A 
ATOM     26  O   UNL     1      -1.895  10.129  18.099  0.00  0.00    +0.000 OA
ATOM     27  N   UNL     1       0.262   9.487  17.824  0.00  0.00    +0.000 N 
ATOM     28  H   UNL     1      -0.078   8.585  17.517  0.00  0.00    +0.000 HD
ENDBRANCH  16  17
ENDBRANCH   2  16
TORSDOF 3
ENDMDL
MODEL 9
REMARK VINA RESULT:      -8.3      2.026      3.990
REMARK  Name = 
REMARK  4 active torsions:
REMARK  status: ('A' for Active; 'I' for Inactive)
REMARK    1  A    between atoms: C_1  and  N_2
REMARK    2  A    between atoms: N_2  and  C_3
REMARK    3  A    between atoms: N_2  and  C_15
REMARK    4  A    between atoms: C_3  and  C_4
REMARK                            x       y       z     vdW  Elec       q    Type
REMARK                         _______ _______ _______ _____ _____    ______ ____
ROOT
ATOM      1  C   UNL     1       1.939   7.078  18.127  0.00  0.00    +0.000 C 
ATOM      2  N   UNL     1       2.664   6.918  19.388  0.00  0.00    +0.000 NA
ENDROOT
BRANCH   2   3
ATOM      3  C   UNL     1       3.592   5.748  19.415  0.00  0.00    +0.000 C 
ATOM      4  C   UNL     1       2.845   4.389  19.371  0.00  0.00    +0.000 A 
ATOM      5  C   UNL     1       2.005   3.806  20.317  0.00  0.00    +0.000 A 
ATOM      6  C   UNL     1       1.388   2.586  20.020  0.00  0.00    +0.000 A 
ATOM      7  C   UNL     1       1.663   1.919  18.819  0.00  0.00    +0.000 A 
ATOM      8  C   UNL     1       2.567   2.459  17.903  0.00  0.00    +0.000 A 
ATOM      9  C   UNL     1       3.145   3.692  18.182  0.00  0.00    +0.000 A 
ATOM     10  C   UNL     1       4.124   4.438  17.430  0.00  0.00    +0.000 A 
ATOM     11  C   UNL     1       4.747   4.119  16.229  0.00  0.00    +0.000 A 
ATOM     12  C   UNL     1       5.714   4.987  15.721  0.00  0.00    +0.000 A 
ATOM     13  C   UNL     1       6.079   6.133  16.435  0.00  0.00    +0.000 A 
ATOM     14  C   UNL     1       5.473   6.433  17.658  0.00  0.00    +0.000 A 
ATOM     15  C   UNL     1       4.453   5.614  18.135  0.00  0.00    +0.000 A 
ENDBRANCH   2   3
BRANCH   2  16
ATOM     16  C   UNL     1       1.710   6.990  20.516  0.00  0.00    +0.000 C 
BRANCH  16  17
ATOM     17  C   UNL     1       1.138   8.389  20.735  0.00  0.00    +0.000 A 
ATOM     18  N   UNL     1       0.418   8.676  21.775  0.00  0.00    +0.000 NA
ATOM     19  C   UNL     1      -0.091   9.979  21.896  0.00  0.00    +0.000 A 
ATOM     20  C   UNL     1      -0.842  10.314  23.025  0.00  0.00    +0.000 A 
ATOM     21  C   UNL     1      -1.376  11.599  23.170  0.00  0.00    +0.000 A 
ATOM     22  C   UNL     1      -1.167  12.561  22.180  0.00  0.00    +0.000 A 
ATOM     23  C   UNL     1      -0.421  12.242  21.047  0.00  0.00    +0.000 A 
ATOM     24  C   UNL     1       0.114  10.957  20.920  0.00  0.00    +0.000 A 
ATOM     25  C   UNL     1       0.920  10.581  19.748  0.00  0.00    +0.000 A 
ATOM     26  O   UNL     1       1.124  11.349  18.818  0.00  0.00    +0.000 OA
ATOM     27  N   UNL     1       1.425   9.308  19.759  0.00  0.00    +0.000 N 
ATOM     28  H   UNL     1       1.968   9.048  18.946  0.00  0.00    +0.000 HD
ENDBRANCH  16  17
ENDBRANCH   2  16
TORSDOF 3
ENDMDL
