MODEL 1
REMARK VINA RESULT:      -8.8      0.000      0.000
REMARK  Name = 
REMARK  8 active torsions:
REMARK  status: ('A' for Active; 'I' for Inactive)
REMARK    1  A    between atoms: C_2  and  C_3
REMARK    2  A    between atoms: C_7  and  C_8
REMARK    3  A    between atoms: N_14  and  C_15
REMARK    4  A    between atoms: C_19  and  N_20
REMARK    5  A    between atoms: N_20  and  C_21
REMARK    6  A    between atoms: N_20  and  C_22
REMARK    7  A    between atoms: C_22  and  C_23
REMARK    8  A    between atoms: N_27  and  C_28
REMARK                            x       y       z     vdW  Elec       q    Type
REMARK                         _______ _______ _______ _____ _____    ______ ____
ROOT
ATOM      1  C   UNL     1       0.373   9.286  21.953  0.00  0.00    +0.000 A 
ATOM      2  C   UNL     1       0.867   7.984  21.848  0.00  0.00    +0.000 A 
ATOM      3  C   UNL     1       1.424   7.595  20.647  0.00  0.00    +0.000 A 
ATOM      4  C   UNL     1       1.516   8.436  19.537  0.00  0.00    +0.000 A 
ATOM      5  C   UNL     1       0.995   9.723  19.594  0.00  0.00    +0.000 A 
ATOM      6  C   UNL     1       0.419  10.136  20.821  0.00  0.00    +0.000 A 
ATOM      7  C   UNL     1       2.201   7.701  18.421  0.00  0.00    +0.000 C 
ATOM      8  N   UNL     1       2.481   6.405  19.016  0.00  0.00    +0.000 N 
ATOM      9  C   UNL     1       1.987   6.287  20.306  0.00  0.00    +0.000 C 
ATOM     10  O   UNL     1       2.001   5.339  21.067  0.00  0.00    +0.000 OA
ENDROOT
BRANCH   8  11
ATOM     11  C   UNL     1       2.940   5.323  18.253  0.00  0.00    +0.000 A 
ATOM     12  C   UNL     1       2.180   4.160  18.189  0.00  0.00    +0.000 A 
ATOM     13  C   UNL     1       2.620   3.111  17.394  0.00  0.00    +0.000 A 
ATOM     14  C   UNL     1       3.819   3.227  16.676  0.00  0.00    +0.000 A 
ATOM     15  C   UNL     1       4.634   4.372  16.743  0.00  0.00    +0.000 A 
ATOM     16  C   UNL     1       4.155   5.417  17.549  0.00  0.00    +0.000 A 
BRANCH  15  17
ATOM     17  N   UNL     1       5.873   4.411  16.099  0.00  0.00    +0.000 N 
ATOM     18  C   UNL     1       6.045   3.765  14.798  0.00  0.00    +0.000 C 
BRANCH  17  19
ATOM     19  C   UNL     1       7.110   4.571  16.904  0.00  0.00    +0.000 C 
BRANCH  19  20
ATOM     20  C   UNL     1       7.485   5.971  17.336  0.00  0.00    +0.000 A 
ATOM     21  N   UNL     1       7.583   7.027  16.547  0.00  0.00    +0.000 NA
ATOM     22  N   UNL     1       7.948   8.113  17.305  0.00  0.00    +0.000 NA
ATOM     23  C   UNL     1       8.072   7.699  18.536  0.00  0.00    +0.000 A 
ATOM     24  N   UNL     1       7.830   6.370  18.607  0.00  0.00    +0.000 N 
ATOM     25  C   UNL     1       7.961   5.568  19.779  0.00  0.00    +0.000 C 
ENDBRANCH  19  20
ENDBRANCH  17  19
ENDBRANCH  15  17
ENDBRANCH   8  11
BRANCH   5  26
ATOM     26  C   UNL     1       1.003  10.666  18.420  0.00  0.00    +0.000 C 
ATOM     27  F   UNL     1       0.208  10.258  17.393  0.00  0.00    +0.000 F 
ATOM     28  F   UNL     1       0.569  11.912  18.753  0.00  0.00    +0.000 F 
ATOM     29  F   UNL     1       2.244  10.830  17.887  0.00  0.00    +0.000 F 
ENDBRANCH   5  26
BRANCH   1  31
ATOM     30  C   UNL     1      -1.143  10.761  23.242  0.00  0.00    +0.000 C 
ATOM     31  C   UNL     1      -0.239   9.772  23.195  0.00  0.00    +0.000 C 
ENDBRANCH   1  31
TORSDOF 6
ENDMDL
MODEL 2
REMARK VINA RESULT:      -8.5      4.800      9.536
REMARK  Name = 
REMARK  8 active torsions:
REMARK  status: ('A' for Active; 'I' for Inactive)
REMARK    1  A    between atoms: C_2  and  C_3
REMARK    2  A    between atoms: C_7  and  C_8
REMARK    3  A    between atoms: N_14  and  C_15
REMARK    4  A    between atoms: C_19  and  N_20
REMARK    5  A    between atoms: N_20  and  C_21
REMARK    6  A    between atoms: N_20  and  C_22
REMARK    7  A    between atoms: C_22  and  C_23
REMARK    8  A    between atoms: N_27  and  C_28
REMARK                            x       y       z     vdW  Elec       q    Type
REMARK                         _______ _______ _______ _____ _____    ______ ____
ROOT
ATOM      1  C   UNL     1       3.813   5.364  17.655  0.00  0.00    +0.000 A 
ATOM      2  C   UNL     1       3.400   6.695  17.745  0.00  0.00    +0.000 A 
ATOM      3  C   UNL     1       2.603   7.058  18.812  0.00  0.00    +0.000 A 
ATOM      4  C   UNL     1       2.192   6.163  19.800  0.00  0.00    +0.000 A 
ATOM      5  C   UNL     1       2.550   4.823  19.718  0.00  0.00    +0.000 A 
ATOM      6  C   UNL     1       3.367   4.436  18.627  0.00  0.00    +0.000 A 
ATOM      7  C   UNL     1       1.368   6.900  20.817  0.00  0.00    +0.000 C 
ATOM      8  N   UNL     1       1.375   8.261  20.308  0.00  0.00    +0.000 N 
ATOM      9  C   UNL     1       2.044   8.380  19.099  0.00  0.00    +0.000 C 
ATOM     10  O   UNL     1       2.199   9.349  18.381  0.00  0.00    +0.000 OA
ENDROOT
BRANCH   8  11
ATOM     11  C   UNL     1       0.550   9.258  20.846  0.00  0.00    +0.000 A 
ATOM     12  C   UNL     1       0.514   9.445  22.224  0.00  0.00    +0.000 A 
ATOM     13  C   UNL     1      -0.271  10.464  22.744  0.00  0.00    +0.000 A 
ATOM     14  C   UNL     1      -1.021  11.283  21.887  0.00  0.00    +0.000 A 
ATOM     15  C   UNL     1      -1.039  11.102  20.492  0.00  0.00    +0.000 A 
ATOM     16  C   UNL     1      -0.227  10.069  19.998  0.00  0.00    +0.000 A 
BRANCH  15  17
ATOM     17  N   UNL     1      -1.878  11.868  19.679  0.00  0.00    +0.000 N 
ATOM     18  C   UNL     1      -1.587  12.012  18.252  0.00  0.00    +0.000 C 
BRANCH  17  19
ATOM     19  C   UNL     1      -2.683  12.959  20.282  0.00  0.00    +0.000 C 
BRANCH  19  20
ATOM     20  C   UNL     1      -4.080  12.617  20.753  0.00  0.00    +0.000 A 
ATOM     21  N   UNL     1      -4.468  12.501  22.011  0.00  0.00    +0.000 NA
ATOM     22  N   UNL     1      -5.803  12.178  22.034  0.00  0.00    +0.000 NA
ATOM     23  C   UNL     1      -6.201  12.100  20.794  0.00  0.00    +0.000 A 
ATOM     24  N   UNL     1      -5.164  12.329  19.956  0.00  0.00    +0.000 N 
ATOM     25  C   UNL     1      -5.215  12.236  18.535  0.00  0.00    +0.000 C 
ENDBRANCH  19  20
ENDBRANCH  17  19
ENDBRANCH  15  17
ENDBRANCH   8  11
BRANCH   5  26
ATOM     26  C   UNL     1       2.095   3.787  20.712  0.00  0.00    +0.000 C 
ATOM     27  F   UNL     1       0.746   3.611  20.730  0.00  0.00    +0.000 F 
ATOM     28  F   UNL     1       2.627   2.560  20.462  0.00  0.00    +0.000 F 
ATOM     29  F   UNL     1       2.447   4.097  21.989  0.00  0.00    +0.000 F 
ENDBRANCH   5  26
BRANCH   1  31
ATOM     30  C   UNL     1       5.391   5.716  15.779  0.00  0.00    +0.000 C 
ATOM     31  C   UNL     1       4.657   4.900  16.548  0.00  0.00    +0.000 C 
ENDBRANCH   1  31
TORSDOF 6
ENDMDL
MODEL 3
REMARK VINA RESULT:      -8.5      4.401      8.931
REMARK  Name = 
REMARK  8 active torsions:
REMARK  status: ('A' for Active; 'I' for Inactive)
REMARK    1  A    between atoms: C_2  and  C_3
REMARK    2  A    between atoms: C_7  and  C_8
REMARK    3  A    between atoms: N_14  and  C_15
REMARK    4  A    between atoms: C_19  and  N_20
REMARK    5  A    between atoms: N_20  and  C_21
REMARK    6  A    between atoms: N_20  and  C_22
REMARK    7  A    between atoms: C_22  and  C_23
REMARK    8  A    between atoms: N_27  and  C_28
REMARK                            x       y       z     vdW  Elec       q    Type
REMARK                         _______ _______ _______ _____ _____    ______ ____
ROOT
ATOM      1  C   UNL     1       4.080   4.566  17.460  0.00  0.00    +0.000 A 
ATOM      2  C   UNL     1       3.694   5.908  17.472  0.00  0.00    +0.000 A 
ATOM      3  C   UNL     1       2.976   6.368  18.556  0.00  0.00    +0.000 A 
ATOM      4  C   UNL     1       2.617   5.561  19.636  0.00  0.00    +0.000 A 
ATOM      5  C   UNL     1       2.948   4.211  19.636  0.00  0.00    +0.000 A 
ATOM      6  C   UNL     1       3.685   3.724  18.528  0.00  0.00    +0.000 A 
ATOM      7  C   UNL     1       1.874   6.391  20.643  0.00  0.00    +0.000 C 
ATOM      8  N   UNL     1       1.869   7.708  20.030  0.00  0.00    +0.000 N 
ATOM      9  C   UNL     1       2.458   7.720  18.775  0.00  0.00    +0.000 C 
ATOM     10  O   UNL     1       2.580   8.628  17.975  0.00  0.00    +0.000 OA
ENDROOT
BRANCH   8  11
ATOM     11  C   UNL     1       1.096   8.760  20.541  0.00  0.00    +0.000 A 
ATOM     12  C   UNL     1       0.840   8.819  21.907  0.00  0.00    +0.000 A 
ATOM     13  C   UNL     1       0.113   9.889  22.410  0.00  0.00    +0.000 A 
ATOM     14  C   UNL     1      -0.360  10.887  21.545  0.00  0.00    +0.000 A 
ATOM     15  C   UNL     1      -0.152  10.844  20.155  0.00  0.00    +0.000 A 
ATOM     16  C   UNL     1       0.594   9.754  19.680  0.00  0.00    +0.000 A 
BRANCH  15  17
ATOM     17  N   UNL     1      -0.728  11.799  19.312  0.00  0.00    +0.000 N 
ATOM     18  C   UNL     1       0.010  13.014  18.967  0.00  0.00    +0.000 C 
BRANCH  17  19
ATOM     19  C   UNL     1      -2.206  11.900  19.225  0.00  0.00    +0.000 C 
BRANCH  19  20
ATOM     20  C   UNL     1      -2.853  11.549  17.904  0.00  0.00    +0.000 A 
ATOM     21  N   UNL     1      -2.220  11.182  16.803  0.00  0.00    +0.000 NA
ATOM     22  N   UNL     1      -3.147  10.952  15.816  0.00  0.00    +0.000 NA
ATOM     23  C   UNL     1      -4.323  11.187  16.330  0.00  0.00    +0.000 A 
ATOM     24  N   UNL     1      -4.197  11.595  17.614  0.00  0.00    +0.000 N 
ATOM     25  C   UNL     1      -5.268  12.022  18.453  0.00  0.00    +0.000 C 
ENDBRANCH  19  20
ENDBRANCH  17  19
ENDBRANCH  15  17
ENDBRANCH   8  11
BRANCH   5  26
ATOM     26  C   UNL     1       2.544   3.265  20.736  0.00  0.00    +0.000 C 
ATOM     27  F   UNL     1       3.456   2.282  20.966  0.00  0.00    +0.000 F 
ATOM     28  F   UNL     1       2.372   3.899  21.928  0.00  0.00    +0.000 F 
ATOM     29  F   UNL     1       1.369   2.629  20.475  0.00  0.00    +0.000 F 
ENDBRANCH   5  26
BRANCH   1  31
ATOM     30  C   UNL     1       6.070   4.408  15.994  0.00  0.00    +0.000 C 
ATOM     31  C   UNL     1       4.841   4.001  16.339  0.00  0.00    +0.000 C 
ENDBRANCH   1  31
TORSDOF 6
ENDMDL
MODEL 4
REMARK VINA RESULT:      -8.5      0.772      1.406
REMARK  Name = 
REMARK  8 active torsions:
REMARK  status: ('A' for Active; 'I' for Inactive)
REMARK    1  A    between atoms: C_2  and  C_3
REMARK    2  A    between atoms: C_7  and  C_8
REMARK    3  A    between atoms: N_14  and  C_15
REMARK    4  A    between atoms: C_19  and  N_20
REMARK    5  A    between atoms: N_20  and  C_21
REMARK    6  A    between atoms: N_20  and  C_22
REMARK    7  A    between atoms: C_22  and  C_23
REMARK    8  A    between atoms: N_27  and  C_28
REMARK                            x       y       z     vdW  Elec       q    Type
REMARK                         _______ _______ _______ _____ _____    ______ ____
ROOT
ATOM      1  C   UNL     1       0.309   9.041  21.771  0.00  0.00    +0.000 A 
ATOM      2  C   UNL     1       0.930   7.792  21.708  0.00  0.00    +0.000 A 
ATOM      3  C   UNL     1       1.563   7.439  20.535  0.00  0.00    +0.000 A 
ATOM      4  C   UNL     1       1.612   8.265  19.412  0.00  0.00    +0.000 A 
ATOM      5  C   UNL     1       0.968   9.497  19.426  0.00  0.00    +0.000 A 
ATOM      6  C   UNL     1       0.313   9.873  20.625  0.00  0.00    +0.000 A 
ATOM      7  C   UNL     1       2.403   7.582  18.334  0.00  0.00    +0.000 C 
ATOM      8  N   UNL     1       2.786   6.329  18.964  0.00  0.00    +0.000 N 
ATOM      9  C   UNL     1       2.260   6.186  20.239  0.00  0.00    +0.000 C 
ATOM     10  O   UNL     1       2.339   5.256  21.019  0.00  0.00    +0.000 OA
ENDROOT
BRANCH   8  11
ATOM     11  C   UNL     1       3.373   5.284  18.238  0.00  0.00    +0.000 A 
ATOM     12  C   UNL     1       3.073   3.967  18.572  0.00  0.00    +0.000 A 
ATOM     13  C   UNL     1       3.623   2.940  17.818  0.00  0.00    +0.000 A 
ATOM     14  C   UNL     1       4.475   3.234  16.743  0.00  0.00    +0.000 A 
ATOM     15  C   UNL     1       4.831   4.550  16.397  0.00  0.00    +0.000 A 
ATOM     16  C   UNL     1       4.250   5.566  17.174  0.00  0.00    +0.000 A 
BRANCH  15  17
ATOM     17  N   UNL     1       5.764   4.801  15.388  0.00  0.00    +0.000 N 
ATOM     18  C   UNL     1       5.580   4.223  14.057  0.00  0.00    +0.000 C 
BRANCH  17  19
ATOM     19  C   UNL     1       7.163   5.135  15.754  0.00  0.00    +0.000 C 
BRANCH  19  20
ATOM     20  C   UNL     1       7.465   5.373  17.218  0.00  0.00    +0.000 A 
ATOM     21  N   UNL     1       7.609   4.439  18.142  0.00  0.00    +0.000 NA
ATOM     22  N   UNL     1       7.870   5.045  19.346  0.00  0.00    +0.000 NA
ATOM     23  C   UNL     1       7.875   6.333  19.135  0.00  0.00    +0.000 A 
ATOM     24  N   UNL     1       7.594   6.594  17.838  0.00  0.00    +0.000 N 
ATOM     25  C   UNL     1       7.430   7.893  17.274  0.00  0.00    +0.000 C 
ENDBRANCH  19  20
ENDBRANCH  17  19
ENDBRANCH  15  17
ENDBRANCH   8  11
BRANCH   5  26
ATOM     26  C   UNL     1       0.926  10.416  18.234  0.00  0.00    +0.000 C 
ATOM     27  F   UNL     1       0.631  11.705  18.556  0.00  0.00    +0.000 F 
ATOM     28  F   UNL     1       2.115  10.462  17.572  0.00  0.00    +0.000 F 
ATOM     29  F   UNL     1      -0.002  10.039  17.314  0.00  0.00    +0.000 F 
ENDBRANCH   5  26
BRANCH   1  31
ATOM     30  C   UNL     1      -0.995  10.677  23.097  0.00  0.00    +0.000 C 
ATOM     31  C   UNL     1      -0.390   9.487  22.983  0.00  0.00    +0.000 C 
ENDBRANCH   1  31
TORSDOF 6
ENDMDL
MODEL 5
REMARK VINA RESULT:      -8.4      4.279      8.187
REMARK  Name = 
REMARK  8 active torsions:
REMARK  status: ('A' for Active; 'I' for Inactive)
REMARK    1  A    between atoms: C_2  and  C_3
REMARK    2  A    between atoms: C_7  and  C_8
REMARK    3  A    between atoms: N_14  and  C_15
REMARK    4  A    between atoms: C_19  and  N_20
REMARK    5  A    between atoms: N_20  and  C_21
REMARK    6  A    between atoms: N_20  and  C_22
REMARK    7  A    between atoms: C_22  and  C_23
REMARK    8  A    between atoms: N_27  and  C_28
REMARK                            x       y       z     vdW  Elec       q    Type
REMARK                         _______ _______ _______ _____ _____    ______ ____
ROOT
ATOM      1  C   UNL     1       3.695   4.829  17.664  0.00  0.00    +0.000 A 
ATOM      2  C   UNL     1       3.357   6.183  17.722  0.00  0.00    +0.000 A 
ATOM      3  C   UNL     1       2.634   6.627  18.810  0.00  0.00    +0.000 A 
ATOM      4  C   UNL     1       2.225   5.792  19.851  0.00  0.00    +0.000 A 
ATOM      5  C   UNL     1       2.508   4.432  19.804  0.00  0.00    +0.000 A 
ATOM      6  C   UNL     1       3.249   3.962  18.691  0.00  0.00    +0.000 A 
ATOM      7  C   UNL     1       1.493   6.609  20.876  0.00  0.00    +0.000 C 
ATOM      8  N   UNL     1       1.547   7.948  20.315  0.00  0.00    +0.000 N 
ATOM      9  C   UNL     1       2.160   7.987  19.072  0.00  0.00    +0.000 C 
ATOM     10  O   UNL     1       2.330   8.920  18.310  0.00  0.00    +0.000 OA
ENDROOT
BRANCH   8  11
ATOM     11  C   UNL     1       0.802   9.007  20.852  0.00  0.00    +0.000 A 
ATOM     12  C   UNL     1       0.409   8.958  22.185  0.00  0.00    +0.000 A 
ATOM     13  C   UNL     1      -0.288  10.032  22.721  0.00  0.00    +0.000 A 
ATOM     14  C   UNL     1      -0.595  11.143  21.920  0.00  0.00    +0.000 A 
ATOM     15  C   UNL     1      -0.246  11.213  20.560  0.00  0.00    +0.000 A 
ATOM     16  C   UNL     1       0.466  10.115  20.052  0.00  0.00    +0.000 A 
BRANCH  15  17
ATOM     17  N   UNL     1      -0.660  12.287  19.767  0.00  0.00    +0.000 N 
ATOM     18  C   UNL     1      -0.964  12.079  18.351  0.00  0.00    +0.000 C 
BRANCH  17  19
ATOM     19  C   UNL     1      -0.263  13.667  20.141  0.00  0.00    +0.000 C 
BRANCH  19  20
ATOM     20  C   UNL     1       1.130  13.867  20.696  0.00  0.00    +0.000 A 
ATOM     21  N   UNL     1       1.428  14.231  21.932  0.00  0.00    +0.000 NA
ATOM     22  N   UNL     1       2.794  14.310  22.051  0.00  0.00    +0.000 NA
ATOM     23  C   UNL     1       3.301  13.998  20.890  0.00  0.00    +0.000 A 
ATOM     24  N   UNL     1       2.311  13.748  20.002  0.00  0.00    +0.000 N 
ATOM     25  C   UNL     1       2.498  13.465  18.617  0.00  0.00    +0.000 C 
ENDBRANCH  19  20
ENDBRANCH  17  19
ENDBRANCH  15  17
ENDBRANCH   8  11
BRANCH   5  26
ATOM     26  C   UNL     1       2.049   3.460  20.858  0.00  0.00    +0.000 C 
ATOM     27  F   UNL     1       0.695   3.383  20.970  0.00  0.00    +0.000 F 
ATOM     28  F   UNL     1       2.473   2.190  20.612  0.00  0.00    +0.000 F 
ATOM     29  F   UNL     1       2.508   3.777  22.099  0.00  0.00    +0.000 F 
ENDBRANCH   5  26
BRANCH   1  31
ATOM     30  C   UNL     1       5.527   4.881  15.999  0.00  0.00    +0.000 C 
ATOM     31  C   UNL     1       4.457   4.280  16.537  0.00  0.00    +0.000 C 
ENDBRANCH   1  31
TORSDOF 6
ENDMDL
MODEL 6
REMARK VINA RESULT:      -8.3      4.679      9.473
REMARK  Name = 
REMARK  8 active torsions:
REMARK  status: ('A' for Active; 'I' for Inactive)
REMARK    1  A    between atoms: C_2  and  C_3
REMARK    2  A    between atoms: C_7  and  C_8
REMARK    3  A    between atoms: N_14  and  C_15
REMARK    4  A    between atoms: C_19  and  N_20
REMARK    5  A    between atoms: N_20  and  C_21
REMARK    6  A    between atoms: N_20  and  C_22
REMARK    7  A    between atoms: C_22  and  C_23
REMARK    8  A    between atoms: N_27  and  C_28
REMARK                            x       y       z     vdW  Elec       q    Type
REMARK                         _______ _______ _______ _____ _____    ______ ____
ROOT
ATOM      1  C   UNL     1       3.789   5.290  17.658  0.00  0.00    +0.000 A 
ATOM      2  C   UNL     1       3.383   6.624  17.746  0.00  0.00    +0.000 A 
ATOM      3  C   UNL     1       2.601   6.996  18.819  0.00  0.00    +0.000 A 
ATOM      4  C   UNL     1       2.196   6.109  19.817  0.00  0.00    +0.000 A 
ATOM      5  C   UNL     1       2.546   4.766  19.738  0.00  0.00    +0.000 A 
ATOM      6  C   UNL     1       3.349   4.369  18.640  0.00  0.00    +0.000 A 
ATOM      7  C   UNL     1       1.388   6.855  20.839  0.00  0.00    +0.000 C 
ATOM      8  N   UNL     1       1.397   8.213  20.323  0.00  0.00    +0.000 N 
ATOM      9  C   UNL     1       2.052   8.323  19.106  0.00  0.00    +0.000 C 
ATOM     10  O   UNL     1       2.203   9.287  18.382  0.00  0.00    +0.000 OA
ENDROOT
BRANCH   8  11
ATOM     11  C   UNL     1       0.582   9.217  20.866  0.00  0.00    +0.000 A 
ATOM     12  C   UNL     1       0.433   9.304  22.246  0.00  0.00    +0.000 A 
ATOM     13  C   UNL     1      -0.338  10.329  22.776  0.00  0.00    +0.000 A 
ATOM     14  C   UNL     1      -0.961  11.254  21.924  0.00  0.00    +0.000 A 
ATOM     15  C   UNL     1      -0.864  11.177  20.524  0.00  0.00    +0.000 A 
ATOM     16  C   UNL     1      -0.070  10.134  20.021  0.00  0.00    +0.000 A 
BRANCH  15  17
ATOM     17  N   UNL     1      -1.583  12.051  19.704  0.00  0.00    +0.000 N 
ATOM     18  C   UNL     1      -1.042  12.454  18.407  0.00  0.00    +0.000 C 
BRANCH  17  19
ATOM     19  C   UNL     1      -2.553  12.994  20.316  0.00  0.00    +0.000 C 
BRANCH  19  20
ATOM     20  C   UNL     1      -4.017  12.615  20.275  0.00  0.00    +0.000 A 
ATOM     21  N   UNL     1      -4.702  12.282  19.195  0.00  0.00    +0.000 NA
ATOM     22  N   UNL     1      -5.998  12.009  19.560  0.00  0.00    +0.000 NA
ATOM     23  C   UNL     1      -6.079  12.185  20.850  0.00  0.00    +0.000 A 
ATOM     24  N   UNL     1      -4.886  12.595  21.341  0.00  0.00    +0.000 N 
ATOM     25  C   UNL     1      -4.634  12.968  22.693  0.00  0.00    +0.000 C 
ENDBRANCH  19  20
ENDBRANCH  17  19
ENDBRANCH  15  17
ENDBRANCH   8  11
BRANCH   5  26
ATOM     26  C   UNL     1       2.098   3.738  20.742  0.00  0.00    +0.000 C 
ATOM     27  F   UNL     1       2.590   2.493  20.500  0.00  0.00    +0.000 F 
ATOM     28  F   UNL     1       2.483   4.050  22.010  0.00  0.00    +0.000 F 
ATOM     29  F   UNL     1       0.744   3.602  20.784  0.00  0.00    +0.000 F 
ENDBRANCH   5  26
BRANCH   1  31
ATOM     30  C   UNL     1       5.492   5.589  15.884  0.00  0.00    +0.000 C 
ATOM     31  C   UNL     1       4.617   4.816  16.543  0.00  0.00    +0.000 C 
ENDBRANCH   1  31
TORSDOF 6
ENDMDL
MODEL 7
REMARK VINA RESULT:      -8.3      4.904      9.597
REMARK  Name = 
REMARK  8 active torsions:
REMARK  status: ('A' for Active; 'I' for Inactive)
REMARK    1  A    between atoms: C_2  and  C_3
REMARK    2  A    between atoms: C_7  and  C_8
REMARK    3  A    between atoms: N_14  and  C_15
REMARK    4  A    between atoms: C_19  and  N_20
REMARK    5  A    between atoms: N_20  and  C_21
REMARK    6  A    between atoms: N_20  and  C_22
REMARK    7  A    between atoms: C_22  and  C_23
REMARK    8  A    between atoms: N_27  and  C_28
REMARK                            x       y       z     vdW  Elec       q    Type
REMARK                         _______ _______ _______ _____ _____    ______ ____
ROOT
ATOM      1  C   UNL     1       3.977   5.558  17.483  0.00  0.00    +0.000 A 
ATOM      2  C   UNL     1       3.548   6.883  17.380  0.00  0.00    +0.000 A 
ATOM      3  C   UNL     1       2.710   7.373  18.361  0.00  0.00    +0.000 A 
ATOM      4  C   UNL     1       2.271   6.612  19.445  0.00  0.00    +0.000 A 
ATOM      5  C   UNL     1       2.645   5.278  19.555  0.00  0.00    +0.000 A 
ATOM      6  C   UNL     1       3.505   4.761  18.554  0.00  0.00    +0.000 A 
ATOM      7  C   UNL     1       1.405   7.466  20.325  0.00  0.00    +0.000 C 
ATOM      8  N   UNL     1       1.417   8.747  19.640  0.00  0.00    +0.000 N 
ATOM      9  C   UNL     1       2.128   8.714  18.450  0.00  0.00    +0.000 C 
ATOM     10  O   UNL     1       2.300   9.581  17.615  0.00  0.00    +0.000 OA
ENDROOT
BRANCH   8  11
ATOM     11  C   UNL     1       0.564   9.795  20.012  0.00  0.00    +0.000 A 
ATOM     12  C   UNL     1       0.839  10.525  21.163  0.00  0.00    +0.000 A 
ATOM     13  C   UNL     1       0.014  11.590  21.497  0.00  0.00    +0.000 A 
ATOM     14  C   UNL     1      -1.084  11.912  20.686  0.00  0.00    +0.000 A 
ATOM     15  C   UNL     1      -1.416  11.175  19.535  0.00  0.00    +0.000 A 
ATOM     16  C   UNL     1      -0.556  10.111  19.220  0.00  0.00    +0.000 A 
BRANCH  15  17
ATOM     17  N   UNL     1      -2.576  11.458  18.810  0.00  0.00    +0.000 N 
ATOM     18  C   UNL     1      -2.674  11.077  17.402  0.00  0.00    +0.000 C 
BRANCH  17  19
ATOM     19  C   UNL     1      -3.442  12.590  19.229  0.00  0.00    +0.000 C 
BRANCH  19  20
ATOM     20  C   UNL     1      -4.683  12.260  20.029  0.00  0.00    +0.000 A 
ATOM     21  N   UNL     1      -4.803  12.339  21.343  0.00  0.00    +0.000 NA
ATOM     22  N   UNL     1      -6.074  11.955  21.694  0.00  0.00    +0.000 NA
ATOM     23  C   UNL     1      -6.701  11.647  20.592  0.00  0.00    +0.000 A 
ATOM     24  N   UNL     1      -5.874  11.784  19.531  0.00  0.00    +0.000 N 
ATOM     25  C   UNL     1      -6.197  11.448  18.184  0.00  0.00    +0.000 C 
ENDBRANCH  19  20
ENDBRANCH  17  19
ENDBRANCH  15  17
ENDBRANCH   8  11
BRANCH   5  26
ATOM     26  C   UNL     1       2.164   4.378  20.662  0.00  0.00    +0.000 C 
ATOM     27  F   UNL     1       2.514   4.813  21.903  0.00  0.00    +0.000 F 
ATOM     28  F   UNL     1       0.808   4.256  20.679  0.00  0.00    +0.000 F 
ATOM     29  F   UNL     1       2.654   3.113  20.558  0.00  0.00    +0.000 F 
ENDBRANCH   5  26
BRANCH   1  31
ATOM     30  C   UNL     1       5.513   5.673  15.544  0.00  0.00    +0.000 C 
ATOM     31  C   UNL     1       4.864   4.963  16.477  0.00  0.00    +0.000 C 
ENDBRANCH   1  31
TORSDOF 6
ENDMDL
MODEL 8
REMARK VINA RESULT:      -8.2      4.086      8.127
REMARK  Name = 
REMARK  8 active torsions:
REMARK  status: ('A' for Active; 'I' for Inactive)
REMARK    1  A    between atoms: C_2  and  C_3
REMARK    2  A    between atoms: C_7  and  C_8
REMARK    3  A    between atoms: N_14  and  C_15
REMARK    4  A    between atoms: C_19  and  N_20
REMARK    5  A    between atoms: N_20  and  C_21
REMARK    6  A    between atoms: N_20  and  C_22
REMARK    7  A    between atoms: C_22  and  C_23
REMARK    8  A    between atoms: N_27  and  C_28
REMARK                            x       y       z     vdW  Elec       q    Type
REMARK                         _______ _______ _______ _____ _____    ______ ____
ROOT
ATOM      1  C   UNL     1       5.257   5.061  15.919  0.00  0.00    +0.000 A 
ATOM      2  C   UNL     1       4.846   6.331  16.329  0.00  0.00    +0.000 A 
ATOM      3  C   UNL     1       3.941   6.419  17.366  0.00  0.00    +0.000 A 
ATOM      4  C   UNL     1       3.417   5.304  18.022  0.00  0.00    +0.000 A 
ATOM      5  C   UNL     1       3.771   4.025  17.611  0.00  0.00    +0.000 A 
ATOM      6  C   UNL     1       4.700   3.920  16.546  0.00  0.00    +0.000 A 
ATOM      7  C   UNL     1       2.494   5.766  19.113  0.00  0.00    +0.000 C 
ATOM      8  N   UNL     1       2.567   7.213  19.002  0.00  0.00    +0.000 N 
ATOM      9  C   UNL     1       3.365   7.633  17.948  0.00  0.00    +0.000 C 
ATOM     10  O   UNL     1       3.604   8.754  17.544  0.00  0.00    +0.000 OA
ENDROOT
BRANCH   8  11
ATOM     11  C   UNL     1       1.695   8.056  19.706  0.00  0.00    +0.000 A 
ATOM     12  C   UNL     1       1.301   7.708  20.994  0.00  0.00    +0.000 A 
ATOM     13  C   UNL     1       0.475   8.571  21.700  0.00  0.00    +0.000 A 
ATOM     14  C   UNL     1       0.042   9.769  21.113  0.00  0.00    +0.000 A 
ATOM     15  C   UNL     1       0.390  10.138  19.801  0.00  0.00    +0.000 A 
ATOM     16  C   UNL     1       1.233   9.247  19.118  0.00  0.00    +0.000 A 
BRANCH  15  17
ATOM     17  N   UNL     1      -0.146  11.286  19.212  0.00  0.00    +0.000 N 
ATOM     18  C   UNL     1      -1.431  11.224  18.517  0.00  0.00    +0.000 C 
BRANCH  17  19
ATOM     19  C   UNL     1       0.763  12.377  18.781  0.00  0.00    +0.000 C 
BRANCH  19  20
ATOM     20  C   UNL     1       1.595  13.055  19.848  0.00  0.00    +0.000 A 
ATOM     21  N   UNL     1       1.279  13.163  21.127  0.00  0.00    +0.000 NA
ATOM     22  N   UNL     1       2.280  13.845  21.774  0.00  0.00    +0.000 NA
ATOM     23  C   UNL     1       3.182  14.144  20.880  0.00  0.00    +0.000 A 
ATOM     24  N   UNL     1       2.792  13.708  19.660  0.00  0.00    +0.000 N 
ATOM     25  C   UNL     1       3.489  13.939  18.438  0.00  0.00    +0.000 C 
ENDBRANCH  19  20
ENDBRANCH  17  19
ENDBRANCH  15  17
ENDBRANCH   8  11
BRANCH   5  26
ATOM     26  C   UNL     1       3.203   2.775  18.230  0.00  0.00    +0.000 C 
ATOM     27  F   UNL     1       1.854   2.665  18.085  0.00  0.00    +0.000 F 
ATOM     28  F   UNL     1       3.728   1.643  17.687  0.00  0.00    +0.000 F 
ATOM     29  F   UNL     1       3.441   2.697  19.567  0.00  0.00    +0.000 F 
ENDBRANCH   5  26
BRANCH   1  31
ATOM     30  C   UNL     1       6.045   4.007  13.821  0.00  0.00    +0.000 C 
ATOM     31  C   UNL     1       6.212   4.885  14.819  0.00  0.00    +0.000 C 
ENDBRANCH   1  31
TORSDOF 6
ENDMDL
MODEL 9
REMARK VINA RESULT:      -8.2      4.528      9.089
REMARK  Name = 
REMARK  8 active torsions:
REMARK  status: ('A' for Active; 'I' for Inactive)
REMARK    1  A    between atoms: C_2  and  C_3
REMARK    2  A    between atoms: C_7  and  C_8
REMARK    3  A    between atoms: N_14  and  C_15
REMARK    4  A    between atoms: C_19  and  N_20
REMARK    5  A    between atoms: N_20  and  C_21
REMARK    6  A    between atoms: N_20  and  C_22
REMARK    7  A    between atoms: C_22  and  C_23
REMARK    8  A    between atoms: N_27  and  C_28
REMARK                            x       y       z     vdW  Elec       q    Type
REMARK                         _______ _______ _______ _____ _____    ______ ____
ROOT
ATOM      1  C   UNL     1       4.136   4.462  17.492  0.00  0.00    +0.000 A 
ATOM      2  C   UNL     1       3.873   5.833  17.504  0.00  0.00    +0.000 A 
ATOM      3  C   UNL     1       3.050   6.329  18.494  0.00  0.00    +0.000 A 
ATOM      4  C   UNL     1       2.469   5.530  19.479  0.00  0.00    +0.000 A 
ATOM      5  C   UNL     1       2.675   4.155  19.471  0.00  0.00    +0.000 A 
ATOM      6  C   UNL     1       3.518   3.632  18.459  0.00  0.00    +0.000 A 
ATOM      7  C   UNL     1       1.666   6.398  20.404  0.00  0.00    +0.000 C 
ATOM      8  N   UNL     1       1.866   7.726  19.850  0.00  0.00    +0.000 N 
ATOM      9  C   UNL     1       2.628   7.717  18.692  0.00  0.00    +0.000 C 
ATOM     10  O   UNL     1       2.944   8.631  17.955  0.00  0.00    +0.000 OA
ENDROOT
BRANCH   8  11
ATOM     11  C   UNL     1       1.124   8.832  20.290  0.00  0.00    +0.000 A 
ATOM     12  C   UNL     1       0.833   8.964  21.643  0.00  0.00    +0.000 A 
ATOM     13  C   UNL     1       0.138  10.086  22.074  0.00  0.00    +0.000 A 
ATOM     14  C   UNL     1      -0.269  11.060  21.151  0.00  0.00    +0.000 A 
ATOM     15  C   UNL     1      -0.025  10.944  19.771  0.00  0.00    +0.000 A 
ATOM     16  C   UNL     1       0.688   9.803  19.369  0.00  0.00    +0.000 A 
BRANCH  15  17
ATOM     17  N   UNL     1      -0.536  11.880  18.869  0.00  0.00    +0.000 N 
ATOM     18  C   UNL     1      -0.368  13.311  19.122  0.00  0.00    +0.000 C 
BRANCH  17  19
ATOM     19  C   UNL     1      -1.689  11.513  18.009  0.00  0.00    +0.000 C 
BRANCH  19  20
ATOM     20  C   UNL     1      -3.074  11.836  18.524  0.00  0.00    +0.000 A 
ATOM     21  N   UNL     1      -3.374  12.241  19.746  0.00  0.00    +0.000 NA
ATOM     22  N   UNL     1      -4.732  12.426  19.830  0.00  0.00    +0.000 NA
ATOM     23  C   UNL     1      -5.234  12.128  18.663  0.00  0.00    +0.000 A 
ATOM     24  N   UNL     1      -4.253  11.722  17.824  0.00  0.00    +0.000 N 
ATOM     25  C   UNL     1      -4.450  11.235  16.499  0.00  0.00    +0.000 C 
ENDBRANCH  19  20
ENDBRANCH  17  19
ENDBRANCH  15  17
ENDBRANCH   8  11
BRANCH   5  26
ATOM     26  C   UNL     1       2.035   3.222  20.463  0.00  0.00    +0.000 C 
ATOM     27  F   UNL     1       2.468   3.409  21.740  0.00  0.00    +0.000 F 
ATOM     28  F   UNL     1       0.681   3.359  20.506  0.00  0.00    +0.000 F 
ATOM     29  F   UNL     1       2.271   1.912  20.178  0.00  0.00    +0.000 F 
ENDBRANCH   5  26
BRANCH   1  31
ATOM     30  C   UNL     1       5.233   4.415  15.272  0.00  0.00    +0.000 C 
ATOM     31  C   UNL     1       4.997   3.859  16.468  0.00  0.00    +0.000 C 
ENDBRANCH   1  31
TORSDOF 6
ENDMDL
