MODEL 1
REMARK VINA RESULT:      -8.5      0.000      0.000
REMARK  Name = 
REMARK  6 active torsions:
REMARK  status: ('A' for Active; 'I' for Inactive)
REMARK    1  A    between atoms: C_1  and  N_2
REMARK    2  A    between atoms: C_6  and  C_7
REMARK    3  A    between atoms: C_7  and  C_8
REMARK    4  A    between atoms: C_12  and  N_13
REMARK    5  A    between atoms: C_18  and  C_19
REMARK    6  A    between atoms: C_22  and  C_23
REMARK                            x       y       z     vdW  Elec       q    Type
REMARK                         _______ _______ _______ _____ _____    ______ ____
ROOT
ATOM      1  N   UNL     1       3.943   4.674  19.290  0.00  0.00    +0.000 N 
ATOM      2  C   UNL     1       5.304   5.257  19.369  0.00  0.00    +0.000 C 
ATOM      3  C   UNL     1       5.820   5.033  17.973  0.00  0.00    +0.000 A 
ATOM      4  C   UNL     1       5.172   3.904  17.469  0.00  0.00    +0.000 A 
ATOM      5  C   UNL     1       5.302   3.477  16.151  0.00  0.00    +0.000 A 
ATOM      6  C   UNL     1       6.114   4.246  15.321  0.00  0.00    +0.000 A 
ATOM      7  C   UNL     1       6.759   5.405  15.808  0.00  0.00    +0.000 A 
ATOM      8  C   UNL     1       6.615   5.825  17.150  0.00  0.00    +0.000 A 
ATOM      9  C   UNL     1       4.066   3.573  18.396  0.00  0.00    +0.000 C 
ATOM     10  O   UNL     1       3.296   2.632  18.226  0.00  0.00    +0.000 OA
ENDROOT
BRANCH   1  15
ATOM     11  C   UNL     1       1.848   7.599  19.891  0.00  0.00    +0.000 A 
ATOM     12  C   UNL     1       2.436   8.415  18.914  0.00  0.00    +0.000 A 
ATOM     13  C   UNL     1       3.083   7.847  17.822  0.00  0.00    +0.000 A 
ATOM     14  C   UNL     1       3.259   6.471  17.757  0.00  0.00    +0.000 A 
ATOM     15  C   UNL     1       2.980   5.698  18.892  0.00  0.00    +0.000 A 
ATOM     16  C   UNL     1       2.126   6.224  19.873  0.00  0.00    +0.000 A 
BRANCH  11  17
ATOM     17  C   UNL     1       0.950   8.205  20.943  0.00  0.00    +0.000 C 
BRANCH  17  23
ATOM     18  C   UNL     1      -0.903   9.964  19.093  0.00  0.00    +0.000 C 
ATOM     19  N   UNL     1      -0.006  10.424  20.119  0.00  0.00    +0.000 N 
ATOM     20  C   UNL     1       0.135  11.721  20.511  0.00  0.00    +0.000 A 
ATOM     21  N   UNL     1       1.018  11.794  21.477  0.00  0.00    +0.000 NA
ATOM     22  N   UNL     1       1.465  10.520  21.728  0.00  0.00    +0.000 NA
ATOM     23  C   UNL     1       0.840   9.690  20.913  0.00  0.00    +0.000 A 
ENDBRANCH  17  23
ENDBRANCH  11  17
ENDBRANCH   1  15
BRANCH   8  24
ATOM     24  C   UNL     1       7.220   7.141  17.572  0.00  0.00    +0.000 C 
ATOM     25  F   UNL     1       8.095   7.666  16.677  0.00  0.00    +0.000 F 
ATOM     26  F   UNL     1       6.280   8.099  17.777  0.00  0.00    +0.000 F 
ATOM     27  F   UNL     1       7.914   7.038  18.746  0.00  0.00    +0.000 F 
ENDBRANCH   8  24
BRANCH   6  28
ATOM     28  C   UNL     1       6.222   3.904  13.888  0.00  0.00    +0.000 C 
ATOM     29  O   UNL     1       6.965   4.524  13.136  0.00  0.00    +0.000 OA
ENDBRANCH   6  28
TORSDOF 5
ENDMDL
MODEL 2
REMARK VINA RESULT:      -8.4      5.970      8.981
REMARK  Name = 
REMARK  6 active torsions:
REMARK  status: ('A' for Active; 'I' for Inactive)
REMARK    1  A    between atoms: C_1  and  N_2
REMARK    2  A    between atoms: C_6  and  C_7
REMARK    3  A    between atoms: C_7  and  C_8
REMARK    4  A    between atoms: C_12  and  N_13
REMARK    5  A    between atoms: C_18  and  C_19
REMARK    6  A    between atoms: C_22  and  C_23
REMARK                            x       y       z     vdW  Elec       q    Type
REMARK                         _______ _______ _______ _____ _____    ______ ____
ROOT
ATOM      1  N   UNL     1      -1.603  12.531  18.525  0.00  0.00    +0.000 N 
ATOM      2  C   UNL     1      -0.213  12.091  18.259  0.00  0.00    +0.000 C 
ATOM      3  C   UNL     1       0.116  11.322  19.510  0.00  0.00    +0.000 A 
ATOM      4  C   UNL     1      -0.650  11.867  20.543  0.00  0.00    +0.000 A 
ATOM      5  C   UNL     1      -0.706  11.317  21.819  0.00  0.00    +0.000 A 
ATOM      6  C   UNL     1       0.040  10.160  22.036  0.00  0.00    +0.000 A 
ATOM      7  C   UNL     1       0.802   9.583  20.996  0.00  0.00    +0.000 A 
ATOM      8  C   UNL     1       0.847  10.155  19.704  0.00  0.00    +0.000 A 
ATOM      9  C   UNL     1      -1.651  12.768  19.928  0.00  0.00    +0.000 C 
ATOM     10  O   UNL     1      -2.487  13.394  20.573  0.00  0.00    +0.000 OA
ENDROOT
BRANCH   1  15
ATOM     11  C   UNL     1      -4.888  11.433  17.382  0.00  0.00    +0.000 A 
ATOM     12  C   UNL     1      -4.480  11.023  16.105  0.00  0.00    +0.000 A 
ATOM     13  C   UNL     1      -3.159  10.655  15.875  0.00  0.00    +0.000 A 
ATOM     14  C   UNL     1      -2.210  10.810  16.877  0.00  0.00    +0.000 A 
ATOM     15  C   UNL     1      -2.550  11.537  18.026  0.00  0.00    +0.000 A 
ATOM     16  C   UNL     1      -3.906  11.689  18.351  0.00  0.00    +0.000 A 
BRANCH  11  17
ATOM     17  C   UNL     1      -6.357  11.605  17.688  0.00  0.00    +0.000 C 
BRANCH  17  23
ATOM     18  C   UNL     1      -7.650  13.077  20.160  0.00  0.00    +0.000 C 
ATOM     19  N   UNL     1      -7.413  11.665  20.012  0.00  0.00    +0.000 N 
ATOM     20  C   UNL     1      -7.785  10.711  20.910  0.00  0.00    +0.000 A 
ATOM     21  N   UNL     1      -7.436   9.529  20.463  0.00  0.00    +0.000 NA
ATOM     22  N   UNL     1      -6.826   9.709  19.247  0.00  0.00    +0.000 NA
ATOM     23  C   UNL     1      -6.819  11.000  18.968  0.00  0.00    +0.000 A 
ENDBRANCH  17  23
ENDBRANCH  11  17
ENDBRANCH   1  15
BRANCH   8  24
ATOM     24  C   UNL     1       1.570   9.417  18.605  0.00  0.00    +0.000 C 
ATOM     25  F   UNL     1       2.539  10.141  17.990  0.00  0.00    +0.000 F 
ATOM     26  F   UNL     1       2.178   8.288  19.053  0.00  0.00    +0.000 F 
ATOM     27  F   UNL     1       0.723   9.016  17.608  0.00  0.00    +0.000 F 
ENDBRANCH   8  24
BRANCH   6  28
ATOM     28  C   UNL     1      -0.047   9.472  23.340  0.00  0.00    +0.000 C 
ATOM     29  O   UNL     1       0.890   9.475  24.129  0.00  0.00    +0.000 OA
ENDBRANCH   6  28
TORSDOF 5
ENDMDL
MODEL 3
REMARK VINA RESULT:      -8.3      0.804      1.334
REMARK  Name = 
REMARK  6 active torsions:
REMARK  status: ('A' for Active; 'I' for Inactive)
REMARK    1  A    between atoms: C_1  and  N_2
REMARK    2  A    between atoms: C_6  and  C_7
REMARK    3  A    between atoms: C_7  and  C_8
REMARK    4  A    between atoms: C_12  and  N_13
REMARK    5  A    between atoms: C_18  and  C_19
REMARK    6  A    between atoms: C_22  and  C_23
REMARK                            x       y       z     vdW  Elec       q    Type
REMARK                         _______ _______ _______ _____ _____    ______ ____
ROOT
ATOM      1  N   UNL     1       4.061   4.431  19.063  0.00  0.00    +0.000 N 
ATOM      2  C   UNL     1       5.404   5.037  19.223  0.00  0.00    +0.000 C 
ATOM      3  C   UNL     1       5.944   4.973  17.820  0.00  0.00    +0.000 A 
ATOM      4  C   UNL     1       5.334   3.886  17.191  0.00  0.00    +0.000 A 
ATOM      5  C   UNL     1       5.491   3.603  15.838  0.00  0.00    +0.000 A 
ATOM      6  C   UNL     1       6.293   4.475  15.105  0.00  0.00    +0.000 A 
ATOM      7  C   UNL     1       6.900   5.593  15.721  0.00  0.00    +0.000 A 
ATOM      8  C   UNL     1       6.728   5.867  17.096  0.00  0.00    +0.000 A 
ATOM      9  C   UNL     1       4.225   3.432  18.061  0.00  0.00    +0.000 C 
ATOM     10  O   UNL     1       3.483   2.495  17.782  0.00  0.00    +0.000 OA
ENDROOT
BRANCH   1  15
ATOM     11  C   UNL     1       2.134   7.433  19.824  0.00  0.00    +0.000 A 
ATOM     12  C   UNL     1       2.600   8.195  18.743  0.00  0.00    +0.000 A 
ATOM     13  C   UNL     1       3.078   7.569  17.597  0.00  0.00    +0.000 A 
ATOM     14  C   UNL     1       3.213   6.187  17.565  0.00  0.00    +0.000 A 
ATOM     15  C   UNL     1       3.075   5.465  18.759  0.00  0.00    +0.000 A 
ATOM     16  C   UNL     1       2.376   6.050  19.825  0.00  0.00    +0.000 A 
BRANCH  11  17
ATOM     17  C   UNL     1       1.402   8.102  20.963  0.00  0.00    +0.000 C 
BRANCH  17  23
ATOM     18  C   UNL     1      -0.382   9.886  22.855  0.00  0.00    +0.000 C 
ATOM     19  N   UNL     1      -0.206  10.028  21.434  0.00  0.00    +0.000 N 
ATOM     20  C   UNL     1      -0.741  11.024  20.675  0.00  0.00    +0.000 A 
ATOM     21  N   UNL     1      -0.373  10.870  19.427  0.00  0.00    +0.000 NA
ATOM     22  N   UNL     1       0.422   9.752  19.363  0.00  0.00    +0.000 NA
ATOM     23  C   UNL     1       0.531   9.247  20.579  0.00  0.00    +0.000 A 
ENDBRANCH  17  23
ENDBRANCH  11  17
ENDBRANCH   1  15
BRANCH   8  24
ATOM     24  C   UNL     1       7.291   7.147  17.662  0.00  0.00    +0.000 C 
ATOM     25  F   UNL     1       6.357   8.085  17.957  0.00  0.00    +0.000 F 
ATOM     26  F   UNL     1       7.988   6.943  18.809  0.00  0.00    +0.000 F 
ATOM     27  F   UNL     1       8.161   7.754  16.798  0.00  0.00    +0.000 F 
ENDBRANCH   8  24
BRANCH   6  28
ATOM     28  C   UNL     1       6.429   4.287  13.646  0.00  0.00    +0.000 C 
ATOM     29  O   UNL     1       5.848   3.381  13.061  0.00  0.00    +0.000 OA
ENDBRANCH   6  28
TORSDOF 5
ENDMDL
MODEL 4
REMARK VINA RESULT:      -8.1      6.987      9.567
REMARK  Name = 
REMARK  6 active torsions:
REMARK  status: ('A' for Active; 'I' for Inactive)
REMARK    1  A    between atoms: C_1  and  N_2
REMARK    2  A    between atoms: C_6  and  C_7
REMARK    3  A    between atoms: C_7  and  C_8
REMARK    4  A    between atoms: C_12  and  N_13
REMARK    5  A    between atoms: C_18  and  C_19
REMARK    6  A    between atoms: C_22  and  C_23
REMARK                            x       y       z     vdW  Elec       q    Type
REMARK                         _______ _______ _______ _____ _____    ______ ____
ROOT
ATOM      1  N   UNL     1      -0.268  11.283  18.346  0.00  0.00    +0.000 N 
ATOM      2  C   UNL     1       0.478  10.494  19.354  0.00  0.00    +0.000 C 
ATOM      3  C   UNL     1       0.075  11.167  20.638  0.00  0.00    +0.000 A 
ATOM      4  C   UNL     1      -0.222  12.496  20.332  0.00  0.00    +0.000 A 
ATOM      5  C   UNL     1      -0.762  13.387  21.255  0.00  0.00    +0.000 A 
ATOM      6  C   UNL     1      -1.018  12.889  22.531  0.00  0.00    +0.000 A 
ATOM      7  C   UNL     1      -0.745  11.539  22.850  0.00  0.00    +0.000 A 
ATOM      8  C   UNL     1      -0.197  10.648  21.900  0.00  0.00    +0.000 A 
ATOM      9  C   UNL     1      -0.285  12.612  18.858  0.00  0.00    +0.000 C 
ATOM     10  O   UNL     1      -0.538  13.659  18.269  0.00  0.00    +0.000 OA
ENDROOT
BRANCH   1  15
ATOM     11  C   UNL     1      -3.858  11.431  17.719  0.00  0.00    +0.000 A 
ATOM     12  C   UNL     1      -3.832  10.748  16.496  0.00  0.00    +0.000 A 
ATOM     13  C   UNL     1      -2.794   9.868  16.206  0.00  0.00    +0.000 A 
ATOM     14  C   UNL     1      -1.716   9.755  17.073  0.00  0.00    +0.000 A 
ATOM     15  C   UNL     1      -1.582  10.687  18.112  0.00  0.00    +0.000 A 
ATOM     16  C   UNL     1      -2.717  11.394  18.535  0.00  0.00    +0.000 A 
BRANCH  11  17
ATOM     17  C   UNL     1      -5.092  12.198  18.131  0.00  0.00    +0.000 C 
BRANCH  17  23
ATOM     18  C   UNL     1      -5.958  13.235  20.981  0.00  0.00    +0.000 C 
ATOM     19  N   UNL     1      -6.360  12.011  20.339  0.00  0.00    +0.000 N 
ATOM     20  C   UNL     1      -7.256  11.119  20.846  0.00  0.00    +0.000 A 
ATOM     21  N   UNL     1      -7.408  10.126  20.004  0.00  0.00    +0.000 NA
ATOM     22  N   UNL     1      -6.600  10.370  18.922  0.00  0.00    +0.000 NA
ATOM     23  C   UNL     1      -5.971  11.515  19.120  0.00  0.00    +0.000 A 
ENDBRANCH  17  23
ENDBRANCH  11  17
ENDBRANCH   1  15
BRANCH   8  24
ATOM     24  C   UNL     1      -0.056   9.191  22.264  0.00  0.00    +0.000 C 
ATOM     25  F   UNL     1      -0.858   8.358  21.556  0.00  0.00    +0.000 F 
ATOM     26  F   UNL     1       1.210   8.733  22.080  0.00  0.00    +0.000 F 
ATOM     27  F   UNL     1      -0.351   8.956  23.579  0.00  0.00    +0.000 F 
ENDBRANCH   8  24
BRANCH   6  28
ATOM     28  C   UNL     1      -1.676  13.753  23.531  0.00  0.00    +0.000 C 
ATOM     29  O   UNL     1      -1.030  14.495  24.261  0.00  0.00    +0.000 OA
ENDBRANCH   6  28
TORSDOF 5
ENDMDL
MODEL 5
REMARK VINA RESULT:      -8.0      6.069      8.942
REMARK  Name = 
REMARK  6 active torsions:
REMARK  status: ('A' for Active; 'I' for Inactive)
REMARK    1  A    between atoms: C_1  and  N_2
REMARK    2  A    between atoms: C_6  and  C_7
REMARK    3  A    between atoms: C_7  and  C_8
REMARK    4  A    between atoms: C_12  and  N_13
REMARK    5  A    between atoms: C_18  and  C_19
REMARK    6  A    between atoms: C_22  and  C_23
REMARK                            x       y       z     vdW  Elec       q    Type
REMARK                         _______ _______ _______ _____ _____    ______ ____
ROOT
ATOM      1  N   UNL     1      -1.779  12.563  18.753  0.00  0.00    +0.000 N 
ATOM      2  C   UNL     1      -0.400  12.208  18.344  0.00  0.00    +0.000 C 
ATOM      3  C   UNL     1       0.050  11.336  19.486  0.00  0.00    +0.000 A 
ATOM      4  C   UNL     1      -0.653  11.747  20.620  0.00  0.00    +0.000 A 
ATOM      5  C   UNL     1      -0.593  11.075  21.837  0.00  0.00    +0.000 A 
ATOM      6  C   UNL     1       0.206   9.935  21.884  0.00  0.00    +0.000 A 
ATOM      7  C   UNL     1       0.906   9.492  20.739  0.00  0.00    +0.000 A 
ATOM      8  C   UNL     1       0.833  10.187  19.510  0.00  0.00    +0.000 A 
ATOM      9  C   UNL     1      -1.728  12.661  20.172  0.00  0.00    +0.000 C 
ATOM     10  O   UNL     1      -2.533  13.188  20.935  0.00  0.00    +0.000 OA
ENDROOT
BRANCH   1  15
ATOM     11  C   UNL     1      -5.011  11.539  17.407  0.00  0.00    +0.000 A 
ATOM     12  C   UNL     1      -4.524  11.050  16.187  0.00  0.00    +0.000 A 
ATOM     13  C   UNL     1      -3.206  10.618  16.079  0.00  0.00    +0.000 A 
ATOM     14  C   UNL     1      -2.332  10.786  17.145  0.00  0.00    +0.000 A 
ATOM     15  C   UNL     1      -2.727  11.583  18.228  0.00  0.00    +0.000 A 
ATOM     16  C   UNL     1      -4.096  11.805  18.438  0.00  0.00    +0.000 A 
BRANCH  11  17
ATOM     17  C   UNL     1      -6.490  11.784  17.588  0.00  0.00    +0.000 C 
BRANCH  17  23
ATOM     18  C   UNL     1      -7.060   9.301  19.446  0.00  0.00    +0.000 C 
ATOM     19  N   UNL     1      -7.173  10.693  19.792  0.00  0.00    +0.000 N 
ATOM     20  C   UNL     1      -7.483  11.168  21.030  0.00  0.00    +0.000 A 
ATOM     21  N   UNL     1      -7.485  12.479  21.008  0.00  0.00    +0.000 NA
ATOM     22  N   UNL     1      -7.168  12.873  19.732  0.00  0.00    +0.000 NA
ATOM     23  C   UNL     1      -6.970  11.793  18.997  0.00  0.00    +0.000 A 
ENDBRANCH  17  23
ENDBRANCH  11  17
ENDBRANCH   1  15
BRANCH   8  24
ATOM     24  C   UNL     1       1.495   9.588  18.293  0.00  0.00    +0.000 C 
ATOM     25  F   UNL     1       0.629   9.150  17.346  0.00  0.00    +0.000 F 
ATOM     26  F   UNL     1       2.316  10.470  17.666  0.00  0.00    +0.000 F 
ATOM     27  F   UNL     1       2.273   8.509  18.608  0.00  0.00    +0.000 F 
ENDBRANCH   8  24
BRANCH   6  28
ATOM     28  C   UNL     1       0.243   9.121  23.116  0.00  0.00    +0.000 C 
ATOM     29  O   UNL     1       0.320   9.640  24.223  0.00  0.00    +0.000 OA
ENDBRANCH   6  28
TORSDOF 5
ENDMDL
MODEL 6
REMARK VINA RESULT:      -8.0      0.803      1.277
REMARK  Name = 
REMARK  6 active torsions:
REMARK  status: ('A' for Active; 'I' for Inactive)
REMARK    1  A    between atoms: C_1  and  N_2
REMARK    2  A    between atoms: C_6  and  C_7
REMARK    3  A    between atoms: C_7  and  C_8
REMARK    4  A    between atoms: C_12  and  N_13
REMARK    5  A    between atoms: C_18  and  C_19
REMARK    6  A    between atoms: C_22  and  C_23
REMARK                            x       y       z     vdW  Elec       q    Type
REMARK                         _______ _______ _______ _____ _____    ______ ____
ROOT
ATOM      1  N   UNL     1       3.773   4.887  19.205  0.00  0.00    +0.000 N 
ATOM      2  C   UNL     1       5.149   5.418  19.347  0.00  0.00    +0.000 C 
ATOM      3  C   UNL     1       5.732   5.142  17.988  0.00  0.00    +0.000 A 
ATOM      4  C   UNL     1       5.069   4.027  17.472  0.00  0.00    +0.000 A 
ATOM      5  C   UNL     1       5.254   3.566  16.173  0.00  0.00    +0.000 A 
ATOM      6  C   UNL     1       6.141   4.284  15.373  0.00  0.00    +0.000 A 
ATOM      7  C   UNL     1       6.803   5.428  15.872  0.00  0.00    +0.000 A 
ATOM      8  C   UNL     1       6.603   5.884  17.195  0.00  0.00    +0.000 A 
ATOM      9  C   UNL     1       3.901   3.761  18.342  0.00  0.00    +0.000 C 
ATOM     10  O   UNL     1       3.105   2.847  18.149  0.00  0.00    +0.000 OA
ENDROOT
BRANCH   1  15
ATOM     11  C   UNL     1       1.976   8.043  19.539  0.00  0.00    +0.000 A 
ATOM     12  C   UNL     1       2.563   8.674  18.433  0.00  0.00    +0.000 A 
ATOM     13  C   UNL     1       3.086   7.918  17.389  0.00  0.00    +0.000 A 
ATOM     14  C   UNL     1       3.141   6.535  17.493  0.00  0.00    +0.000 A 
ATOM     15  C   UNL     1       2.874   5.937  18.733  0.00  0.00    +0.000 A 
ATOM     16  C   UNL     1       2.135   6.656  19.684  0.00  0.00    +0.000 A 
BRANCH  11  17
ATOM     17  C   UNL     1       1.205   8.855  20.552  0.00  0.00    +0.000 C 
BRANCH  17  23
ATOM     18  C   UNL     1       1.515  11.992  20.654  0.00  0.00    +0.000 C 
ATOM     19  N   UNL     1       0.469  11.239  20.015  0.00  0.00    +0.000 N 
ATOM     20  C   UNL     1      -0.539  11.777  19.273  0.00  0.00    +0.000 A 
ATOM     21  N   UNL     1      -1.309  10.817  18.821  0.00  0.00    +0.000 NA
ATOM     22  N   UNL     1      -0.796   9.626  19.270  0.00  0.00    +0.000 NA
ATOM     23  C   UNL     1       0.285   9.879  19.985  0.00  0.00    +0.000 A 
ENDBRANCH  17  23
ENDBRANCH  11  17
ENDBRANCH   1  15
BRANCH   8  24
ATOM     24  C   UNL     1       7.235   7.185  17.622  0.00  0.00    +0.000 C 
ATOM     25  F   UNL     1       8.115   7.698  16.726  0.00  0.00    +0.000 F 
ATOM     26  F   UNL     1       6.315   8.160  17.839  0.00  0.00    +0.000 F 
ATOM     27  F   UNL     1       7.932   7.061  18.792  0.00  0.00    +0.000 F 
ENDBRANCH   8  24
BRANCH   6  28
ATOM     28  C   UNL     1       6.314   3.905  13.956  0.00  0.00    +0.000 C 
ATOM     29  O   UNL     1       5.354   3.786  13.204  0.00  0.00    +0.000 OA
ENDBRANCH   6  28
TORSDOF 5
ENDMDL
MODEL 7
REMARK VINA RESULT:      -7.8      7.536     10.036
REMARK  Name = 
REMARK  6 active torsions:
REMARK  status: ('A' for Active; 'I' for Inactive)
REMARK    1  A    between atoms: C_1  and  N_2
REMARK    2  A    between atoms: C_6  and  C_7
REMARK    3  A    between atoms: C_7  and  C_8
REMARK    4  A    between atoms: C_12  and  N_13
REMARK    5  A    between atoms: C_18  and  C_19
REMARK    6  A    between atoms: C_22  and  C_23
REMARK                            x       y       z     vdW  Elec       q    Type
REMARK                         _______ _______ _______ _____ _____    ______ ____
ROOT
ATOM      1  N   UNL     1      -0.772  12.036  19.042  0.00  0.00    +0.000 N 
ATOM      2  C   UNL     1       0.131  11.386  20.021  0.00  0.00    +0.000 C 
ATOM      3  C   UNL     1      -0.602  11.608  21.317  0.00  0.00    +0.000 A 
ATOM      4  C   UNL     1      -1.352  12.777  21.172  0.00  0.00    +0.000 A 
ATOM      5  C   UNL     1      -2.262  13.220  22.126  0.00  0.00    +0.000 A 
ATOM      6  C   UNL     1      -2.416  12.426  23.261  0.00  0.00    +0.000 A 
ATOM      7  C   UNL     1      -1.682  11.228  23.413  0.00  0.00    +0.000 A 
ATOM      8  C   UNL     1      -0.762  10.793  22.433  0.00  0.00    +0.000 A 
ATOM      9  C   UNL     1      -1.331  13.146  19.738  0.00  0.00    +0.000 C 
ATOM     10  O   UNL     1      -1.911  14.126  19.281  0.00  0.00    +0.000 OA
ENDROOT
BRANCH   1  15
ATOM     11  C   UNL     1      -3.920  11.086  17.464  0.00  0.00    +0.000 A 
ATOM     12  C   UNL     1      -3.351  10.416  16.372  0.00  0.00    +0.000 A 
ATOM     13  C   UNL     1      -2.070   9.883  16.466  0.00  0.00    +0.000 A 
ATOM     14  C   UNL     1      -1.301  10.118  17.597  0.00  0.00    +0.000 A 
ATOM     15  C   UNL     1      -1.739  11.069  18.529  0.00  0.00    +0.000 A 
ATOM     16  C   UNL     1      -3.099  11.411  18.555  0.00  0.00    +0.000 A 
BRANCH  11  17
ATOM     17  C   UNL     1      -5.384  11.456  17.446  0.00  0.00    +0.000 C 
BRANCH  17  23
ATOM     18  C   UNL     1      -6.217  13.461  19.734  0.00  0.00    +0.000 C 
ATOM     19  N   UNL     1      -6.517  12.057  19.654  0.00  0.00    +0.000 N 
ATOM     20  C   UNL     1      -7.288  11.369  20.542  0.00  0.00    +0.000 A 
ATOM     21  N   UNL     1      -7.374  10.116  20.169  0.00  0.00    +0.000 NA
ATOM     22  N   UNL     1      -6.649   9.976  19.012  0.00  0.00    +0.000 NA
ATOM     23  C   UNL     1      -6.137  11.151  18.694  0.00  0.00    +0.000 A 
ENDBRANCH  17  23
ENDBRANCH  11  17
ENDBRANCH   1  15
BRANCH   8  24
ATOM     24  C   UNL     1      -0.111   9.441  22.592  0.00  0.00    +0.000 C 
ATOM     25  F   UNL     1      -0.090   8.978  23.867  0.00  0.00    +0.000 F 
ATOM     26  F   UNL     1      -0.730   8.480  21.859  0.00  0.00    +0.000 F 
ATOM     27  F   UNL     1       1.193   9.444  22.181  0.00  0.00    +0.000 F 
ENDBRANCH   8  24
BRANCH   6  28
ATOM     28  C   UNL     1      -3.433  12.787  24.270  0.00  0.00    +0.000 C 
ATOM     29  O   UNL     1      -4.395  12.063  24.496  0.00  0.00    +0.000 OA
ENDBRANCH   6  28
TORSDOF 5
ENDMDL
MODEL 8
REMARK VINA RESULT:      -7.7      1.177      2.040
REMARK  Name = 
REMARK  6 active torsions:
REMARK  status: ('A' for Active; 'I' for Inactive)
REMARK    1  A    between atoms: C_1  and  N_2
REMARK    2  A    between atoms: C_6  and  C_7
REMARK    3  A    between atoms: C_7  and  C_8
REMARK    4  A    between atoms: C_12  and  N_13
REMARK    5  A    between atoms: C_18  and  C_19
REMARK    6  A    between atoms: C_22  and  C_23
REMARK                            x       y       z     vdW  Elec       q    Type
REMARK                         _______ _______ _______ _____ _____    ______ ____
ROOT
ATOM      1  N   UNL     1       4.308   3.559  19.253  0.00  0.00    +0.000 N 
ATOM      2  C   UNL     1       5.558   4.354  19.223  0.00  0.00    +0.000 C 
ATOM      3  C   UNL     1       5.841   4.435  17.747  0.00  0.00    +0.000 A 
ATOM      4  C   UNL     1       5.289   3.296  17.158  0.00  0.00    +0.000 A 
ATOM      5  C   UNL     1       5.240   3.098  15.782  0.00  0.00    +0.000 A 
ATOM      6  C   UNL     1       5.766   4.113  14.984  0.00  0.00    +0.000 A 
ATOM      7  C   UNL     1       6.308   5.283  15.563  0.00  0.00    +0.000 A 
ATOM      8  C   UNL     1       6.348   5.467  16.964  0.00  0.00    +0.000 A 
ATOM      9  C   UNL     1       4.430   2.641  18.171  0.00  0.00    +0.000 C 
ATOM     10  O   UNL     1       3.791   1.615  17.958  0.00  0.00    +0.000 OA
ENDROOT
BRANCH   1  15
ATOM     11  C   UNL     1       2.605   6.660  18.366  0.00  0.00    +0.000 A 
ATOM     12  C   UNL     1       1.634   6.075  17.541  0.00  0.00    +0.000 A 
ATOM     13  C   UNL     1       1.274   4.743  17.717  0.00  0.00    +0.000 A 
ATOM     14  C   UNL     1       1.962   3.952  18.628  0.00  0.00    +0.000 A 
ATOM     15  C   UNL     1       3.147   4.443  19.194  0.00  0.00    +0.000 A 
ATOM     16  C   UNL     1       3.366   5.829  19.203  0.00  0.00    +0.000 A 
BRANCH  11  17
ATOM     17  C   UNL     1       2.825   8.154  18.333  0.00  0.00    +0.000 C 
BRANCH  17  23
ATOM     18  C   UNL     1       1.377   8.420  21.123  0.00  0.00    +0.000 C 
ATOM     19  N   UNL     1       1.050   9.107  19.901  0.00  0.00    +0.000 N 
ATOM     20  C   UNL     1       0.083  10.057  19.773  0.00  0.00    +0.000 A 
ATOM     21  N   UNL     1       0.057  10.491  18.537  0.00  0.00    +0.000 NA
ATOM     22  N   UNL     1       1.027   9.816  17.838  0.00  0.00    +0.000 NA
ATOM     23  C   UNL     1       1.635   8.984  18.665  0.00  0.00    +0.000 A 
ENDBRANCH  17  23
ENDBRANCH  11  17
ENDBRANCH   1  15
BRANCH   8  24
ATOM     24  C   UNL     1       6.815   6.793  17.512  0.00  0.00    +0.000 C 
ATOM     25  F   UNL     1       5.848   7.742  17.579  0.00  0.00    +0.000 F 
ATOM     26  F   UNL     1       7.316   6.684  18.770  0.00  0.00    +0.000 F 
ATOM     27  F   UNL     1       7.815   7.340  16.756  0.00  0.00    +0.000 F 
ENDBRANCH   8  24
BRANCH   6  28
ATOM     28  C   UNL     1       5.663   4.011  13.515  0.00  0.00    +0.000 C 
ATOM     29  O   UNL     1       6.660   4.001  12.802  0.00  0.00    +0.000 OA
ENDBRANCH   6  28
TORSDOF 5
ENDMDL
MODEL 9
REMARK VINA RESULT:      -7.7      7.149      9.607
REMARK  Name = 
REMARK  6 active torsions:
REMARK  status: ('A' for Active; 'I' for Inactive)
REMARK    1  A    between atoms: C_1  and  N_2
REMARK    2  A    between atoms: C_6  and  C_7
REMARK    3  A    between atoms: C_7  and  C_8
REMARK    4  A    between atoms: C_12  and  N_13
REMARK    5  A    between atoms: C_18  and  C_19
REMARK    6  A    between atoms: C_22  and  C_23
REMARK                            x       y       z     vdW  Elec       q    Type
REMARK                         _______ _______ _______ _____ _____    ______ ____
ROOT
ATOM      1  N   UNL     1      -0.328  11.518  18.470  0.00  0.00    +0.000 N 
ATOM      2  C   UNL     1       0.439  10.744  19.474  0.00  0.00    +0.000 C 
ATOM      3  C   UNL     1      -0.050  11.338  20.767  0.00  0.00    +0.000 A 
ATOM      4  C   UNL     1      -0.428  12.654  20.500  0.00  0.00    +0.000 A 
ATOM      5  C   UNL     1      -1.057  13.470  21.434  0.00  0.00    +0.000 A 
ATOM      6  C   UNL     1      -1.318  12.907  22.682  0.00  0.00    +0.000 A 
ATOM      7  C   UNL     1      -0.962  11.568  22.962  0.00  0.00    +0.000 A 
ATOM      8  C   UNL     1      -0.325  10.753  22.000  0.00  0.00    +0.000 A 
ATOM      9  C   UNL     1      -0.453  12.822  19.029  0.00  0.00    +0.000 C 
ATOM     10  O   UNL     1      -0.760  13.871  18.470  0.00  0.00    +0.000 OA
ENDROOT
BRANCH   1  15
ATOM     11  C   UNL     1      -3.815  11.432  17.404  0.00  0.00    +0.000 A 
ATOM     12  C   UNL     1      -3.622  10.582  16.306  0.00  0.00    +0.000 A 
ATOM     13  C   UNL     1      -2.538   9.712  16.274  0.00  0.00    +0.000 A 
ATOM     14  C   UNL     1      -1.573   9.767  17.272  0.00  0.00    +0.000 A 
ATOM     15  C   UNL     1      -1.589  10.843  18.171  0.00  0.00    +0.000 A 
ATOM     16  C   UNL     1      -2.783  11.558  18.346  0.00  0.00    +0.000 A 
BRANCH  11  17
ATOM     17  C   UNL     1      -5.107  12.201  17.547  0.00  0.00    +0.000 C 
BRANCH  17  23
ATOM     18  C   UNL     1      -6.820  10.058  19.105  0.00  0.00    +0.000 C 
ATOM     19  N   UNL     1      -6.356  11.329  19.596  0.00  0.00    +0.000 N 
ATOM     20  C   UNL     1      -6.528  11.786  20.868  0.00  0.00    +0.000 A 
ATOM     21  N   UNL     1      -5.971  12.967  20.987  0.00  0.00    +0.000 NA
ATOM     22  N   UNL     1      -5.420  13.291  19.773  0.00  0.00    +0.000 NA
ATOM     23  C   UNL     1      -5.644  12.297  18.933  0.00  0.00    +0.000 A 
ENDBRANCH  17  23
ENDBRANCH  11  17
ENDBRANCH   1  15
BRANCH   8  24
ATOM     24  C   UNL     1      -0.093   9.296  22.315  0.00  0.00    +0.000 C 
ATOM     25  F   UNL     1      -0.879   8.442  21.614  0.00  0.00    +0.000 F 
ATOM     26  F   UNL     1       1.186   8.911  22.070  0.00  0.00    +0.000 F 
ATOM     27  F   UNL     1      -0.324   9.011  23.633  0.00  0.00    +0.000 F 
ENDBRANCH   8  24
BRANCH   6  28
ATOM     28  C   UNL     1      -2.066  13.685  23.690  0.00  0.00    +0.000 C 
ATOM     29  O   UNL     1      -3.280  13.573  23.814  0.00  0.00    +0.000 OA
ENDBRANCH   6  28
TORSDOF 5
ENDMDL
