MODEL 1
REMARK VINA RESULT:      -7.9      0.000      0.000
REMARK  Name = 
REMARK  5 active torsions:
REMARK  status: ('A' for Active; 'I' for Inactive)
REMARK    1  A    between atoms: C_2  and  O_3
REMARK    2  A    between atoms: C_2  and  C_10
REMARK    3  A    between atoms: O_3  and  C_4
REMARK    4  A    between atoms: C_13  and  C_14
REMARK    5  A    between atoms: C_17  and  C_18
REMARK                            x       y       z     vdW  Elec       q    Type
REMARK                         _______ _______ _______ _____ _____    ______ ____
ROOT
ATOM      1  C   UNL     1       1.039   9.937  19.057  0.00  0.00    +0.000 A 
ATOM      2  C   UNL     1       0.941   9.236  20.270  0.00  0.00    +0.000 A 
ATOM      3  C   UNL     1       1.546   7.983  20.428  0.00  0.00    +0.000 A 
ATOM      4  C   UNL     1       2.258   7.397  19.374  0.00  0.00    +0.000 A 
ATOM      5  C   UNL     1       2.362   8.103  18.164  0.00  0.00    +0.000 A 
ATOM      6  C   UNL     1       1.768   9.367  18.007  0.00  0.00    +0.000 A 
ENDROOT
BRANCH   4   7
ATOM      7  C   UNL     1       2.880   6.083  19.531  0.00  0.00    +0.000 A 
ATOM      8  N   UNL     1       4.084   5.757  19.036  0.00  0.00    +0.000 NA
ATOM      9  O   UNL     1       4.256   4.428  19.405  0.00  0.00    +0.000 OA
ATOM     10  C   UNL     1       3.136   4.064  20.097  0.00  0.00    +0.000 A 
ATOM     11  N   UNL     1       2.263   5.050  20.207  0.00  0.00    +0.000 NA
BRANCH  10  12
ATOM     12  C   UNL     1       3.093   2.660  20.580  0.00  0.00    +0.000 C 
ATOM     13  F   UNL     1       2.137   1.914  19.960  0.00  0.00    +0.000 F 
ATOM     14  F   UNL     1       4.271   2.010  20.382  0.00  0.00    +0.000 F 
ATOM     15  F   UNL     1       2.829   2.585  21.912  0.00  0.00    +0.000 F 
ENDBRANCH  10  12
ENDBRANCH   4   7
BRANCH   1  17
ATOM     16  O   UNL     1       0.893  12.277  18.678  0.00  0.00    +0.000 OA
ATOM     17  C   UNL     1       0.307  11.233  18.942  0.00  0.00    +0.000 C 
BRANCH  17  18
ATOM     18  O   UNL     1      -1.048  11.082  19.217  0.00  0.00    +0.000 OA
BRANCH  18  19
ATOM     19  C   UNL     1      -1.991  10.895  18.176  0.00  0.00    +0.000 A 
ATOM     20  C   UNL     1      -1.778  10.066  17.075  0.00  0.00    +0.000 A 
ATOM     21  C   UNL     1      -2.748   9.986  16.069  0.00  0.00    +0.000 A 
ATOM     22  C   UNL     1      -3.942  10.697  16.186  0.00  0.00    +0.000 A 
ATOM     23  C   UNL     1      -4.176  11.481  17.317  0.00  0.00    +0.000 A 
ATOM     24  C   UNL     1      -3.201  11.581  18.314  0.00  0.00    +0.000 A 
ENDBRANCH  18  19
ENDBRANCH  17  18
ENDBRANCH   1  17
TORSDOF 5
ENDMDL
MODEL 2
REMARK VINA RESULT:      -7.9      0.314      1.315
REMARK  Name = 
REMARK  5 active torsions:
REMARK  status: ('A' for Active; 'I' for Inactive)
REMARK    1  A    between atoms: C_2  and  O_3
REMARK    2  A    between atoms: C_2  and  C_10
REMARK    3  A    between atoms: O_3  and  C_4
REMARK    4  A    between atoms: C_13  and  C_14
REMARK    5  A    between atoms: C_17  and  C_18
REMARK                            x       y       z     vdW  Elec       q    Type
REMARK                         _______ _______ _______ _____ _____    ______ ____
ROOT
ATOM      1  C   UNL     1       1.055   9.770  19.005  0.00  0.00    +0.000 A 
ATOM      2  C   UNL     1       1.014   9.040  20.205  0.00  0.00    +0.000 A 
ATOM      3  C   UNL     1       1.683   7.816  20.325  0.00  0.00    +0.000 A 
ATOM      4  C   UNL     1       2.405   7.288  19.247  0.00  0.00    +0.000 A 
ATOM      5  C   UNL     1       2.452   8.023  18.052  0.00  0.00    +0.000 A 
ATOM      6  C   UNL     1       1.792   9.259  17.932  0.00  0.00    +0.000 A 
ENDROOT
BRANCH   4   7
ATOM      7  C   UNL     1       3.094   6.004  19.366  0.00  0.00    +0.000 A 
ATOM      8  N   UNL     1       4.307   5.751  18.849  0.00  0.00    +0.000 NA
ATOM      9  O   UNL     1       4.550   4.424  19.185  0.00  0.00    +0.000 OA
ATOM     10  C   UNL     1       3.459   3.988  19.880  0.00  0.00    +0.000 A 
ATOM     11  N   UNL     1       2.538   4.926  20.024  0.00  0.00    +0.000 NA
BRANCH  10  12
ATOM     12  C   UNL     1       3.492   2.572  20.330  0.00  0.00    +0.000 C 
ATOM     13  F   UNL     1       4.755   2.067  20.400  0.00  0.00    +0.000 F 
ATOM     14  F   UNL     1       2.948   2.411  21.566  0.00  0.00    +0.000 F 
ATOM     15  F   UNL     1       2.801   1.753  19.492  0.00  0.00    +0.000 F 
ENDBRANCH  10  12
ENDBRANCH   4   7
BRANCH   1  17
ATOM     16  O   UNL     1       0.787  12.109  18.694  0.00  0.00    +0.000 OA
ATOM     17  C   UNL     1       0.257  11.029  18.930  0.00  0.00    +0.000 C 
BRANCH  17  18
ATOM     18  O   UNL     1      -1.086  10.802  19.206  0.00  0.00    +0.000 OA
BRANCH  18  19
ATOM     19  C   UNL     1      -2.061  10.823  18.176  0.00  0.00    +0.000 A 
ATOM     20  C   UNL     1      -3.196  11.631  18.198  0.00  0.00    +0.000 A 
ATOM     21  C   UNL     1      -4.130  11.544  17.160  0.00  0.00    +0.000 A 
ATOM     22  C   UNL     1      -3.907  10.684  16.084  0.00  0.00    +0.000 A 
ATOM     23  C   UNL     1      -2.741   9.919  16.037  0.00  0.00    +0.000 A 
ATOM     24  C   UNL     1      -1.816   9.987  17.084  0.00  0.00    +0.000 A 
ENDBRANCH  18  19
ENDBRANCH  17  18
ENDBRANCH   1  17
TORSDOF 5
ENDMDL
MODEL 3
REMARK VINA RESULT:      -7.8      1.155      1.446
REMARK  Name = 
REMARK  5 active torsions:
REMARK  status: ('A' for Active; 'I' for Inactive)
REMARK    1  A    between atoms: C_2  and  O_3
REMARK    2  A    between atoms: C_2  and  C_10
REMARK    3  A    between atoms: O_3  and  C_4
REMARK    4  A    between atoms: C_13  and  C_14
REMARK    5  A    between atoms: C_17  and  C_18
REMARK                            x       y       z     vdW  Elec       q    Type
REMARK                         _______ _______ _______ _____ _____    ______ ____
ROOT
ATOM      1  C   UNL     1       1.230   9.660  19.503  0.00  0.00    +0.000 A 
ATOM      2  C   UNL     1       1.202   8.807  20.620  0.00  0.00    +0.000 A 
ATOM      3  C   UNL     1       1.724   7.510  20.547  0.00  0.00    +0.000 A 
ATOM      4  C   UNL     1       2.281   7.030  19.356  0.00  0.00    +0.000 A 
ATOM      5  C   UNL     1       2.316   7.887  18.243  0.00  0.00    +0.000 A 
ATOM      6  C   UNL     1       1.805   9.194  18.316  0.00  0.00    +0.000 A 
ENDROOT
BRANCH   4   7
ATOM      7  C   UNL     1       2.816   5.672  19.274  0.00  0.00    +0.000 A 
ATOM      8  N   UNL     1       4.082   5.343  19.576  0.00  0.00    +0.000 NA
ATOM      9  O   UNL     1       4.144   3.975  19.337  0.00  0.00    +0.000 OA
ATOM     10  C   UNL     1       2.904   3.593  18.911  0.00  0.00    +0.000 A 
ATOM     11  N   UNL     1       2.049   4.601  18.861  0.00  0.00    +0.000 NA
BRANCH  10  12
ATOM     12  C   UNL     1       2.741   2.154  18.576  0.00  0.00    +0.000 C 
ATOM     13  F   UNL     1       1.797   1.536  19.337  0.00  0.00    +0.000 F 
ATOM     14  F   UNL     1       2.372   1.965  17.281  0.00  0.00    +0.000 F 
ATOM     15  F   UNL     1       3.893   1.454  18.756  0.00  0.00    +0.000 F 
ENDBRANCH  10  12
ENDBRANCH   4   7
BRANCH   1  17
ATOM     16  O   UNL     1       0.583  11.604  20.705  0.00  0.00    +0.000 OA
ATOM     17  C   UNL     1       0.589  11.001  19.637  0.00  0.00    +0.000 C 
BRANCH  17  18
ATOM     18  O   UNL     1      -0.007  11.405  18.448  0.00  0.00    +0.000 OA
BRANCH  18  19
ATOM     19  C   UNL     1      -1.356  11.081  18.156  0.00  0.00    +0.000 A 
ATOM     20  C   UNL     1      -1.739  10.026  17.328  0.00  0.00    +0.000 A 
ATOM     21  C   UNL     1      -3.095   9.816  17.055  0.00  0.00    +0.000 A 
ATOM     22  C   UNL     1      -4.064  10.630  17.643  0.00  0.00    +0.000 A 
ATOM     23  C   UNL     1      -3.680  11.648  18.516  0.00  0.00    +0.000 A 
ATOM     24  C   UNL     1      -2.324  11.876  18.774  0.00  0.00    +0.000 A 
ENDBRANCH  18  19
ENDBRANCH  17  18
ENDBRANCH   1  17
TORSDOF 5
ENDMDL
MODEL 4
REMARK VINA RESULT:      -7.8      2.630      3.413
REMARK  Name = 
REMARK  5 active torsions:
REMARK  status: ('A' for Active; 'I' for Inactive)
REMARK    1  A    between atoms: C_2  and  O_3
REMARK    2  A    between atoms: C_2  and  C_10
REMARK    3  A    between atoms: O_3  and  C_4
REMARK    4  A    between atoms: C_13  and  C_14
REMARK    5  A    between atoms: C_17  and  C_18
REMARK                            x       y       z     vdW  Elec       q    Type
REMARK                         _______ _______ _______ _____ _____    ______ ____
ROOT
ATOM      1  C   UNL     1       1.264   9.225  19.309  0.00  0.00    +0.000 A 
ATOM      2  C   UNL     1       1.816   9.211  18.017  0.00  0.00    +0.000 A 
ATOM      3  C   UNL     1       2.632   8.154  17.595  0.00  0.00    +0.000 A 
ATOM      4  C   UNL     1       2.922   7.088  18.456  0.00  0.00    +0.000 A 
ATOM      5  C   UNL     1       2.362   7.099  19.744  0.00  0.00    +0.000 A 
ATOM      6  C   UNL     1       1.531   8.152  20.166  0.00  0.00    +0.000 A 
ENDROOT
BRANCH   4   7
ATOM      7  C   UNL     1       3.783   5.989  18.022  0.00  0.00    +0.000 A 
ATOM      8  N   UNL     1       3.747   4.754  18.545  0.00  0.00    +0.000 NA
ATOM      9  O   UNL     1       4.735   4.062  17.853  0.00  0.00    +0.000 OA
ATOM     10  C   UNL     1       5.284   4.943  16.965  0.00  0.00    +0.000 A 
ATOM     11  N   UNL     1       4.727   6.141  17.026  0.00  0.00    +0.000 NA
BRANCH  10  12
ATOM     12  C   UNL     1       6.386   4.418  16.120  0.00  0.00    +0.000 C 
ATOM     13  F   UNL     1       7.533   4.195  16.820  0.00  0.00    +0.000 F 
ATOM     14  F   UNL     1       6.065   3.236  15.528  0.00  0.00    +0.000 F 
ATOM     15  F   UNL     1       6.715   5.276  15.117  0.00  0.00    +0.000 F 
ENDBRANCH  10  12
ENDBRANCH   4   7
BRANCH   1  17
ATOM     16  O   UNL     1       0.287  10.703  20.890  0.00  0.00    +0.000 OA
ATOM     17  C   UNL     1       0.465  10.420  19.710  0.00  0.00    +0.000 C 
BRANCH  17  18
ATOM     18  O   UNL     1      -0.055  11.083  18.605  0.00  0.00    +0.000 OA
BRANCH  18  19
ATOM     19  C   UNL     1      -1.434  11.006  18.284  0.00  0.00    +0.000 A 
ATOM     20  C   UNL     1      -2.406  11.841  18.833  0.00  0.00    +0.000 A 
ATOM     21  C   UNL     1      -3.751  11.655  18.496  0.00  0.00    +0.000 A 
ATOM     22  C   UNL     1      -4.116  10.666  17.581  0.00  0.00    +0.000 A 
ATOM     23  C   UNL     1      -3.133   9.870  16.990  0.00  0.00    +0.000 A 
ATOM     24  C   UNL     1      -1.791  10.039  17.341  0.00  0.00    +0.000 A 
ENDBRANCH  18  19
ENDBRANCH  17  18
ENDBRANCH   1  17
TORSDOF 5
ENDMDL
MODEL 5
REMARK VINA RESULT:      -7.8      5.179      8.390
REMARK  Name = 
REMARK  5 active torsions:
REMARK  status: ('A' for Active; 'I' for Inactive)
REMARK    1  A    between atoms: C_2  and  O_3
REMARK    2  A    between atoms: C_2  and  C_10
REMARK    3  A    between atoms: O_3  and  C_4
REMARK    4  A    between atoms: C_13  and  C_14
REMARK    5  A    between atoms: C_17  and  C_18
REMARK                            x       y       z     vdW  Elec       q    Type
REMARK                         _______ _______ _______ _____ _____    ______ ____
ROOT
ATOM      1  C   UNL     1       2.421   6.923  18.709  0.00  0.00    +0.000 A 
ATOM      2  C   UNL     1       2.172   8.144  18.061  0.00  0.00    +0.000 A 
ATOM      3  C   UNL     1       1.622   9.228  18.756  0.00  0.00    +0.000 A 
ATOM      4  C   UNL     1       1.302   9.117  20.115  0.00  0.00    +0.000 A 
ATOM      5  C   UNL     1       1.560   7.898  20.763  0.00  0.00    +0.000 A 
ATOM      6  C   UNL     1       2.124   6.812  20.072  0.00  0.00    +0.000 A 
ENDROOT
BRANCH   4   7
ATOM      7  C   UNL     1       0.718  10.244  20.840  0.00  0.00    +0.000 A 
ATOM      8  N   UNL     1       1.336  11.420  21.027  0.00  0.00    +0.000 NA
ATOM      9  O   UNL     1       0.430  12.166  21.771  0.00  0.00    +0.000 OA
ATOM     10  C   UNL     1      -0.664  11.374  21.970  0.00  0.00    +0.000 A 
ATOM     11  N   UNL     1      -0.538  10.182  21.410  0.00  0.00    +0.000 NA
BRANCH  10  12
ATOM     12  C   UNL     1      -1.767  11.968  22.768  0.00  0.00    +0.000 C 
ATOM     13  F   UNL     1      -2.797  12.417  21.999  0.00  0.00    +0.000 F 
ATOM     14  F   UNL     1      -2.305  11.080  23.646  0.00  0.00    +0.000 F 
ATOM     15  F   UNL     1      -1.349  13.034  23.503  0.00  0.00    +0.000 F 
ENDBRANCH  10  12
ENDBRANCH   4   7
BRANCH   1  17
ATOM     16  O   UNL     1       2.429   4.678  17.935  0.00  0.00    +0.000 OA
ATOM     17  C   UNL     1       2.939   5.791  17.885  0.00  0.00    +0.000 C 
BRANCH  17  18
ATOM     18  O   UNL     1       4.052   6.167  17.141  0.00  0.00    +0.000 OA
BRANCH  18  19
ATOM     19  C   UNL     1       5.347   6.189  17.719  0.00  0.00    +0.000 A 
ATOM     20  C   UNL     1       5.731   5.389  18.794  0.00  0.00    +0.000 A 
ATOM     21  C   UNL     1       7.016   5.520  19.331  0.00  0.00    +0.000 A 
ATOM     22  C   UNL     1       7.926   6.415  18.767  0.00  0.00    +0.000 A 
ATOM     23  C   UNL     1       7.556   7.173  17.655  0.00  0.00    +0.000 A 
ATOM     24  C   UNL     1       6.266   7.061  17.129  0.00  0.00    +0.000 A 
ENDBRANCH  18  19
ENDBRANCH  17  18
ENDBRANCH   1  17
TORSDOF 5
ENDMDL
MODEL 6
REMARK VINA RESULT:      -7.7      5.316      8.297
REMARK  Name = 
REMARK  5 active torsions:
REMARK  status: ('A' for Active; 'I' for Inactive)
REMARK    1  A    between atoms: C_2  and  O_3
REMARK    2  A    between atoms: C_2  and  C_10
REMARK    3  A    between atoms: O_3  and  C_4
REMARK    4  A    between atoms: C_13  and  C_14
REMARK    5  A    between atoms: C_17  and  C_18
REMARK                            x       y       z     vdW  Elec       q    Type
REMARK                         _______ _______ _______ _____ _____    ______ ____
ROOT
ATOM      1  C   UNL     1       2.608   6.211  18.590  0.00  0.00    +0.000 A 
ATOM      2  C   UNL     1       2.238   5.899  19.909  0.00  0.00    +0.000 A 
ATOM      3  C   UNL     1       1.698   6.875  20.755  0.00  0.00    +0.000 A 
ATOM      4  C   UNL     1       1.520   8.190  20.307  0.00  0.00    +0.000 A 
ATOM      5  C   UNL     1       1.883   8.498  18.985  0.00  0.00    +0.000 A 
ATOM      6  C   UNL     1       2.412   7.518  18.129  0.00  0.00    +0.000 A 
ENDROOT
BRANCH   4   7
ATOM      7  C   UNL     1       0.968   9.213  21.192  0.00  0.00    +0.000 A 
ATOM      8  N   UNL     1       1.154   9.239  22.521  0.00  0.00    +0.000 NA
ATOM      9  O   UNL     1       0.444  10.357  22.943  0.00  0.00    +0.000 OA
ATOM     10  C   UNL     1      -0.113  10.914  21.827  0.00  0.00    +0.000 A 
ATOM     11  N   UNL     1       0.187  10.251  20.723  0.00  0.00    +0.000 NA
BRANCH  10  12
ATOM     12  C   UNL     1      -0.942  12.127  22.046  0.00  0.00    +0.000 C 
ATOM     13  F   UNL     1      -0.427  13.237  21.449  0.00  0.00    +0.000 F 
ATOM     14  F   UNL     1      -2.204  11.983  21.559  0.00  0.00    +0.000 F 
ATOM     15  F   UNL     1      -1.068  12.429  23.366  0.00  0.00    +0.000 F 
ENDBRANCH  10  12
ENDBRANCH   4   7
BRANCH   1  17
ATOM     16  O   UNL     1       2.882   3.968  17.861  0.00  0.00    +0.000 OA
ATOM     17  C   UNL     1       3.244   5.136  17.773  0.00  0.00    +0.000 C 
BRANCH  17  18
ATOM     18  O   UNL     1       4.279   5.633  16.989  0.00  0.00    +0.000 OA
BRANCH  18  19
ATOM     19  C   UNL     1       5.537   5.958  17.555  0.00  0.00    +0.000 A 
ATOM     20  C   UNL     1       6.119   5.256  18.610  0.00  0.00    +0.000 A 
ATOM     21  C   UNL     1       7.341   5.684  19.138  0.00  0.00    +0.000 A 
ATOM     22  C   UNL     1       8.000   6.782  18.584  0.00  0.00    +0.000 A 
ATOM     23  C   UNL     1       7.443   7.448  17.491  0.00  0.00    +0.000 A 
ATOM     24  C   UNL     1       6.210   7.036  16.975  0.00  0.00    +0.000 A 
ENDBRANCH  18  19
ENDBRANCH  17  18
ENDBRANCH   1  17
TORSDOF 5
ENDMDL
MODEL 7
REMARK VINA RESULT:      -7.7      0.899      1.744
REMARK  Name = 
REMARK  5 active torsions:
REMARK  status: ('A' for Active; 'I' for Inactive)
REMARK    1  A    between atoms: C_2  and  O_3
REMARK    2  A    between atoms: C_2  and  C_10
REMARK    3  A    between atoms: O_3  and  C_4
REMARK    4  A    between atoms: C_13  and  C_14
REMARK    5  A    between atoms: C_17  and  C_18
REMARK                            x       y       z     vdW  Elec       q    Type
REMARK                         _______ _______ _______ _____ _____    ______ ____
ROOT
ATOM      1  C   UNL     1       1.197   9.465  19.092  0.00  0.00    +0.000 A 
ATOM      2  C   UNL     1       1.824   9.031  17.912  0.00  0.00    +0.000 A 
ATOM      3  C   UNL     1       2.499   7.805  17.866  0.00  0.00    +0.000 A 
ATOM      4  C   UNL     1       2.569   6.984  18.999  0.00  0.00    +0.000 A 
ATOM      5  C   UNL     1       1.933   7.416  20.174  0.00  0.00    +0.000 A 
ATOM      6  C   UNL     1       1.244   8.640  20.221  0.00  0.00    +0.000 A 
ENDROOT
BRANCH   4   7
ATOM      7  C   UNL     1       3.282   5.709  18.956  0.00  0.00    +0.000 A 
ATOM      8  N   UNL     1       4.604   5.593  18.749  0.00  0.00    +0.000 NA
ATOM      9  O   UNL     1       4.832   4.223  18.769  0.00  0.00    +0.000 OA
ATOM     10  C   UNL     1       3.625   3.625  18.990  0.00  0.00    +0.000 A 
ATOM     11  N   UNL     1       2.640   4.498  19.118  0.00  0.00    +0.000 NA
BRANCH  10  12
ATOM     12  C   UNL     1       3.627   2.140  19.034  0.00  0.00    +0.000 C 
ATOM     13  F   UNL     1       3.853   1.573  17.817  0.00  0.00    +0.000 F 
ATOM     14  F   UNL     1       4.586   1.651  19.866  0.00  0.00    +0.000 F 
ATOM     15  F   UNL     1       2.441   1.639  19.473  0.00  0.00    +0.000 F 
ENDBRANCH  10  12
ENDBRANCH   4   7
BRANCH   1  17
ATOM     16  O   UNL     1       1.208  11.825  18.833  0.00  0.00    +0.000 OA
ATOM     17  C   UNL     1       0.561  10.815  19.085  0.00  0.00    +0.000 C 
BRANCH  17  18
ATOM     18  O   UNL     1      -0.781  10.751  19.440  0.00  0.00    +0.000 OA
BRANCH  18  19
ATOM     19  C   UNL     1      -1.803  10.800  18.459  0.00  0.00    +0.000 A 
ATOM     20  C   UNL     1      -2.936  11.607  18.558  0.00  0.00    +0.000 A 
ATOM     21  C   UNL     1      -3.918  11.548  17.563  0.00  0.00    +0.000 A 
ATOM     22  C   UNL     1      -3.746  10.720  16.453  0.00  0.00    +0.000 A 
ATOM     23  C   UNL     1      -2.584   9.957  16.329  0.00  0.00    +0.000 A 
ATOM     24  C   UNL     1      -1.610   9.996  17.332  0.00  0.00    +0.000 A 
ENDBRANCH  18  19
ENDBRANCH  17  18
ENDBRANCH   1  17
TORSDOF 5
ENDMDL
MODEL 8
REMARK VINA RESULT:      -7.7      5.216      8.230
REMARK  Name = 
REMARK  5 active torsions:
REMARK  status: ('A' for Active; 'I' for Inactive)
REMARK    1  A    between atoms: C_2  and  O_3
REMARK    2  A    between atoms: C_2  and  C_10
REMARK    3  A    between atoms: O_3  and  C_4
REMARK    4  A    between atoms: C_13  and  C_14
REMARK    5  A    between atoms: C_17  and  C_18
REMARK                            x       y       z     vdW  Elec       q    Type
REMARK                         _______ _______ _______ _____ _____    ______ ____
ROOT
ATOM      1  C   UNL     1       2.591   5.712  18.787  0.00  0.00    +0.000 A 
ATOM      2  C   UNL     1       2.116   5.398  20.071  0.00  0.00    +0.000 A 
ATOM      3  C   UNL     1       1.612   6.395  20.915  0.00  0.00    +0.000 A 
ATOM      4  C   UNL     1       1.576   7.732  20.499  0.00  0.00    +0.000 A 
ATOM      5  C   UNL     1       2.043   8.043  19.212  0.00  0.00    +0.000 A 
ATOM      6  C   UNL     1       2.538   7.042  18.356  0.00  0.00    +0.000 A 
ENDROOT
BRANCH   4   7
ATOM      7  C   UNL     1       1.061   8.776  21.382  0.00  0.00    +0.000 A 
ATOM      8  N   UNL     1       1.584   9.072  22.582  0.00  0.00    +0.000 NA
ATOM      9  O   UNL     1       0.776  10.096  23.064  0.00  0.00    +0.000 OA
ATOM     10  C   UNL     1      -0.170  10.333  22.108  0.00  0.00    +0.000 A 
ATOM     11  N   UNL     1      -0.033   9.551  21.050  0.00  0.00    +0.000 NA
BRANCH  10  12
ATOM     12  C   UNL     1      -1.166  11.390  22.421  0.00  0.00    +0.000 C 
ATOM     13  F   UNL     1      -2.009  11.043  23.431  0.00  0.00    +0.000 F 
ATOM     14  F   UNL     1      -0.578  12.557  22.798  0.00  0.00    +0.000 F 
ATOM     15  F   UNL     1      -1.955  11.682  21.351  0.00  0.00    +0.000 F 
ENDBRANCH  10  12
ENDBRANCH   4   7
BRANCH   1  17
ATOM     16  O   UNL     1       2.558   4.087  17.056  0.00  0.00    +0.000 OA
ATOM     17  C   UNL     1       3.181   4.608  17.974  0.00  0.00    +0.000 C 
BRANCH  17  18
ATOM     18  O   UNL     1       4.445   4.253  18.432  0.00  0.00    +0.000 OA
BRANCH  18  19
ATOM     19  C   UNL     1       5.555   5.118  18.264  0.00  0.00    +0.000 A 
ATOM     20  C   UNL     1       5.779   5.880  17.119  0.00  0.00    +0.000 A 
ATOM     21  C   UNL     1       6.933   6.665  17.022  0.00  0.00    +0.000 A 
ATOM     22  C   UNL     1       7.836   6.721  18.085  0.00  0.00    +0.000 A 
ATOM     23  C   UNL     1       7.579   6.002  19.253  0.00  0.00    +0.000 A 
ATOM     24  C   UNL     1       6.438   5.199  19.344  0.00  0.00    +0.000 A 
ENDBRANCH  18  19
ENDBRANCH  17  18
ENDBRANCH   1  17
TORSDOF 5
ENDMDL
MODEL 9
REMARK VINA RESULT:      -7.7      2.474      2.925
REMARK  Name = 
REMARK  5 active torsions:
REMARK  status: ('A' for Active; 'I' for Inactive)
REMARK    1  A    between atoms: C_2  and  O_3
REMARK    2  A    between atoms: C_2  and  C_10
REMARK    3  A    between atoms: O_3  and  C_4
REMARK    4  A    between atoms: C_13  and  C_14
REMARK    5  A    between atoms: C_17  and  C_18
REMARK                            x       y       z     vdW  Elec       q    Type
REMARK                         _______ _______ _______ _____ _____    ______ ____
ROOT
ATOM      1  C   UNL     1       1.062   9.503  19.063  0.00  0.00    +0.000 A 
ATOM      2  C   UNL     1       1.318   8.512  20.025  0.00  0.00    +0.000 A 
ATOM      3  C   UNL     1       2.202   7.459  19.756  0.00  0.00    +0.000 A 
ATOM      4  C   UNL     1       2.848   7.369  18.516  0.00  0.00    +0.000 A 
ATOM      5  C   UNL     1       2.598   8.366  17.559  0.00  0.00    +0.000 A 
ATOM      6  C   UNL     1       1.721   9.431  17.831  0.00  0.00    +0.000 A 
ENDROOT
BRANCH   4   7
ATOM      7  C   UNL     1       3.762   6.265  18.229  0.00  0.00    +0.000 A 
ATOM      8  N   UNL     1       3.690   5.058  18.810  0.00  0.00    +0.000 NA
ATOM      9  O   UNL     1       4.751   4.350  18.257  0.00  0.00    +0.000 OA
ATOM     10  C   UNL     1       5.375   5.193  17.384  0.00  0.00    +0.000 A 
ATOM     11  N   UNL     1       4.800   6.383  17.325  0.00  0.00    +0.000 NA
BRANCH  10  12
ATOM     12  C   UNL     1       6.564   4.646  16.681  0.00  0.00    +0.000 C 
ATOM     13  F   UNL     1       7.542   4.233  17.533  0.00  0.00    +0.000 F 
ATOM     14  F   UNL     1       6.255   3.572  15.906  0.00  0.00    +0.000 F 
ATOM     15  F   UNL     1       7.140   5.564  15.859  0.00  0.00    +0.000 F 
ENDBRANCH  10  12
ENDBRANCH   4   7
BRANCH   1  17
ATOM     16  O   UNL     1       0.391  11.676  19.747  0.00  0.00    +0.000 OA
ATOM     17  C   UNL     1       0.053  10.551  19.396  0.00  0.00    +0.000 C 
BRANCH  17  18
ATOM     18  O   UNL     1      -1.245  10.061  19.301  0.00  0.00    +0.000 OA
BRANCH  18  19
ATOM     19  C   UNL     1      -2.055  10.345  18.173  0.00  0.00    +0.000 A 
ATOM     20  C   UNL     1      -1.858   9.781  16.913  0.00  0.00    +0.000 A 
ATOM     21  C   UNL     1      -2.678  10.164  15.846  0.00  0.00    +0.000 A 
ATOM     22  C   UNL     1      -3.718  11.071  16.049  0.00  0.00    +0.000 A 
ATOM     23  C   UNL     1      -3.949  11.589  17.324  0.00  0.00    +0.000 A 
ATOM     24  C   UNL     1      -3.118  11.227  18.389  0.00  0.00    +0.000 A 
ENDBRANCH  18  19
ENDBRANCH  17  18
ENDBRANCH   1  17
TORSDOF 5
ENDMDL
