MODEL 1
REMARK VINA RESULT:      -9.1      0.000      0.000
REMARK  Name = 
REMARK  6 active torsions:
REMARK  status: ('A' for Active; 'I' for Inactive)
REMARK    1  A    between atoms: C_2  and  C_3
REMARK    2  A    between atoms: C_3  and  C_4
REMARK    3  A    between atoms: C_4  and  S_5
REMARK    4  A    between atoms: S_5  and  C_8
REMARK    5  A    between atoms: N_21  and  C_22
REMARK    6  A    between atoms: C_22  and  C_23
REMARK                            x       y       z     vdW  Elec       q    Type
REMARK                         _______ _______ _______ _____ _____    ______ ____
ROOT
ATOM      1  O   UNL     1       7.385   5.480  20.070  0.00  0.00    +0.000 OA
ATOM      2  C   UNL     1       6.770   5.191  19.045  0.00  0.00    +0.000 C 
ATOM      3  N   UNL     1       7.433   5.142  17.848  0.00  0.00    +0.000 N 
ATOM      4  C   UNL     1       6.937   4.818  16.618  0.00  0.00    +0.000 A 
ATOM      5  N   UNL     1       5.714   4.248  16.428  0.00  0.00    +0.000 NA
ATOM      6  C   UNL     1       5.605   4.150  15.126  0.00  0.00    +0.000 A 
ATOM      7  N   UNL     1       6.739   4.628  14.550  0.00  0.00    +0.000 N 
ATOM      8  N   UNL     1       7.624   5.028  15.490  0.00  0.00    +0.000 NA
ATOM      9  H   UNL     1       8.401   5.432  17.853  0.00  0.00    +0.000 HD
ENDROOT
BRANCH   2  10
ATOM     10  C   UNL     1       5.291   4.882  19.079  0.00  0.00    +0.000 C 
BRANCH  10  11
ATOM     11  C   UNL     1       4.401   6.088  18.828  0.00  0.00    +0.000 C 
BRANCH  11  12
ATOM     12  S   UNL     1       2.740   5.663  19.336  0.00  0.00    +0.000 S 
ATOM     13  O   UNL     1       2.060   5.054  18.208  0.00  0.00    +0.000 OA
ATOM     14  O   UNL     1       2.823   4.964  20.605  0.00  0.00    +0.000 OA
BRANCH  12  15
ATOM     15  C   UNL     1       1.931   7.215  19.640  0.00  0.00    +0.000 A 
ATOM     16  C   UNL     1       1.885   8.173  18.613  0.00  0.00    +0.000 A 
ATOM     17  C   UNL     1       1.376   9.449  18.868  0.00  0.00    +0.000 A 
ATOM     18  C   UNL     1       0.922   9.733  20.145  0.00  0.00    +0.000 A 
ATOM     19  C   UNL     1       0.975   8.777  21.168  0.00  0.00    +0.000 A 
ATOM     20  C   UNL     1       1.488   7.512  20.936  0.00  0.00    +0.000 A 
ATOM     21  C   UNL     1       0.503   9.361  22.464  0.00  0.00    +0.000 C 
ATOM     22  C   UNL     1      -0.272  10.589  21.969  0.00  0.00    +0.000 C 
ATOM     23  C   UNL     1       0.410  11.040  20.669  0.00  0.00    +0.000 C 
ENDBRANCH  12  15
ENDBRANCH  11  12
ENDBRANCH  10  11
ENDBRANCH   2  10
BRANCH   7  24
ATOM     24  C   UNL     1       7.074   4.603  13.138  0.00  0.00    +0.000 C 
BRANCH  24  25
ATOM     25  C   UNL     1       6.214   3.646  12.351  0.00  0.00    +0.000 A 
ATOM     26  C   UNL     1       4.906   3.993  11.972  0.00  0.00    +0.000 A 
ATOM     27  C   UNL     1       4.106   3.099  11.253  0.00  0.00    +0.000 A 
ATOM     28  C   UNL     1       4.609   1.851  10.890  0.00  0.00    +0.000 A 
ATOM     29  C   UNL     1       5.911   1.515  11.237  0.00  0.00    +0.000 A 
ATOM     30  F   UNL     1       6.403   0.322  10.875  0.00  0.00    +0.000 F 
ATOM     31  C   UNL     1       6.715   2.396  11.958  0.00  0.00    +0.000 A 
ENDBRANCH  24  25
ENDBRANCH   7  24
TORSDOF 6
ENDMDL
MODEL 2
REMARK VINA RESULT:      -9.0      4.882      8.505
REMARK  Name = 
REMARK  6 active torsions:
REMARK  status: ('A' for Active; 'I' for Inactive)
REMARK    1  A    between atoms: C_2  and  C_3
REMARK    2  A    between atoms: C_3  and  C_4
REMARK    3  A    between atoms: C_4  and  S_5
REMARK    4  A    between atoms: S_5  and  C_8
REMARK    5  A    between atoms: N_21  and  C_22
REMARK    6  A    between atoms: C_22  and  C_23
REMARK                            x       y       z     vdW  Elec       q    Type
REMARK                         _______ _______ _______ _____ _____    ______ ____
ROOT
ATOM      1  O   UNL     1       1.828   3.213  22.152  0.00  0.00    +0.000 OA
ATOM      2  C   UNL     1       1.908   3.922  21.150  0.00  0.00    +0.000 C 
ATOM      3  N   UNL     1       1.931   5.285  21.284  0.00  0.00    +0.000 N 
ATOM      4  C   UNL     1       2.042   6.229  20.304  0.00  0.00    +0.000 A 
ATOM      5  N   UNL     1       2.391   5.941  19.019  0.00  0.00    +0.000 NA
ATOM      6  C   UNL     1       2.333   7.097  18.404  0.00  0.00    +0.000 A 
ATOM      7  N   UNL     1       1.978   8.056  19.299  0.00  0.00    +0.000 N 
ATOM      8  N   UNL     1       1.823   7.528  20.534  0.00  0.00    +0.000 NA
ATOM      9  H   UNL     1       1.798   5.651  22.215  0.00  0.00    +0.000 HD
ENDROOT
BRANCH   2  10
ATOM     10  C   UNL     1       1.985   3.317  19.767  0.00  0.00    +0.000 C 
BRANCH  10  11
ATOM     11  C   UNL     1       3.281   2.573  19.490  0.00  0.00    +0.000 C 
BRANCH  11  12
ATOM     12  S   UNL     1       3.608   2.671  17.735  0.00  0.00    +0.000 S 
ATOM     13  O   UNL     1       4.387   1.507  17.350  0.00  0.00    +0.000 OA
ATOM     14  O   UNL     1       2.359   2.972  17.060  0.00  0.00    +0.000 OA
BRANCH  12  15
ATOM     15  C   UNL     1       4.669   4.081  17.534  0.00  0.00    +0.000 A 
ATOM     16  C   UNL     1       4.607   4.817  16.337  0.00  0.00    +0.000 A 
ATOM     17  C   UNL     1       5.522   5.845  16.100  0.00  0.00    +0.000 A 
ATOM     18  C   UNL     1       6.476   6.114  17.067  0.00  0.00    +0.000 A 
ATOM     19  C   UNL     1       6.538   5.376  18.256  0.00  0.00    +0.000 A 
ATOM     20  C   UNL     1       5.647   4.345  18.502  0.00  0.00    +0.000 A 
ATOM     21  C   UNL     1       7.705   5.809  19.090  0.00  0.00    +0.000 C 
ATOM     22  C   UNL     1       8.005   7.186  18.481  0.00  0.00    +0.000 C 
ATOM     23  C   UNL     1       7.595   7.108  17.003  0.00  0.00    +0.000 C 
ENDBRANCH  12  15
ENDBRANCH  11  12
ENDBRANCH  10  11
ENDBRANCH   2  10
BRANCH   7  24
ATOM     24  C   UNL     1       1.905   9.485  19.058  0.00  0.00    +0.000 C 
BRANCH  24  25
ATOM     25  C   UNL     1       0.489   9.974  18.875  0.00  0.00    +0.000 A 
ATOM     26  C   UNL     1      -0.279   9.566  17.772  0.00  0.00    +0.000 A 
ATOM     27  C   UNL     1      -1.587  10.031  17.598  0.00  0.00    +0.000 A 
ATOM     28  C   UNL     1      -2.149  10.898  18.532  0.00  0.00    +0.000 A 
ATOM     29  C   UNL     1      -1.403  11.282  19.638  0.00  0.00    +0.000 A 
ATOM     30  F   UNL     1      -1.945  12.104  20.547  0.00  0.00    +0.000 F 
ATOM     31  C   UNL     1      -0.097  10.830  19.819  0.00  0.00    +0.000 A 
ENDBRANCH  24  25
ENDBRANCH   7  24
TORSDOF 6
ENDMDL
MODEL 3
REMARK VINA RESULT:      -9.0      5.172      9.009
REMARK  Name = 
REMARK  6 active torsions:
REMARK  status: ('A' for Active; 'I' for Inactive)
REMARK    1  A    between atoms: C_2  and  C_3
REMARK    2  A    between atoms: C_3  and  C_4
REMARK    3  A    between atoms: C_4  and  S_5
REMARK    4  A    between atoms: S_5  and  C_8
REMARK    5  A    between atoms: N_21  and  C_22
REMARK    6  A    between atoms: C_22  and  C_23
REMARK                            x       y       z     vdW  Elec       q    Type
REMARK                         _______ _______ _______ _____ _____    ______ ____
ROOT
ATOM      1  O   UNL     1       1.932   4.531  21.639  0.00  0.00    +0.000 OA
ATOM      2  C   UNL     1       1.914   5.260  20.648  0.00  0.00    +0.000 C 
ATOM      3  N   UNL     1       1.795   6.615  20.807  0.00  0.00    +0.000 N 
ATOM      4  C   UNL     1       1.783   7.582  19.843  0.00  0.00    +0.000 A 
ATOM      5  N   UNL     1       2.133   7.353  18.545  0.00  0.00    +0.000 NA
ATOM      6  C   UNL     1       1.938   8.506  17.953  0.00  0.00    +0.000 A 
ATOM      7  N   UNL     1       1.504   9.407  18.872  0.00  0.00    +0.000 N 
ATOM      8  N   UNL     1       1.433   8.846  20.100  0.00  0.00    +0.000 NA
ATOM      9  H   UNL     1       1.645   6.951  21.747  0.00  0.00    +0.000 HD
ENDROOT
BRANCH   2  10
ATOM     10  C   UNL     1       2.024   4.689  19.253  0.00  0.00    +0.000 C 
BRANCH  10  11
ATOM     11  C   UNL     1       2.528   3.256  19.210  0.00  0.00    +0.000 C 
BRANCH  11  12
ATOM     12  S   UNL     1       3.413   3.029  17.673  0.00  0.00    +0.000 S 
ATOM     13  O   UNL     1       4.212   1.822  17.780  0.00  0.00    +0.000 OA
ATOM     14  O   UNL     1       2.469   3.187  16.582  0.00  0.00    +0.000 OA
BRANCH  12  15
ATOM     15  C   UNL     1       4.553   4.388  17.584  0.00  0.00    +0.000 A 
ATOM     16  C   UNL     1       4.468   5.280  16.500  0.00  0.00    +0.000 A 
ATOM     17  C   UNL     1       5.435   6.274  16.335  0.00  0.00    +0.000 A 
ATOM     18  C   UNL     1       6.463   6.354  17.261  0.00  0.00    +0.000 A 
ATOM     19  C   UNL     1       6.547   5.460  18.335  0.00  0.00    +0.000 A 
ATOM     20  C   UNL     1       5.605   4.460  18.507  0.00  0.00    +0.000 A 
ATOM     21  C   UNL     1       7.790   5.706  19.135  0.00  0.00    +0.000 C 
ATOM     22  C   UNL     1       8.145   7.132  18.692  0.00  0.00    +0.000 C 
ATOM     23  C   UNL     1       7.641   7.278  17.248  0.00  0.00    +0.000 C 
ENDBRANCH  12  15
ENDBRANCH  11  12
ENDBRANCH  10  11
ENDBRANCH   2  10
BRANCH   7  24
ATOM     24  C   UNL     1       1.274  10.824  18.659  0.00  0.00    +0.000 C 
BRANCH  24  25
ATOM     25  C   UNL     1      -0.170  11.216  18.851  0.00  0.00    +0.000 A 
ATOM     26  C   UNL     1      -1.175  10.711  18.009  0.00  0.00    +0.000 A 
ATOM     27  C   UNL     1      -2.511  11.086  18.182  0.00  0.00    +0.000 A 
ATOM     28  C   UNL     1      -2.863  11.960  19.208  0.00  0.00    +0.000 A 
ATOM     29  C   UNL     1      -1.877  12.439  20.060  0.00  0.00    +0.000 A 
ATOM     30  F   UNL     1      -2.214  13.268  21.058  0.00  0.00    +0.000 F 
ATOM     31  C   UNL     1      -0.542  12.077  19.895  0.00  0.00    +0.000 A 
ENDBRANCH  24  25
ENDBRANCH   7  24
TORSDOF 6
ENDMDL
MODEL 4
REMARK VINA RESULT:      -8.8      4.746      8.606
REMARK  Name = 
REMARK  6 active torsions:
REMARK  status: ('A' for Active; 'I' for Inactive)
REMARK    1  A    between atoms: C_2  and  C_3
REMARK    2  A    between atoms: C_3  and  C_4
REMARK    3  A    between atoms: C_4  and  S_5
REMARK    4  A    between atoms: S_5  and  C_8
REMARK    5  A    between atoms: N_21  and  C_22
REMARK    6  A    between atoms: C_22  and  C_23
REMARK                            x       y       z     vdW  Elec       q    Type
REMARK                         _______ _______ _______ _____ _____    ______ ____
ROOT
ATOM      1  O   UNL     1       2.044   3.929  21.806  0.00  0.00    +0.000 OA
ATOM      2  C   UNL     1       2.045   4.808  20.946  0.00  0.00    +0.000 C 
ATOM      3  N   UNL     1       1.800   6.107  21.305  0.00  0.00    +0.000 N 
ATOM      4  C   UNL     1       1.784   7.216  20.509  0.00  0.00    +0.000 A 
ATOM      5  N   UNL     1       2.257   7.230  19.231  0.00  0.00    +0.000 NA
ATOM      6  C   UNL     1       2.015   8.448  18.812  0.00  0.00    +0.000 A 
ATOM      7  N   UNL     1       1.431   9.152  19.817  0.00  0.00    +0.000 N 
ATOM      8  N   UNL     1       1.308   8.393  20.929  0.00  0.00    +0.000 NA
ATOM      9  H   UNL     1       1.544   6.272  22.268  0.00  0.00    +0.000 HD
ENDROOT
BRANCH   2  10
ATOM     10  C   UNL     1       2.318   4.485  19.495  0.00  0.00    +0.000 C 
BRANCH  10  11
ATOM     11  C   UNL     1       2.637   3.021  19.238  0.00  0.00    +0.000 C 
BRANCH  11  12
ATOM     12  S   UNL     1       3.416   2.901  17.633  0.00  0.00    +0.000 S 
ATOM     13  O   UNL     1       4.233   1.701  17.612  0.00  0.00    +0.000 OA
ATOM     14  O   UNL     1       2.397   3.111  16.621  0.00  0.00    +0.000 OA
BRANCH  12  15
ATOM     15  C   UNL     1       4.534   4.279  17.550  0.00  0.00    +0.000 A 
ATOM     16  C   UNL     1       4.419   5.187  16.484  0.00  0.00    +0.000 A 
ATOM     17  C   UNL     1       5.368   6.199  16.322  0.00  0.00    +0.000 A 
ATOM     18  C   UNL     1       6.408   6.280  17.234  0.00  0.00    +0.000 A 
ATOM     19  C   UNL     1       6.521   5.369  18.292  0.00  0.00    +0.000 A 
ATOM     20  C   UNL     1       5.597   4.352  18.460  0.00  0.00    +0.000 A 
ATOM     21  C   UNL     1       7.771   5.623  19.078  0.00  0.00    +0.000 C 
ATOM     22  C   UNL     1       8.098   7.061  18.653  0.00  0.00    +0.000 C 
ATOM     23  C   UNL     1       7.571   7.222  17.220  0.00  0.00    +0.000 C 
ENDBRANCH  12  15
ENDBRANCH  11  12
ENDBRANCH  10  11
ENDBRANCH   2  10
BRANCH   7  24
ATOM     24  C   UNL     1       1.100  10.565  19.809  0.00  0.00    +0.000 C 
BRANCH  24  25
ATOM     25  C   UNL     1      -0.169  10.863  19.049  0.00  0.00    +0.000 A 
ATOM     26  C   UNL     1      -0.429  12.153  18.555  0.00  0.00    +0.000 A 
ATOM     27  C   UNL     1      -1.612  12.429  17.861  0.00  0.00    +0.000 A 
ATOM     28  C   UNL     1      -2.543  11.417  17.640  0.00  0.00    +0.000 A 
ATOM     29  C   UNL     1      -2.277  10.135  18.101  0.00  0.00    +0.000 A 
ATOM     30  F   UNL     1      -3.163   9.155  17.876  0.00  0.00    +0.000 F 
ATOM     31  C   UNL     1      -1.105   9.849  18.798  0.00  0.00    +0.000 A 
ENDBRANCH  24  25
ENDBRANCH   7  24
TORSDOF 6
ENDMDL
MODEL 5
REMARK VINA RESULT:      -8.7      5.451      7.562
REMARK  Name = 
REMARK  6 active torsions:
REMARK  status: ('A' for Active; 'I' for Inactive)
REMARK    1  A    between atoms: C_2  and  C_3
REMARK    2  A    between atoms: C_3  and  C_4
REMARK    3  A    between atoms: C_4  and  S_5
REMARK    4  A    between atoms: S_5  and  C_8
REMARK    5  A    between atoms: N_21  and  C_22
REMARK    6  A    between atoms: C_22  and  C_23
REMARK                            x       y       z     vdW  Elec       q    Type
REMARK                         _______ _______ _______ _____ _____    ______ ____
ROOT
ATOM      1  O   UNL     1       0.500   9.795  23.257  0.00  0.00    +0.000 OA
ATOM      2  C   UNL     1       0.806   9.700  22.069  0.00  0.00    +0.000 C 
ATOM      3  N   UNL     1       1.304   8.518  21.590  0.00  0.00    +0.000 N 
ATOM      4  C   UNL     1       1.672   8.211  20.312  0.00  0.00    +0.000 A 
ATOM      5  N   UNL     1       1.369   8.990  19.236  0.00  0.00    +0.000 NA
ATOM      6  C   UNL     1       1.937   8.378  18.226  0.00  0.00    +0.000 A 
ATOM      7  N   UNL     1       2.546   7.251  18.679  0.00  0.00    +0.000 N 
ATOM      8  N   UNL     1       2.357   7.103  20.010  0.00  0.00    +0.000 NA
ATOM      9  H   UNL     1       1.475   7.789  22.268  0.00  0.00    +0.000 HD
ENDROOT
BRANCH   2  10
ATOM     10  C   UNL     1       0.638  10.866  21.122  0.00  0.00    +0.000 C 
BRANCH  10  11
ATOM     11  C   UNL     1      -0.686  11.598  21.272  0.00  0.00    +0.000 C 
BRANCH  11  12
ATOM     12  S   UNL     1      -0.970  12.534  19.775  0.00  0.00    +0.000 S 
ATOM     13  O   UNL     1      -0.996  13.945  20.118  0.00  0.00    +0.000 OA
ATOM     14  O   UNL     1      -0.058  12.045  18.758  0.00  0.00    +0.000 OA
BRANCH  12  15
ATOM     15  C   UNL     1      -2.614  12.106  19.259  0.00  0.00    +0.000 A 
ATOM     16  C   UNL     1      -2.795  11.459  18.024  0.00  0.00    +0.000 A 
ATOM     17  C   UNL     1      -4.083  11.233  17.535  0.00  0.00    +0.000 A 
ATOM     18  C   UNL     1      -5.161  11.658  18.294  0.00  0.00    +0.000 A 
ATOM     19  C   UNL     1      -4.976  12.308  19.522  0.00  0.00    +0.000 A 
ATOM     20  C   UNL     1      -3.706  12.551  20.016  0.00  0.00    +0.000 A 
ATOM     21  C   UNL     1      -6.291  12.736  20.098  0.00  0.00    +0.000 C 
ATOM     22  C   UNL     1      -7.260  11.840  19.315  0.00  0.00    +0.000 C 
ATOM     23  C   UNL     1      -6.615  11.594  17.943  0.00  0.00    +0.000 C 
ENDBRANCH  12  15
ENDBRANCH  11  12
ENDBRANCH  10  11
ENDBRANCH   2  10
BRANCH   7  24
ATOM     24  C   UNL     1       3.198   6.232  17.877  0.00  0.00    +0.000 C 
BRANCH  24  25
ATOM     25  C   UNL     1       2.840   4.832  18.308  0.00  0.00    +0.000 A 
ATOM     26  C   UNL     1       1.591   4.274  17.987  0.00  0.00    +0.000 A 
ATOM     27  C   UNL     1       1.256   2.980  18.399  0.00  0.00    +0.000 A 
ATOM     28  C   UNL     1       2.171   2.221  19.125  0.00  0.00    +0.000 A 
ATOM     29  C   UNL     1       3.417   2.758  19.420  0.00  0.00    +0.000 A 
ATOM     30  F   UNL     1       4.306   2.025  20.105  0.00  0.00    +0.000 F 
ATOM     31  C   UNL     1       3.760   4.048  19.020  0.00  0.00    +0.000 A 
ENDBRANCH  24  25
ENDBRANCH   7  24
TORSDOF 6
ENDMDL
MODEL 6
REMARK VINA RESULT:      -8.6      4.904      8.912
REMARK  Name = 
REMARK  6 active torsions:
REMARK  status: ('A' for Active; 'I' for Inactive)
REMARK    1  A    between atoms: C_2  and  C_3
REMARK    2  A    between atoms: C_3  and  C_4
REMARK    3  A    between atoms: C_4  and  S_5
REMARK    4  A    between atoms: S_5  and  C_8
REMARK    5  A    between atoms: N_21  and  C_22
REMARK    6  A    between atoms: C_22  and  C_23
REMARK                            x       y       z     vdW  Elec       q    Type
REMARK                         _______ _______ _______ _____ _____    ______ ____
ROOT
ATOM      1  O   UNL     1       1.264   3.316  21.182  0.00  0.00    +0.000 OA
ATOM      2  C   UNL     1       1.454   4.338  20.523  0.00  0.00    +0.000 C 
ATOM      3  N   UNL     1       1.291   5.564  21.112  0.00  0.00    +0.000 N 
ATOM      4  C   UNL     1       1.478   6.798  20.560  0.00  0.00    +0.000 A 
ATOM      5  N   UNL     1       2.104   7.001  19.367  0.00  0.00    +0.000 NA
ATOM      6  C   UNL     1       2.031   8.296  19.182  0.00  0.00    +0.000 A 
ATOM      7  N   UNL     1       1.398   8.859  20.245  0.00  0.00    +0.000 N 
ATOM      8  N   UNL     1       1.068   7.920  21.161  0.00  0.00    +0.000 NA
ATOM      9  H   UNL     1       0.936   5.570  22.057  0.00  0.00    +0.000 HD
ENDROOT
BRANCH   2  10
ATOM     10  C   UNL     1       1.871   4.268  19.072  0.00  0.00    +0.000 C 
BRANCH  10  11
ATOM     11  C   UNL     1       1.934   2.855  18.515  0.00  0.00    +0.000 C 
BRANCH  11  12
ATOM     12  S   UNL     1       3.635   2.309  18.592  0.00  0.00    +0.000 S 
ATOM     13  O   UNL     1       3.976   2.076  19.984  0.00  0.00    +0.000 OA
ATOM     14  O   UNL     1       3.815   1.257  17.609  0.00  0.00    +0.000 OA
BRANCH  12  15
ATOM     15  C   UNL     1       4.600   3.701  18.059  0.00  0.00    +0.000 A 
ATOM     16  C   UNL     1       4.453   4.168  16.741  0.00  0.00    +0.000 A 
ATOM     17  C   UNL     1       5.295   5.171  16.256  0.00  0.00    +0.000 A 
ATOM     18  C   UNL     1       6.262   5.686  17.104  0.00  0.00    +0.000 A 
ATOM     19  C   UNL     1       6.409   5.214  18.415  0.00  0.00    +0.000 A 
ATOM     20  C   UNL     1       5.592   4.211  18.907  0.00  0.00    +0.000 A 
ATOM     21  C   UNL     1       7.574   5.872  19.088  0.00  0.00    +0.000 C 
ATOM     22  C   UNL     1       7.769   7.107  18.198  0.00  0.00    +0.000 C 
ATOM     23  C   UNL     1       7.316   6.702  16.787  0.00  0.00    +0.000 C 
ENDBRANCH  12  15
ENDBRANCH  11  12
ENDBRANCH  10  11
ENDBRANCH   2  10
BRANCH   7  24
ATOM     24  C   UNL     1       1.205  10.276  20.491  0.00  0.00    +0.000 C 
BRANCH  24  25
ATOM     25  C   UNL     1       0.167  10.891  19.585  0.00  0.00    +0.000 A 
ATOM     26  C   UNL     1      -0.942  10.146  19.148  0.00  0.00    +0.000 A 
ATOM     27  C   UNL     1      -1.896  10.714  18.298  0.00  0.00    +0.000 A 
ATOM     28  C   UNL     1      -1.763  12.038  17.885  0.00  0.00    +0.000 A 
ATOM     29  C   UNL     1      -0.684  12.786  18.338  0.00  0.00    +0.000 A 
ATOM     30  F   UNL     1      -0.560  14.064  17.956  0.00  0.00    +0.000 F 
ATOM     31  C   UNL     1       0.276  12.229  19.180  0.00  0.00    +0.000 A 
ENDBRANCH  24  25
ENDBRANCH   7  24
TORSDOF 6
ENDMDL
MODEL 7
REMARK VINA RESULT:      -8.6      1.046      1.882
REMARK  Name = 
REMARK  6 active torsions:
REMARK  status: ('A' for Active; 'I' for Inactive)
REMARK    1  A    between atoms: C_2  and  C_3
REMARK    2  A    between atoms: C_3  and  C_4
REMARK    3  A    between atoms: C_4  and  S_5
REMARK    4  A    between atoms: S_5  and  C_8
REMARK    5  A    between atoms: N_21  and  C_22
REMARK    6  A    between atoms: C_22  and  C_23
REMARK                            x       y       z     vdW  Elec       q    Type
REMARK                         _______ _______ _______ _____ _____    ______ ____
ROOT
ATOM      1  O   UNL     1       7.045   5.609  20.027  0.00  0.00    +0.000 OA
ATOM      2  C   UNL     1       6.583   5.137  18.990  0.00  0.00    +0.000 C 
ATOM      3  N   UNL     1       7.257   5.304  17.810  0.00  0.00    +0.000 N 
ATOM      4  C   UNL     1       6.924   4.836  16.571  0.00  0.00    +0.000 A 
ATOM      5  N   UNL     1       5.955   3.903  16.357  0.00  0.00    +0.000 NA
ATOM      6  C   UNL     1       5.917   3.774  15.053  0.00  0.00    +0.000 A 
ATOM      7  N   UNL     1       6.851   4.591  14.501  0.00  0.00    +0.000 N 
ATOM      8  N   UNL     1       7.536   5.255  15.459  0.00  0.00    +0.000 NA
ATOM      9  H   UNL     1       8.080   5.889  17.836  0.00  0.00    +0.000 HD
ENDROOT
BRANCH   2  10
ATOM     10  C   UNL     1       5.281   4.368  18.991  0.00  0.00    +0.000 C 
BRANCH  10  11
ATOM     11  C   UNL     1       4.118   5.122  18.368  0.00  0.00    +0.000 C 
BRANCH  11  12
ATOM     12  S   UNL     1       2.724   5.000  19.481  0.00  0.00    +0.000 S 
ATOM     13  O   UNL     1       1.647   4.315  18.789  0.00  0.00    +0.000 OA
ATOM     14  O   UNL     1       3.207   4.504  20.756  0.00  0.00    +0.000 OA
BRANCH  12  15
ATOM     15  C   UNL     1       2.181   6.672  19.737  0.00  0.00    +0.000 A 
ATOM     16  C   UNL     1       1.513   6.996  20.931  0.00  0.00    +0.000 A 
ATOM     17  C   UNL     1       0.958   8.267  21.098  0.00  0.00    +0.000 A 
ATOM     18  C   UNL     1       1.088   9.184  20.068  0.00  0.00    +0.000 A 
ATOM     19  C   UNL     1       1.750   8.854  18.878  0.00  0.00    +0.000 A 
ATOM     20  C   UNL     1       2.294   7.595  18.690  0.00  0.00    +0.000 A 
ATOM     21  C   UNL     1       1.678   9.987  17.900  0.00  0.00    +0.000 C 
ATOM     22  C   UNL     1       1.334  11.157  18.831  0.00  0.00    +0.000 C 
ATOM     23  C   UNL     1       0.517  10.566  19.990  0.00  0.00    +0.000 C 
ENDBRANCH  12  15
ENDBRANCH  11  12
ENDBRANCH  10  11
ENDBRANCH   2  10
BRANCH   7  24
ATOM     24  C   UNL     1       7.213   4.674  13.098  0.00  0.00    +0.000 C 
BRANCH  24  25
ATOM     25  C   UNL     1       6.559   3.603  12.261  0.00  0.00    +0.000 A 
ATOM     26  C   UNL     1       7.311   2.538  11.735  0.00  0.00    +0.000 A 
ATOM     27  C   UNL     1       6.704   1.553  10.949  0.00  0.00    +0.000 A 
ATOM     28  C   UNL     1       5.337   1.610  10.692  0.00  0.00    +0.000 A 
ATOM     29  C   UNL     1       4.585   2.644  11.234  0.00  0.00    +0.000 A 
ATOM     30  F   UNL     1       3.266   2.694  11.001  0.00  0.00    +0.000 F 
ATOM     31  C   UNL     1       5.179   3.635  12.013  0.00  0.00    +0.000 A 
ENDBRANCH  24  25
ENDBRANCH   7  24
TORSDOF 6
ENDMDL
MODEL 8
REMARK VINA RESULT:      -8.6      0.931      1.384
REMARK  Name = 
REMARK  6 active torsions:
REMARK  status: ('A' for Active; 'I' for Inactive)
REMARK    1  A    between atoms: C_2  and  C_3
REMARK    2  A    between atoms: C_3  and  C_4
REMARK    3  A    between atoms: C_4  and  S_5
REMARK    4  A    between atoms: S_5  and  C_8
REMARK    5  A    between atoms: N_21  and  C_22
REMARK    6  A    between atoms: C_22  and  C_23
REMARK                            x       y       z     vdW  Elec       q    Type
REMARK                         _______ _______ _______ _____ _____    ______ ____
ROOT
ATOM      1  O   UNL     1       7.334   5.149  20.279  0.00  0.00    +0.000 OA
ATOM      2  C   UNL     1       6.713   5.073  19.220  0.00  0.00    +0.000 C 
ATOM      3  N   UNL     1       7.396   4.906  18.045  0.00  0.00    +0.000 N 
ATOM      4  C   UNL     1       6.891   4.774  16.784  0.00  0.00    +0.000 A 
ATOM      5  N   UNL     1       5.572   4.549  16.523  0.00  0.00    +0.000 NA
ATOM      6  C   UNL     1       5.502   4.538  15.214  0.00  0.00    +0.000 A 
ATOM      7  N   UNL     1       6.745   4.730  14.703  0.00  0.00    +0.000 N 
ATOM      8  N   UNL     1       7.660   4.846  15.693  0.00  0.00    +0.000 NA
ATOM      9  H   UNL     1       8.405   4.934  18.098  0.00  0.00    +0.000 HD
ENDROOT
BRANCH   2  10
ATOM     10  C   UNL     1       5.205   5.157  19.189  0.00  0.00    +0.000 C 
BRANCH  10  11
ATOM     11  C   UNL     1       4.510   3.806  19.248  0.00  0.00    +0.000 C 
BRANCH  11  12
ATOM     12  S   UNL     1       2.870   4.060  19.915  0.00  0.00    +0.000 S 
ATOM     13  O   UNL     1       1.962   3.141  19.253  0.00  0.00    +0.000 OA
ATOM     14  O   UNL     1       2.970   4.074  21.362  0.00  0.00    +0.000 OA
BRANCH  12  15
ATOM     15  C   UNL     1       2.403   5.695  19.402  0.00  0.00    +0.000 A 
ATOM     16  C   UNL     1       2.684   6.104  18.086  0.00  0.00    +0.000 A 
ATOM     17  C   UNL     1       2.450   7.425  17.700  0.00  0.00    +0.000 A 
ATOM     18  C   UNL     1       1.938   8.305  18.638  0.00  0.00    +0.000 A 
ATOM     19  C   UNL     1       1.664   7.896  19.949  0.00  0.00    +0.000 A 
ATOM     20  C   UNL     1       1.902   6.593  20.354  0.00  0.00    +0.000 A 
ATOM     21  C   UNL     1       1.200   9.052  20.781  0.00  0.00    +0.000 C 
ATOM     22  C   UNL     1       0.778  10.046  19.691  0.00  0.00    +0.000 C 
ATOM     23  C   UNL     1       1.679   9.772  18.478  0.00  0.00    +0.000 C 
ENDBRANCH  12  15
ENDBRANCH  11  12
ENDBRANCH  10  11
ENDBRANCH   2  10
BRANCH   7  24
ATOM     24  C   UNL     1       7.128   4.679  13.304  0.00  0.00    +0.000 C 
BRANCH  24  25
ATOM     25  C   UNL     1       6.264   3.742  12.496  0.00  0.00    +0.000 A 
ATOM     26  C   UNL     1       4.941   4.082  12.167  0.00  0.00    +0.000 A 
ATOM     27  C   UNL     1       4.139   3.206  11.429  0.00  0.00    +0.000 A 
ATOM     28  C   UNL     1       4.653   1.985  10.998  0.00  0.00    +0.000 A 
ATOM     29  C   UNL     1       5.969   1.658  11.296  0.00  0.00    +0.000 A 
ATOM     30  F   UNL     1       6.472   0.492  10.869  0.00  0.00    +0.000 F 
ATOM     31  C   UNL     1       6.776   2.520  12.035  0.00  0.00    +0.000 A 
ENDBRANCH  24  25
ENDBRANCH   7  24
TORSDOF 6
ENDMDL
MODEL 9
REMARK VINA RESULT:      -8.6      4.666      9.234
REMARK  Name = 
REMARK  6 active torsions:
REMARK  status: ('A' for Active; 'I' for Inactive)
REMARK    1  A    between atoms: C_2  and  C_3
REMARK    2  A    between atoms: C_3  and  C_4
REMARK    3  A    between atoms: C_4  and  S_5
REMARK    4  A    between atoms: S_5  and  C_8
REMARK    5  A    between atoms: N_21  and  C_22
REMARK    6  A    between atoms: C_22  and  C_23
REMARK                            x       y       z     vdW  Elec       q    Type
REMARK                         _______ _______ _______ _____ _____    ______ ____
ROOT
ATOM      1  O   UNL     1       1.966   4.429  21.563  0.00  0.00    +0.000 OA
ATOM      2  C   UNL     1       1.997   5.192  20.599  0.00  0.00    +0.000 C 
ATOM      3  N   UNL     1       1.796   6.533  20.789  0.00  0.00    +0.000 N 
ATOM      4  C   UNL     1       1.819   7.533  19.860  0.00  0.00    +0.000 A 
ATOM      5  N   UNL     1       2.292   7.369  18.592  0.00  0.00    +0.000 NA
ATOM      6  C   UNL     1       2.092   8.532  18.022  0.00  0.00    +0.000 A 
ATOM      7  N   UNL     1       1.533   9.377  18.927  0.00  0.00    +0.000 N 
ATOM      8  N   UNL     1       1.383   8.769  20.126  0.00  0.00    +0.000 NA
ATOM      9  H   UNL     1       1.546   6.827  21.723  0.00  0.00    +0.000 HD
ENDROOT
BRANCH   2  10
ATOM     10  C   UNL     1       2.259   4.679  19.201  0.00  0.00    +0.000 C 
BRANCH  10  11
ATOM     11  C   UNL     1       2.012   3.188  19.034  0.00  0.00    +0.000 C 
BRANCH  11  12
ATOM     12  S   UNL     1       3.587   2.351  19.166  0.00  0.00    +0.000 S 
ATOM     13  O   UNL     1       4.042   2.450  20.540  0.00  0.00    +0.000 OA
ATOM     14  O   UNL     1       3.462   1.054  18.527  0.00  0.00    +0.000 OA
BRANCH  12  15
ATOM     15  C   UNL     1       4.713   3.314  18.186  0.00  0.00    +0.000 A 
ATOM     16  C   UNL     1       5.545   4.250  18.825  0.00  0.00    +0.000 A 
ATOM     17  C   UNL     1       6.339   5.113  18.067  0.00  0.00    +0.000 A 
ATOM     18  C   UNL     1       6.285   5.015  16.687  0.00  0.00    +0.000 A 
ATOM     19  C   UNL     1       5.451   4.085  16.053  0.00  0.00    +0.000 A 
ATOM     20  C   UNL     1       4.647   3.232  16.789  0.00  0.00    +0.000 A 
ATOM     21  C   UNL     1       5.516   4.242  14.565  0.00  0.00    +0.000 C 
ATOM     22  C   UNL     1       6.828   5.021  14.409  0.00  0.00    +0.000 C 
ATOM     23  C   UNL     1       6.982   5.875  15.677  0.00  0.00    +0.000 C 
ENDBRANCH  12  15
ENDBRANCH  11  12
ENDBRANCH  10  11
ENDBRANCH   2  10
BRANCH   7  24
ATOM     24  C   UNL     1       1.249  10.788  18.740  0.00  0.00    +0.000 C 
BRANCH  24  25
ATOM     25  C   UNL     1      -0.228  11.091  18.728  0.00  0.00    +0.000 A 
ATOM     26  C   UNL     1      -1.123  10.292  17.995  0.00  0.00    +0.000 A 
ATOM     27  C   UNL     1      -2.491  10.582  17.975  0.00  0.00    +0.000 A 
ATOM     28  C   UNL     1      -2.985  11.665  18.699  0.00  0.00    +0.000 A 
ATOM     29  C   UNL     1      -2.109  12.439  19.448  0.00  0.00    +0.000 A 
ATOM     30  F   UNL     1      -2.582  13.472  20.158  0.00  0.00    +0.000 F 
ATOM     31  C   UNL     1      -0.743  12.163  19.471  0.00  0.00    +0.000 A 
ENDBRANCH  24  25
ENDBRANCH   7  24
TORSDOF 6
ENDMDL
