MODEL 1
REMARK VINA RESULT:      -6.8      0.000      0.000
REMARK  Name = 
REMARK  6 active torsions:
REMARK  status: ('A' for Active; 'I' for Inactive)
REMARK    1  A    between atoms: C_1  and  C_2
REMARK    2  A    between atoms: C_5  and  C_6
REMARK    3  A    between atoms: C_7  and  S_8
REMARK    4  A    between atoms: S_8  and  N_11
REMARK    5  A    between atoms: C_15  and  C_17
REMARK    6  A    between atoms: C_18  and  C_19
REMARK                            x       y       z     vdW  Elec       q    Type
REMARK                         _______ _______ _______ _____ _____    ______ ____
ROOT
ATOM      1  N   UNL     1      -4.664  14.016  23.080  0.00  0.00    +0.000 NA
ATOM      2  C   UNL     1      -3.929  14.900  22.141  0.00  0.00    +0.000 C 
ATOM      3  C   UNL     1      -2.750  14.206  21.392  0.00  0.00    +0.000 C 
ATOM      4  N   UNL     1      -2.493  12.782  21.708  0.00  0.00    +0.000 N 
ATOM      5  C   UNL     1      -1.650  11.921  20.964  0.00  0.00    +0.000 C 
ATOM      6  O   UNL     1      -1.023  11.016  21.529  0.00  0.00    +0.000 OA
ATOM      7  C   UNL     1      -2.816  12.307  23.048  0.00  0.00    +0.000 C 
ATOM      8  C   UNL     1      -3.733  13.195  23.890  0.00  0.00    +0.000 C 
ENDROOT
BRANCH   5   9
ATOM      9  C   UNL     1      -1.601  12.062  19.500  0.00  0.00    +0.000 A 
ATOM     10  C   UNL     1      -0.836  12.990  18.782  0.00  0.00    +0.000 A 
ATOM     11  C   UNL     1       0.136  14.044  19.187  0.00  0.00    +0.000 C 
ATOM     12  N   UNL     1      -1.085  12.793  17.444  0.00  0.00    +0.000 N 
ATOM     13  C   UNL     1      -1.957  11.742  17.257  0.00  0.00    +0.000 A 
ATOM     14  C   UNL     1      -2.498  11.216  16.086  0.00  0.00    +0.000 A 
ATOM     15  C   UNL     1      -3.361  10.122  16.206  0.00  0.00    +0.000 A 
ATOM     16  C   UNL     1      -3.594   9.527  17.442  0.00  0.00    +0.000 A 
ATOM     17  C   UNL     1      -2.978  10.026  18.587  0.00  0.00    +0.000 A 
ATOM     18  C   UNL     1      -2.211  11.211  18.520  0.00  0.00    +0.000 A 
ATOM     19  H   UNL     1      -0.670  13.324  16.692  0.00  0.00    +0.000 HD
ENDBRANCH   5   9
BRANCH   1  20
ATOM     20  S   UNL     1      -6.223  13.449  22.712  0.00  0.00    +0.000 S 
ATOM     21  O   UNL     1      -7.132  14.573  22.749  0.00  0.00    +0.000 OA
ATOM     22  O   UNL     1      -6.460  12.274  23.525  0.00  0.00    +0.000 OA
BRANCH  20  29
ATOM     23  C   UNL     1      -6.936   9.613  19.046  0.00  0.00    +0.000 C 
ATOM     24  C   UNL     1      -6.513  11.022  19.372  0.00  0.00    +0.000 A 
ATOM     25  C   UNL     1      -6.325  11.913  18.316  0.00  0.00    +0.000 A 
ATOM     26  C   UNL     1      -6.187  13.270  18.573  0.00  0.00    +0.000 A 
ATOM     27  C   UNL     1      -6.216  13.774  19.890  0.00  0.00    +0.000 A 
ATOM     28  C   UNL     1      -6.455  15.243  20.034  0.00  0.00    +0.000 C 
ATOM     29  C   UNL     1      -6.213  12.872  20.971  0.00  0.00    +0.000 A 
ATOM     30  C   UNL     1      -6.399  11.495  20.701  0.00  0.00    +0.000 A 
ENDBRANCH  20  29
ENDBRANCH   1  20
TORSDOF 3
ENDMDL
MODEL 2
REMARK VINA RESULT:      -6.7      3.048      4.613
REMARK  Name = 
REMARK  6 active torsions:
REMARK  status: ('A' for Active; 'I' for Inactive)
REMARK    1  A    between atoms: C_1  and  C_2
REMARK    2  A    between atoms: C_5  and  C_6
REMARK    3  A    between atoms: C_7  and  S_8
REMARK    4  A    between atoms: S_8  and  N_11
REMARK    5  A    between atoms: C_15  and  C_17
REMARK    6  A    between atoms: C_18  and  C_19
REMARK                            x       y       z     vdW  Elec       q    Type
REMARK                         _______ _______ _______ _____ _____    ______ ____
ROOT
ATOM      1  N   UNL     1      -4.061  13.305  20.628  0.00  0.00    +0.000 NA
ATOM      2  C   UNL     1      -3.641  12.331  19.590  0.00  0.00    +0.000 C 
ATOM      3  C   UNL     1      -2.124  11.966  19.624  0.00  0.00    +0.000 C 
ATOM      4  N   UNL     1      -1.293  12.632  20.653  0.00  0.00    +0.000 N 
ATOM      5  C   UNL     1       0.025  12.253  21.006  0.00  0.00    +0.000 C 
ATOM      6  O   UNL     1       0.844  13.103  21.376  0.00  0.00    +0.000 OA
ATOM      7  C   UNL     1      -1.677  13.970  21.086  0.00  0.00    +0.000 C 
ATOM      8  C   UNL     1      -3.095  14.424  20.741  0.00  0.00    +0.000 C 
ENDROOT
BRANCH   5   9
ATOM      9  C   UNL     1       0.379  10.824  21.010  0.00  0.00    +0.000 A 
ATOM     10  C   UNL     1       0.114   9.908  22.036  0.00  0.00    +0.000 A 
ATOM     11  C   UNL     1      -0.580  10.018  23.350  0.00  0.00    +0.000 C 
ATOM     12  N   UNL     1       0.615   8.688  21.647  0.00  0.00    +0.000 N 
ATOM     13  C   UNL     1       1.164   8.762  20.385  0.00  0.00    +0.000 A 
ATOM     14  C   UNL     1       1.799   7.788  19.619  0.00  0.00    +0.000 A 
ATOM     15  C   UNL     1       2.253   8.157  18.348  0.00  0.00    +0.000 A 
ATOM     16  C   UNL     1       1.995   9.425  17.837  0.00  0.00    +0.000 A 
ATOM     17  C   UNL     1       1.288  10.355  18.596  0.00  0.00    +0.000 A 
ATOM     18  C   UNL     1       0.938  10.060  19.932  0.00  0.00    +0.000 A 
ATOM     19  H   UNL     1       0.568   7.840  22.194  0.00  0.00    +0.000 HD
ENDBRANCH   5   9
BRANCH   1  20
ATOM     20  S   UNL     1      -4.980  12.815  21.970  0.00  0.00    +0.000 S 
ATOM     21  O   UNL     1      -4.070  12.387  23.009  0.00  0.00    +0.000 OA
ATOM     22  O   UNL     1      -6.021  11.931  21.483  0.00  0.00    +0.000 OA
BRANCH  20  29
ATOM     23  C   UNL     1      -5.080  17.161  25.096  0.00  0.00    +0.000 C 
ATOM     24  C   UNL     1      -5.801  16.238  24.147  0.00  0.00    +0.000 A 
ATOM     25  C   UNL     1      -7.030  16.650  23.636  0.00  0.00    +0.000 A 
ATOM     26  C   UNL     1      -7.605  15.962  22.576  0.00  0.00    +0.000 A 
ATOM     27  C   UNL     1      -6.977  14.835  22.007  0.00  0.00    +0.000 A 
ATOM     28  C   UNL     1      -7.459  14.417  20.655  0.00  0.00    +0.000 C 
ATOM     29  C   UNL     1      -5.837  14.295  22.633  0.00  0.00    +0.000 A 
ATOM     30  C   UNL     1      -5.234  15.026  23.683  0.00  0.00    +0.000 A 
ENDBRANCH  20  29
ENDBRANCH   1  20
TORSDOF 3
ENDMDL
MODEL 3
REMARK VINA RESULT:      -6.6      3.289      4.941
REMARK  Name = 
REMARK  6 active torsions:
REMARK  status: ('A' for Active; 'I' for Inactive)
REMARK    1  A    between atoms: C_1  and  C_2
REMARK    2  A    between atoms: C_5  and  C_6
REMARK    3  A    between atoms: C_7  and  S_8
REMARK    4  A    between atoms: S_8  and  N_11
REMARK    5  A    between atoms: C_15  and  C_17
REMARK    6  A    between atoms: C_18  and  C_19
REMARK                            x       y       z     vdW  Elec       q    Type
REMARK                         _______ _______ _______ _____ _____    ______ ____
ROOT
ATOM      1  N   UNL     1      -3.391  13.203  20.653  0.00  0.00    +0.000 NA
ATOM      2  C   UNL     1      -3.094  12.187  19.612  0.00  0.00    +0.000 C 
ATOM      3  C   UNL     1      -1.612  11.699  19.593  0.00  0.00    +0.000 C 
ATOM      4  N   UNL     1      -0.689  12.303  20.580  0.00  0.00    +0.000 N 
ATOM      5  C   UNL     1       0.607  11.820  20.888  0.00  0.00    +0.000 C 
ATOM      6  O   UNL     1       1.507  12.603  21.215  0.00  0.00    +0.000 OA
ATOM      7  C   UNL     1      -0.944  13.672  21.012  0.00  0.00    +0.000 C 
ATOM      8  C   UNL     1      -2.333  14.239  20.715  0.00  0.00    +0.000 C 
ENDROOT
BRANCH   5   9
ATOM      9  C   UNL     1       0.841  10.367  20.897  0.00  0.00    +0.000 A 
ATOM     10  C   UNL     1       0.525   9.482  21.935  0.00  0.00    +0.000 A 
ATOM     11  C   UNL     1      -0.128   9.658  23.263  0.00  0.00    +0.000 C 
ATOM     12  N   UNL     1       0.914   8.222  21.546  0.00  0.00    +0.000 N 
ATOM     13  C   UNL     1       1.439   8.243  20.272  0.00  0.00    +0.000 A 
ATOM     14  C   UNL     1       1.974   7.214  19.501  0.00  0.00    +0.000 A 
ATOM     15  C   UNL     1       2.429   7.536  18.217  0.00  0.00    +0.000 A 
ATOM     16  C   UNL     1       2.265   8.817  17.701  0.00  0.00    +0.000 A 
ATOM     17  C   UNL     1       1.654   9.808  18.467  0.00  0.00    +0.000 A 
ATOM     18  C   UNL     1       1.310   9.552  19.813  0.00  0.00    +0.000 A 
ATOM     19  H   UNL     1       0.810   7.385  22.102  0.00  0.00    +0.000 HD
ENDBRANCH   5   9
BRANCH   1  20
ATOM     20  S   UNL     1      -4.294  12.803  22.036  0.00  0.00    +0.000 S 
ATOM     21  O   UNL     1      -3.425  12.107  22.958  0.00  0.00    +0.000 OA
ATOM     22  O   UNL     1      -5.534  12.202  21.585  0.00  0.00    +0.000 OA
BRANCH  20  29
ATOM     23  C   UNL     1      -7.910  16.550  23.284  0.00  0.00    +0.000 C 
ATOM     24  C   UNL     1      -6.484  16.064  23.340  0.00  0.00    +0.000 A 
ATOM     25  C   UNL     1      -5.603  16.711  24.204  0.00  0.00    +0.000 A 
ATOM     26  C   UNL     1      -4.364  16.148  24.480  0.00  0.00    +0.000 A 
ATOM     27  C   UNL     1      -3.965  14.931  23.888  0.00  0.00    +0.000 A 
ATOM     28  C   UNL     1      -2.818  14.223  24.534  0.00  0.00    +0.000 C 
ATOM     29  C   UNL     1      -4.761  14.368  22.872  0.00  0.00    +0.000 A 
ATOM     30  C   UNL     1      -6.039  14.923  22.630  0.00  0.00    +0.000 A 
ENDBRANCH  20  29
ENDBRANCH   1  20
TORSDOF 3
ENDMDL
MODEL 4
REMARK VINA RESULT:      -6.6      2.643      6.450
REMARK  Name = 
REMARK  6 active torsions:
REMARK  status: ('A' for Active; 'I' for Inactive)
REMARK    1  A    between atoms: C_1  and  C_2
REMARK    2  A    between atoms: C_5  and  C_6
REMARK    3  A    between atoms: C_7  and  S_8
REMARK    4  A    between atoms: S_8  and  N_11
REMARK    5  A    between atoms: C_15  and  C_17
REMARK    6  A    between atoms: C_18  and  C_19
REMARK                            x       y       z     vdW  Elec       q    Type
REMARK                         _______ _______ _______ _____ _____    ______ ____
ROOT
ATOM      1  N   UNL     1      -0.477  12.738  22.025  0.00  0.00    +0.000 NA
ATOM      2  C   UNL     1      -1.292  11.750  22.776  0.00  0.00    +0.000 C 
ATOM      3  C   UNL     1      -2.770  12.188  23.021  0.00  0.00    +0.000 C 
ATOM      4  N   UNL     1      -3.176  13.515  22.505  0.00  0.00    +0.000 N 
ATOM      5  C   UNL     1      -4.511  13.976  22.403  0.00  0.00    +0.000 C 
ATOM      6  O   UNL     1      -4.771  15.178  22.543  0.00  0.00    +0.000 OA
ATOM      7  C   UNL     1      -2.164  14.562  22.430  0.00  0.00    +0.000 C 
ATOM      8  C   UNL     1      -0.705  14.115  22.522  0.00  0.00    +0.000 C 
ENDROOT
BRANCH   5   9
ATOM      9  C   UNL     1      -5.569  13.020  22.042  0.00  0.00    +0.000 A 
ATOM     10  C   UNL     1      -6.658  12.646  22.840  0.00  0.00    +0.000 A 
ATOM     11  C   UNL     1      -7.119  13.059  24.195  0.00  0.00    +0.000 C 
ATOM     12  N   UNL     1      -7.400  11.728  22.135  0.00  0.00    +0.000 N 
ATOM     13  C   UNL     1      -6.858  11.516  20.885  0.00  0.00    +0.000 A 
ATOM     14  C   UNL     1      -7.261  10.662  19.862  0.00  0.00    +0.000 A 
ATOM     15  C   UNL     1      -6.510  10.668  18.681  0.00  0.00    +0.000 A 
ATOM     16  C   UNL     1      -5.458  11.561  18.507  0.00  0.00    +0.000 A 
ATOM     17  C   UNL     1      -5.127  12.459  19.518  0.00  0.00    +0.000 A 
ATOM     18  C   UNL     1      -5.775  12.385  20.771  0.00  0.00    +0.000 A 
ATOM     19  H   UNL     1      -8.243  11.284  22.469  0.00  0.00    +0.000 HD
ENDBRANCH   5   9
BRANCH   1  20
ATOM     20  S   UNL     1      -0.036  12.462  20.407  0.00  0.00    +0.000 S 
ATOM     21  O   UNL     1      -1.236  12.175  19.654  0.00  0.00    +0.000 OA
ATOM     22  O   UNL     1       1.077  11.534  20.414  0.00  0.00    +0.000 OA
BRANCH  20  29
ATOM     23  C   UNL     1      -0.789  17.254  18.141  0.00  0.00    +0.000 C 
ATOM     24  C   UNL     1       0.165  16.196  18.635  0.00  0.00    +0.000 A 
ATOM     25  C   UNL     1       1.513  16.531  18.754  0.00  0.00    +0.000 A 
ATOM     26  C   UNL     1       2.378  15.686  19.437  0.00  0.00    +0.000 A 
ATOM     27  C   UNL     1       1.925  14.477  20.005  0.00  0.00    +0.000 A 
ATOM     28  C   UNL     1       2.814  13.851  21.032  0.00  0.00    +0.000 C 
ATOM     29  C   UNL     1       0.617  14.036  19.729  0.00  0.00    +0.000 A 
ATOM     30  C   UNL     1      -0.269  14.922  19.071  0.00  0.00    +0.000 A 
ENDBRANCH  20  29
ENDBRANCH   1  20
TORSDOF 3
ENDMDL
MODEL 5
REMARK VINA RESULT:      -6.3      2.548      5.863
REMARK  Name = 
REMARK  6 active torsions:
REMARK  status: ('A' for Active; 'I' for Inactive)
REMARK    1  A    between atoms: C_1  and  C_2
REMARK    2  A    between atoms: C_5  and  C_6
REMARK    3  A    between atoms: C_7  and  S_8
REMARK    4  A    between atoms: S_8  and  N_11
REMARK    5  A    between atoms: C_15  and  C_17
REMARK    6  A    between atoms: C_18  and  C_19
REMARK                            x       y       z     vdW  Elec       q    Type
REMARK                         _______ _______ _______ _____ _____    ______ ____
ROOT
ATOM      1  N   UNL     1       0.356  12.798  20.822  0.00  0.00    +0.000 NA
ATOM      2  C   UNL     1      -0.367  11.747  21.582  0.00  0.00    +0.000 C 
ATOM      3  C   UNL     1      -1.591  12.268  22.397  0.00  0.00    +0.000 C 
ATOM      4  N   UNL     1      -1.875  13.720  22.335  0.00  0.00    +0.000 N 
ATOM      5  C   UNL     1      -3.067  14.337  22.789  0.00  0.00    +0.000 C 
ATOM      6  O   UNL     1      -3.041  15.483  23.254  0.00  0.00    +0.000 OA
ATOM      7  C   UNL     1      -0.755  14.632  22.141  0.00  0.00    +0.000 C 
ATOM      8  C   UNL     1       0.553  14.018  21.641  0.00  0.00    +0.000 C 
ENDROOT
BRANCH   5   9
ATOM      9  C   UNL     1      -4.345  13.630  22.616  0.00  0.00    +0.000 A 
ATOM     10  C   UNL     1      -4.964  12.794  23.554  0.00  0.00    +0.000 A 
ATOM     11  C   UNL     1      -4.613  12.381  24.942  0.00  0.00    +0.000 C 
ATOM     12  N   UNL     1      -6.132  12.330  22.996  0.00  0.00    +0.000 N 
ATOM     13  C   UNL     1      -6.321  12.863  21.739  0.00  0.00    +0.000 A 
ATOM     14  C   UNL     1      -7.341  12.651  20.814  0.00  0.00    +0.000 A 
ATOM     15  C   UNL     1      -7.272  13.350  19.604  0.00  0.00    +0.000 A 
ATOM     16  C   UNL     1      -6.271  14.289  19.376  0.00  0.00    +0.000 A 
ATOM     17  C   UNL     1      -5.309  14.537  20.352  0.00  0.00    +0.000 A 
ATOM     18  C   UNL     1      -5.270  13.752  21.525  0.00  0.00    +0.000 A 
ATOM     19  H   UNL     1      -6.782  11.703  23.449  0.00  0.00    +0.000 HD
ENDBRANCH   5   9
BRANCH   1  20
ATOM     20  S   UNL     1       0.229  12.901  19.130  0.00  0.00    +0.000 S 
ATOM     21  O   UNL     1       1.473  12.439  18.555  0.00  0.00    +0.000 OA
ATOM     22  O   UNL     1      -0.294  14.215  18.814  0.00  0.00    +0.000 OA
BRANCH  20  29
ATOM     23  C   UNL     1      -4.666  11.792  17.265  0.00  0.00    +0.000 C 
ATOM     24  C   UNL     1      -3.341  11.296  17.785  0.00  0.00    +0.000 A 
ATOM     25  C   UNL     1      -3.046   9.941  17.645  0.00  0.00    +0.000 A 
ATOM     26  C   UNL     1      -1.753   9.488  17.872  0.00  0.00    +0.000 A 
ATOM     27  C   UNL     1      -0.724  10.371  18.260  0.00  0.00    +0.000 A 
ATOM     28  C   UNL     1       0.676   9.873  18.095  0.00  0.00    +0.000 C 
ATOM     29  C   UNL     1      -1.049  11.701  18.590  0.00  0.00    +0.000 A 
ATOM     30  C   UNL     1      -2.356  12.164  18.314  0.00  0.00    +0.000 A 
ENDBRANCH  20  29
ENDBRANCH   1  20
TORSDOF 3
ENDMDL
MODEL 6
REMARK VINA RESULT:      -6.3      2.259      5.620
REMARK  Name = 
REMARK  6 active torsions:
REMARK  status: ('A' for Active; 'I' for Inactive)
REMARK    1  A    between atoms: C_1  and  C_2
REMARK    2  A    between atoms: C_5  and  C_6
REMARK    3  A    between atoms: C_7  and  S_8
REMARK    4  A    between atoms: S_8  and  N_11
REMARK    5  A    between atoms: C_15  and  C_17
REMARK    6  A    between atoms: C_18  and  C_19
REMARK                            x       y       z     vdW  Elec       q    Type
REMARK                         _______ _______ _______ _____ _____    ______ ____
ROOT
ATOM      1  N   UNL     1      -0.907  14.144  22.001  0.00  0.00    +0.000 NA
ATOM      2  C   UNL     1      -1.482  12.943  22.655  0.00  0.00    +0.000 C 
ATOM      3  C   UNL     1      -3.030  12.992  22.846  0.00  0.00    +0.000 C 
ATOM      4  N   UNL     1      -3.730  14.210  22.379  0.00  0.00    +0.000 N 
ATOM      5  C   UNL     1      -5.133  14.339  22.232  0.00  0.00    +0.000 C 
ATOM      6  O   UNL     1      -5.686  15.429  22.420  0.00  0.00    +0.000 OA
ATOM      7  C   UNL     1      -3.005  15.474  22.411  0.00  0.00    +0.000 C 
ATOM      8  C   UNL     1      -1.485  15.391  22.556  0.00  0.00    +0.000 C 
ENDROOT
BRANCH   5   9
ATOM      9  C   UNL     1      -5.909  13.179  21.766  0.00  0.00    +0.000 A 
ATOM     10  C   UNL     1      -6.826  12.437  22.521  0.00  0.00    +0.000 A 
ATOM     11  C   UNL     1      -7.329  12.554  23.919  0.00  0.00    +0.000 C 
ATOM     12  N   UNL     1      -7.322  11.438  21.717  0.00  0.00    +0.000 N 
ATOM     13  C   UNL     1      -6.791  11.522  20.447  0.00  0.00    +0.000 A 
ATOM     14  C   UNL     1      -6.989  10.711  19.332  0.00  0.00    +0.000 A 
ATOM     15  C   UNL     1      -6.313  11.053  18.156  0.00  0.00    +0.000 A 
ATOM     16  C   UNL     1      -5.547  12.212  18.082  0.00  0.00    +0.000 A 
ATOM     17  C   UNL     1      -5.430  13.046  19.191  0.00  0.00    +0.000 A 
ATOM     18  C   UNL     1      -5.986  12.659  20.431  0.00  0.00    +0.000 A 
ATOM     19  H   UNL     1      -8.002  10.747  22.001  0.00  0.00    +0.000 HD
ENDBRANCH   5   9
BRANCH   1  20
ATOM     20  S   UNL     1      -0.350  14.087  20.396  0.00  0.00    +0.000 S 
ATOM     21  O   UNL     1       1.095  14.120  20.418  0.00  0.00    +0.000 OA
ATOM     22  O   UNL     1      -1.105  15.066  19.640  0.00  0.00    +0.000 OA
BRANCH  20  29
ATOM     23  C   UNL     1      -2.639  11.073  16.609  0.00  0.00    +0.000 C 
ATOM     24  C   UNL     1      -1.934  11.157  17.938  0.00  0.00    +0.000 A 
ATOM     25  C   UNL     1      -1.458   9.977  18.506  0.00  0.00    +0.000 A 
ATOM     26  C   UNL     1      -0.589  10.030  19.588  0.00  0.00    +0.000 A 
ATOM     27  C   UNL     1      -0.185  11.262  20.143  0.00  0.00    +0.000 A 
ATOM     28  C   UNL     1       1.027  11.231  21.019  0.00  0.00    +0.000 C 
ATOM     29  C   UNL     1      -0.803  12.449  19.704  0.00  0.00    +0.000 A 
ATOM     30  C   UNL     1      -1.652  12.390  18.574  0.00  0.00    +0.000 A 
ENDBRANCH  20  29
ENDBRANCH   1  20
TORSDOF 3
ENDMDL
MODEL 7
REMARK VINA RESULT:      -6.3      2.801      6.714
REMARK  Name = 
REMARK  6 active torsions:
REMARK  status: ('A' for Active; 'I' for Inactive)
REMARK    1  A    between atoms: C_1  and  C_2
REMARK    2  A    between atoms: C_5  and  C_6
REMARK    3  A    between atoms: C_7  and  S_8
REMARK    4  A    between atoms: S_8  and  N_11
REMARK    5  A    between atoms: C_15  and  C_17
REMARK    6  A    between atoms: C_18  and  C_19
REMARK                            x       y       z     vdW  Elec       q    Type
REMARK                         _______ _______ _______ _____ _____    ______ ____
ROOT
ATOM      1  N   UNL     1      -0.299  11.837  22.235  0.00  0.00    +0.000 NA
ATOM      2  C   UNL     1      -1.313  11.294  23.173  0.00  0.00    +0.000 C 
ATOM      3  C   UNL     1      -2.691  12.023  23.123  0.00  0.00    +0.000 C 
ATOM      4  N   UNL     1      -2.822  13.158  22.182  0.00  0.00    +0.000 N 
ATOM      5  C   UNL     1      -4.042  13.774  21.811  0.00  0.00    +0.000 C 
ATOM      6  O   UNL     1      -4.080  14.981  21.543  0.00  0.00    +0.000 OA
ATOM      7  C   UNL     1      -1.630  13.943  21.883  0.00  0.00    +0.000 C 
ATOM      8  C   UNL     1      -0.285  13.319  22.253  0.00  0.00    +0.000 C 
ENDROOT
BRANCH   5   9
ATOM      9  C   UNL     1      -5.245  12.939  21.664  0.00  0.00    +0.000 A 
ATOM     10  C   UNL     1      -6.283  12.808  22.595  0.00  0.00    +0.000 A 
ATOM     11  C   UNL     1      -6.545  13.427  23.925  0.00  0.00    +0.000 C 
ATOM     12  N   UNL     1      -7.205  11.930  22.076  0.00  0.00    +0.000 N 
ATOM     13  C   UNL     1      -6.827  11.509  20.819  0.00  0.00    +0.000 A 
ATOM     14  C   UNL     1      -7.439  10.612  19.947  0.00  0.00    +0.000 A 
ATOM     15  C   UNL     1      -6.820  10.385  18.712  0.00  0.00    +0.000 A 
ATOM     16  C   UNL     1      -5.688  11.101  18.338  0.00  0.00    +0.000 A 
ATOM     17  C   UNL     1      -5.143  12.050  19.199  0.00  0.00    +0.000 A 
ATOM     18  C   UNL     1      -5.661  12.203  20.504  0.00  0.00    +0.000 A 
ATOM     19  H   UNL     1      -8.058  11.646  22.535  0.00  0.00    +0.000 HD
ENDBRANCH   5   9
BRANCH   1  20
ATOM     20  S   UNL     1       0.148  10.982  20.836  0.00  0.00    +0.000 S 
ATOM     21  O   UNL     1      -1.027  10.827  20.007  0.00  0.00    +0.000 OA
ATOM     22  O   UNL     1       0.917   9.829  21.259  0.00  0.00    +0.000 OA
BRANCH  20  29
ATOM     23  C   UNL     1       3.607  15.058  20.528  0.00  0.00    +0.000 C 
ATOM     24  C   UNL     1       2.832  13.969  19.831  0.00  0.00    +0.000 A 
ATOM     25  C   UNL     1       3.170  13.660  18.515  0.00  0.00    +0.000 A 
ATOM     26  C   UNL     1       2.667  12.509  17.923  0.00  0.00    +0.000 A 
ATOM     27  C   UNL     1       1.801  11.644  18.622  0.00  0.00    +0.000 A 
ATOM     28  C   UNL     1       1.638  10.269  18.059  0.00  0.00    +0.000 C 
ATOM     29  C   UNL     1       1.301  12.040  19.878  0.00  0.00    +0.000 A 
ATOM     30  C   UNL     1       1.852  13.189  20.491  0.00  0.00    +0.000 A 
ENDBRANCH  20  29
ENDBRANCH   1  20
TORSDOF 3
ENDMDL
MODEL 8
REMARK VINA RESULT:      -6.2      4.112      5.320
REMARK  Name = 
REMARK  6 active torsions:
REMARK  status: ('A' for Active; 'I' for Inactive)
REMARK    1  A    between atoms: C_1  and  C_2
REMARK    2  A    between atoms: C_5  and  C_6
REMARK    3  A    between atoms: C_7  and  S_8
REMARK    4  A    between atoms: S_8  and  N_11
REMARK    5  A    between atoms: C_15  and  C_17
REMARK    6  A    between atoms: C_18  and  C_19
REMARK                            x       y       z     vdW  Elec       q    Type
REMARK                         _______ _______ _______ _____ _____    ______ ____
ROOT
ATOM      1  N   UNL     1      -2.139  12.338  19.227  0.00  0.00    +0.000 NA
ATOM      2  C   UNL     1      -2.327  10.930  18.800  0.00  0.00    +0.000 C 
ATOM      3  C   UNL     1      -1.000  10.163  18.508  0.00  0.00    +0.000 C 
ATOM      4  N   UNL     1       0.265  10.915  18.671  0.00  0.00    +0.000 N 
ATOM      5  C   UNL     1       1.558  10.338  18.702  0.00  0.00    +0.000 C 
ATOM      6  O   UNL     1       2.533  10.960  18.260  0.00  0.00    +0.000 OA
ATOM      7  C   UNL     1       0.247  12.352  18.425  0.00  0.00    +0.000 C 
ATOM      8  C   UNL     1      -1.125  13.026  18.393  0.00  0.00    +0.000 C 
ENDROOT
BRANCH   5   9
ATOM      9  C   UNL     1       1.739   9.028  19.347  0.00  0.00    +0.000 A 
ATOM     10  C   UNL     1       1.212   8.633  20.583  0.00  0.00    +0.000 A 
ATOM     11  C   UNL     1       0.338   9.307  21.583  0.00  0.00    +0.000 C 
ATOM     12  N   UNL     1       1.623   7.342  20.821  0.00  0.00    +0.000 N 
ATOM     13  C   UNL     1       2.369   6.863  19.766  0.00  0.00    +0.000 A 
ATOM     14  C   UNL     1       2.999   5.633  19.593  0.00  0.00    +0.000 A 
ATOM     15  C   UNL     1       3.687   5.422  18.393  0.00  0.00    +0.000 A 
ATOM     16  C   UNL     1       3.661   6.372  17.377  0.00  0.00    +0.000 A 
ATOM     17  C   UNL     1       2.957   7.560  17.547  0.00  0.00    +0.000 A 
ATOM     18  C   UNL     1       2.368   7.863  18.795  0.00  0.00    +0.000 A 
ATOM     19  H   UNL     1       1.393   6.802  21.643  0.00  0.00    +0.000 HD
ENDBRANCH   5   9
BRANCH   1  20
ATOM     20  S   UNL     1      -2.396  12.806  20.841  0.00  0.00    +0.000 S 
ATOM     21  O   UNL     1      -1.960  14.177  20.989  0.00  0.00    +0.000 OA
ATOM     22  O   UNL     1      -1.858  11.760  21.687  0.00  0.00    +0.000 OA
BRANCH  20  29
ATOM     23  C   UNL     1      -7.411  11.806  19.255  0.00  0.00    +0.000 C 
ATOM     24  C   UNL     1      -6.476  12.377  20.290  0.00  0.00    +0.000 A 
ATOM     25  C   UNL     1      -7.000  12.712  21.537  0.00  0.00    +0.000 A 
ATOM     26  C   UNL     1      -6.145  12.997  22.594  0.00  0.00    +0.000 A 
ATOM     27  C   UNL     1      -4.745  12.971  22.430  0.00  0.00    +0.000 A 
ATOM     28  C   UNL     1      -3.931  12.899  23.683  0.00  0.00    +0.000 C 
ATOM     29  C   UNL     1      -4.206  12.823  21.138  0.00  0.00    +0.000 A 
ATOM     30  C   UNL     1      -5.081  12.490  20.077  0.00  0.00    +0.000 A 
ENDBRANCH  20  29
ENDBRANCH   1  20
TORSDOF 3
ENDMDL
MODEL 9
REMARK VINA RESULT:      -6.2      2.551      6.562
REMARK  Name = 
REMARK  6 active torsions:
REMARK  status: ('A' for Active; 'I' for Inactive)
REMARK    1  A    between atoms: C_1  and  C_2
REMARK    2  A    between atoms: C_5  and  C_6
REMARK    3  A    between atoms: C_7  and  S_8
REMARK    4  A    between atoms: S_8  and  N_11
REMARK    5  A    between atoms: C_15  and  C_17
REMARK    6  A    between atoms: C_18  and  C_19
REMARK                            x       y       z     vdW  Elec       q    Type
REMARK                         _______ _______ _______ _____ _____    ______ ____
ROOT
ATOM      1  N   UNL     1      -0.495  12.481  22.562  0.00  0.00    +0.000 NA
ATOM      2  C   UNL     1      -1.463  11.643  23.312  0.00  0.00    +0.000 C 
ATOM      3  C   UNL     1      -2.930  12.173  23.283  0.00  0.00    +0.000 C 
ATOM      4  N   UNL     1      -3.180  13.431  22.544  0.00  0.00    +0.000 N 
ATOM      5  C   UNL     1      -4.458  13.931  22.192  0.00  0.00    +0.000 C 
ATOM      6  O   UNL     1      -4.661  15.150  22.133  0.00  0.00    +0.000 OA
ATOM      7  C   UNL     1      -2.105  14.414  22.476  0.00  0.00    +0.000 C 
ATOM      8  C   UNL     1      -0.702  13.923  22.835  0.00  0.00    +0.000 C 
ENDROOT
BRANCH   5   9
ATOM      9  C   UNL     1      -5.514  12.979  21.812  0.00  0.00    +0.000 A 
ATOM     10  C   UNL     1      -6.614  12.605  22.595  0.00  0.00    +0.000 A 
ATOM     11  C   UNL     1      -7.092  13.012  23.946  0.00  0.00    +0.000 C 
ATOM     12  N   UNL     1      -7.349  11.692  21.875  0.00  0.00    +0.000 N 
ATOM     13  C   UNL     1      -6.792  11.484  20.632  0.00  0.00    +0.000 A 
ATOM     14  C   UNL     1      -7.184  10.636  19.599  0.00  0.00    +0.000 A 
ATOM     15  C   UNL     1      -6.418  10.645  18.428  0.00  0.00    +0.000 A 
ATOM     16  C   UNL     1      -5.362  11.537  18.272  0.00  0.00    +0.000 A 
ATOM     17  C   UNL     1      -5.041  12.429  19.292  0.00  0.00    +0.000 A 
ATOM     18  C   UNL     1      -5.705  12.351  20.536  0.00  0.00    +0.000 A 
ATOM     19  H   UNL     1      -8.198  11.249  22.197  0.00  0.00    +0.000 HD
ENDBRANCH   5   9
BRANCH   1  20
ATOM     20  S   UNL     1       0.145  11.964  21.075  0.00  0.00    +0.000 S 
ATOM     21  O   UNL     1      -0.956  11.729  20.167  0.00  0.00    +0.000 OA
ATOM     22  O   UNL     1       1.110  10.921  21.357  0.00  0.00    +0.000 OA
BRANCH  20  29
ATOM     23  C   UNL     1       4.652  14.820  20.630  0.00  0.00    +0.000 C 
ATOM     24  C   UNL     1       3.199  14.638  20.270  0.00  0.00    +0.000 A 
ATOM     25  C   UNL     1       2.676  15.415  19.238  0.00  0.00    +0.000 A 
ATOM     26  C   UNL     1       1.431  15.109  18.704  0.00  0.00    +0.000 A 
ATOM     27  C   UNL     1       0.668  14.029  19.196  0.00  0.00    +0.000 A 
ATOM     28  C   UNL     1      -0.442  13.546  18.319  0.00  0.00    +0.000 C 
ATOM     29  C   UNL     1       1.096  13.359  20.358  0.00  0.00    +0.000 A 
ATOM     30  C   UNL     1       2.384  13.647  20.868  0.00  0.00    +0.000 A 
ENDBRANCH  20  29
ENDBRANCH   1  20
TORSDOF 3
ENDMDL
