MODEL 1
REMARK VINA RESULT:      -8.5      0.000      0.000
REMARK  Name = 
REMARK  3 active torsions:
REMARK  status: ('A' for Active; 'I' for Inactive)
REMARK    1  A    between atoms: C_2  and  C_12
REMARK    2  A    between atoms: N_3  and  C_4
REMARK    3  A    between atoms: C_4  and  C_5
REMARK                            x       y       z     vdW  Elec       q    Type
REMARK                         _______ _______ _______ _____ _____    ______ ____
ROOT
ATOM      1  O   UNL     1       5.965   5.619  19.022  0.00  0.00    +0.000 OA
ATOM      2  C   UNL     1       5.867   4.664  18.265  0.00  0.00    +0.000 C 
ATOM      3  N   UNL     1       5.383   3.424  18.627  0.00  0.00    +0.000 N 
ATOM      4  H   UNL     1       5.378   2.679  17.930  0.00  0.00    +0.000 HD
ENDROOT
BRANCH   2   5
ATOM      5  C   UNL     1       6.315   4.772  16.817  0.00  0.00    +0.000 A 
ATOM      6  N   UNL     1       7.291   5.608  16.566  0.00  0.00    +0.000 NA
ATOM      7  N   UNL     1       7.758   5.733  15.297  0.00  0.00    +0.000 N 
ATOM      8  C   UNL     1       7.220   5.050  14.202  0.00  0.00    +0.000 A 
ATOM      9  C   UNL     1       7.761   5.208  12.922  0.00  0.00    +0.000 A 
ATOM     10  C   UNL     1       7.257   4.478  11.839  0.00  0.00    +0.000 A 
ATOM     11  C   UNL     1       6.196   3.591  12.019  0.00  0.00    +0.000 A 
ATOM     12  C   UNL     1       5.646   3.424  13.287  0.00  0.00    +0.000 A 
ATOM     13  C   UNL     1       6.175   4.146  14.364  0.00  0.00    +0.000 A 
ATOM     14  C   UNL     1       5.681   3.945  15.727  0.00  0.00    +0.000 A 
ATOM     15  O   UNL     1       4.826   3.109  15.981  0.00  0.00    +0.000 OA
ATOM     16  H   UNL     1       8.462   6.446  15.113  0.00  0.00    +0.000 HD
ENDBRANCH   2   5
BRANCH   3  17
ATOM     17  C   UNL     1       4.876   3.165  19.956  0.00  0.00    +0.000 C 
BRANCH  17  18
ATOM     18  C   UNL     1       3.423   2.677  19.989  0.00  0.00    +0.000 C 
ATOM     19  C   UNL     1       3.069   1.799  18.775  0.00  0.00    +0.000 C 
ATOM     20  C   UNL     1       1.957   2.611  18.106  0.00  0.00    +0.000 C 
ATOM     21  C   UNL     1       0.663   2.517  18.911  0.00  0.00    +0.000 C 
ATOM     22  C   UNL     1       0.996   3.359  20.144  0.00  0.00    +0.000 C 
ATOM     23  C   UNL     1       2.419   3.829  19.842  0.00  0.00    +0.000 C 
ATOM     24  O   UNL     1       2.368   3.969  18.398  0.00  0.00    +0.000 OA
ENDBRANCH  17  18
ENDBRANCH   3  17
TORSDOF 3
ENDMDL
MODEL 2
REMARK VINA RESULT:      -8.3      1.268      1.717
REMARK  Name = 
REMARK  3 active torsions:
REMARK  status: ('A' for Active; 'I' for Inactive)
REMARK    1  A    between atoms: C_2  and  C_12
REMARK    2  A    between atoms: N_3  and  C_4
REMARK    3  A    between atoms: C_4  and  C_5
REMARK                            x       y       z     vdW  Elec       q    Type
REMARK                         _______ _______ _______ _____ _____    ______ ____
ROOT
ATOM      1  O   UNL     1       5.850   5.341  19.311  0.00  0.00    +0.000 OA
ATOM      2  C   UNL     1       5.202   5.571  18.301  0.00  0.00    +0.000 C 
ATOM      3  N   UNL     1       3.888   5.991  18.292  0.00  0.00    +0.000 N 
ATOM      4  H   UNL     1       3.422   6.118  17.393  0.00  0.00    +0.000 HD
ENDROOT
BRANCH   2   5
ATOM      5  C   UNL     1       5.815   5.375  16.924  0.00  0.00    +0.000 A 
ATOM      6  N   UNL     1       6.944   5.994  16.692  0.00  0.00    +0.000 NA
ATOM      7  N   UNL     1       7.560   5.839  15.491  0.00  0.00    +0.000 N 
ATOM      8  C   UNL     1       7.030   5.085  14.440  0.00  0.00    +0.000 A 
ATOM      9  C   UNL     1       7.726   4.948  13.234  0.00  0.00    +0.000 A 
ATOM     10  C   UNL     1       7.220   4.145  12.205  0.00  0.00    +0.000 A 
ATOM     11  C   UNL     1       6.005   3.478  12.365  0.00  0.00    +0.000 A 
ATOM     12  C   UNL     1       5.301   3.604  13.559  0.00  0.00    +0.000 A 
ATOM     13  C   UNL     1       5.831   4.395  14.586  0.00  0.00    +0.000 A 
ATOM     14  C   UNL     1       5.166   4.495  15.885  0.00  0.00    +0.000 A 
ATOM     15  O   UNL     1       4.153   3.858  16.137  0.00  0.00    +0.000 OA
ATOM     16  H   UNL     1       8.395   6.392  15.305  0.00  0.00    +0.000 HD
ENDBRANCH   2   5
BRANCH   3  17
ATOM     17  C   UNL     1       3.171   6.267  19.516  0.00  0.00    +0.000 C 
BRANCH  17  18
ATOM     18  C   UNL     1       2.097   5.228  19.861  0.00  0.00    +0.000 C 
ATOM     19  C   UNL     1       2.331   4.570  21.233  0.00  0.00    +0.000 C 
ATOM     20  C   UNL     1       2.519   3.099  20.857  0.00  0.00    +0.000 C 
ATOM     21  C   UNL     1       1.185   2.469  20.465  0.00  0.00    +0.000 C 
ATOM     22  C   UNL     1       0.909   3.128  19.113  0.00  0.00    +0.000 C 
ATOM     23  C   UNL     1       2.142   4.012  18.925  0.00  0.00    +0.000 C 
ATOM     24  O   UNL     1       3.165   3.207  19.565  0.00  0.00    +0.000 OA
ENDBRANCH  17  18
ENDBRANCH   3  17
TORSDOF 3
ENDMDL
MODEL 3
REMARK VINA RESULT:      -8.0      1.131      1.355
REMARK  Name = 
REMARK  3 active torsions:
REMARK  status: ('A' for Active; 'I' for Inactive)
REMARK    1  A    between atoms: C_2  and  C_12
REMARK    2  A    between atoms: N_3  and  C_4
REMARK    3  A    between atoms: C_4  and  C_5
REMARK                            x       y       z     vdW  Elec       q    Type
REMARK                         _______ _______ _______ _____ _____    ______ ____
ROOT
ATOM      1  O   UNL     1       6.756   4.993  18.947  0.00  0.00    +0.000 OA
ATOM      2  C   UNL     1       5.938   5.132  18.049  0.00  0.00    +0.000 C 
ATOM      3  N   UNL     1       4.588   5.331  18.243  0.00  0.00    +0.000 N 
ATOM      4  H   UNL     1       3.981   5.396  17.425  0.00  0.00    +0.000 HD
ENDROOT
BRANCH   2   5
ATOM      5  C   UNL     1       6.367   5.065  16.593  0.00  0.00    +0.000 A 
ATOM      6  N   UNL     1       7.400   5.792  16.251  0.00  0.00    +0.000 NA
ATOM      7  N   UNL     1       7.853   5.758  14.971  0.00  0.00    +0.000 N 
ATOM      8  C   UNL     1       7.243   5.018  13.954  0.00  0.00    +0.000 A 
ATOM      9  C   UNL     1       7.772   5.009  12.658  0.00  0.00    +0.000 A 
ATOM     10  C   UNL     1       7.192   4.221  11.656  0.00  0.00    +0.000 A 
ATOM     11  C   UNL     1       6.069   3.443  11.934  0.00  0.00    +0.000 A 
ATOM     12  C   UNL     1       5.531   3.442  13.218  0.00  0.00    +0.000 A 
ATOM     13  C   UNL     1       6.134   4.219  14.214  0.00  0.00    +0.000 A 
ATOM     14  C   UNL     1       5.651   4.190  15.595  0.00  0.00    +0.000 A 
ATOM     15  O   UNL     1       4.737   3.453  15.938  0.00  0.00    +0.000 OA
ATOM     16  H   UNL     1       8.607   6.392  14.712  0.00  0.00    +0.000 HD
ENDBRANCH   2   5
BRANCH   3  17
ATOM     17  C   UNL     1       4.023   5.461  19.568  0.00  0.00    +0.000 C 
BRANCH  17  18
ATOM     18  C   UNL     1       3.338   4.190  20.085  0.00  0.00    +0.000 C 
ATOM     19  C   UNL     1       2.395   3.562  19.043  0.00  0.00    +0.000 C 
ATOM     20  C   UNL     1       1.040   3.638  19.749  0.00  0.00    +0.000 C 
ATOM     21  C   UNL     1       0.957   2.602  20.867  0.00  0.00    +0.000 C 
ATOM     22  C   UNL     1       1.911   3.185  21.911  0.00  0.00    +0.000 C 
ATOM     23  C   UNL     1       2.371   4.480  21.242  0.00  0.00    +0.000 C 
ATOM     24  O   UNL     1       1.175   4.861  20.514  0.00  0.00    +0.000 OA
ENDBRANCH  17  18
ENDBRANCH   3  17
TORSDOF 3
ENDMDL
MODEL 4
REMARK VINA RESULT:      -7.5      0.772      1.008
REMARK  Name = 
REMARK  3 active torsions:
REMARK  status: ('A' for Active; 'I' for Inactive)
REMARK    1  A    between atoms: C_2  and  C_12
REMARK    2  A    between atoms: N_3  and  C_4
REMARK    3  A    between atoms: C_4  and  C_5
REMARK                            x       y       z     vdW  Elec       q    Type
REMARK                         _______ _______ _______ _____ _____    ______ ____
ROOT
ATOM      1  O   UNL     1       6.021   5.698  18.936  0.00  0.00    +0.000 OA
ATOM      2  C   UNL     1       5.912   4.730  18.199  0.00  0.00    +0.000 C 
ATOM      3  N   UNL     1       5.419   3.502  18.587  0.00  0.00    +0.000 N 
ATOM      4  H   UNL     1       5.404   2.743  17.905  0.00  0.00    +0.000 HD
ENDROOT
BRANCH   2   5
ATOM      5  C   UNL     1       6.356   4.805  16.748  0.00  0.00    +0.000 A 
ATOM      6  N   UNL     1       7.357   5.606  16.482  0.00  0.00    +0.000 NA
ATOM      7  N   UNL     1       7.821   5.701  15.209  0.00  0.00    +0.000 N 
ATOM      8  C   UNL     1       7.257   5.021  14.126  0.00  0.00    +0.000 A 
ATOM      9  C   UNL     1       7.797   5.145  12.841  0.00  0.00    +0.000 A 
ATOM     10  C   UNL     1       7.264   4.418  11.770  0.00  0.00    +0.000 A 
ATOM     11  C   UNL     1       6.177   3.567  11.967  0.00  0.00    +0.000 A 
ATOM     12  C   UNL     1       5.628   3.434  13.239  0.00  0.00    +0.000 A 
ATOM     13  C   UNL     1       6.185   4.152  14.304  0.00  0.00    +0.000 A 
ATOM     14  C   UNL     1       5.692   3.984  15.672  0.00  0.00    +0.000 A 
ATOM     15  O   UNL     1       4.811   3.180  15.940  0.00  0.00    +0.000 OA
ATOM     16  H   UNL     1       8.547   6.389  15.013  0.00  0.00    +0.000 HD
ENDBRANCH   2   5
BRANCH   3  17
ATOM     17  C   UNL     1       4.914   3.274  19.923  0.00  0.00    +0.000 C 
BRANCH  17  18
ATOM     18  C   UNL     1       3.456   3.704  20.124  0.00  0.00    +0.000 C 
ATOM     19  C   UNL     1       2.726   2.844  21.171  0.00  0.00    +0.000 C 
ATOM     20  C   UNL     1       1.605   2.213  20.342  0.00  0.00    +0.000 C 
ATOM     21  C   UNL     1       0.526   3.244  20.022  0.00  0.00    +0.000 C 
ATOM     22  C   UNL     1       1.235   4.137  19.002  0.00  0.00    +0.000 C 
ATOM     23  C   UNL     1       2.600   3.462  18.873  0.00  0.00    +0.000 C 
ATOM     24  O   UNL     1       2.241   2.067  19.049  0.00  0.00    +0.000 OA
ENDBRANCH  17  18
ENDBRANCH   3  17
TORSDOF 3
ENDMDL
MODEL 5
REMARK VINA RESULT:      -7.5      5.122      7.406
REMARK  Name = 
REMARK  3 active torsions:
REMARK  status: ('A' for Active; 'I' for Inactive)
REMARK    1  A    between atoms: C_2  and  C_12
REMARK    2  A    between atoms: N_3  and  C_4
REMARK    3  A    between atoms: C_4  and  C_5
REMARK                            x       y       z     vdW  Elec       q    Type
REMARK                         _______ _______ _______ _____ _____    ______ ____
ROOT
ATOM      1  O   UNL     1       4.087   7.314  17.550  0.00  0.00    +0.000 OA
ATOM      2  C   UNL     1       2.957   7.201  18.000  0.00  0.00    +0.000 C 
ATOM      3  N   UNL     1       2.294   6.003  18.162  0.00  0.00    +0.000 N 
ATOM      4  H   UNL     1       1.335   6.018  18.511  0.00  0.00    +0.000 HD
ENDROOT
BRANCH   2   5
ATOM      5  C   UNL     1       2.157   8.428  18.406  0.00  0.00    +0.000 A 
ATOM      6  N   UNL     1       2.008   9.358  17.496  0.00  0.00    +0.000 NA
ATOM      7  N   UNL     1       1.281  10.469  17.784  0.00  0.00    +0.000 N 
ATOM      8  C   UNL     1       0.709  10.717  19.036  0.00  0.00    +0.000 A 
ATOM      9  C   UNL     1      -0.047  11.873  19.262  0.00  0.00    +0.000 A 
ATOM     10  C   UNL     1      -0.666  12.090  20.498  0.00  0.00    +0.000 A 
ATOM     11  C   UNL     1      -0.527  11.161  21.529  0.00  0.00    +0.000 A 
ATOM     12  C   UNL     1       0.223  10.007  21.319  0.00  0.00    +0.000 A 
ATOM     13  C   UNL     1       0.819   9.794  20.071  0.00  0.00    +0.000 A 
ATOM     14  C   UNL     1       1.550   8.560  19.780  0.00  0.00    +0.000 A 
ATOM     15  O   UNL     1       1.626   7.654  20.597  0.00  0.00    +0.000 OA
ATOM     16  H   UNL     1       1.245  11.212  17.089  0.00  0.00    +0.000 HD
ENDBRANCH   2   5
BRANCH   3  17
ATOM     17  C   UNL     1       2.929   4.738  17.864  0.00  0.00    +0.000 C 
BRANCH  17  18
ATOM     18  C   UNL     1       2.568   3.611  18.838  0.00  0.00    +0.000 C 
ATOM     19  C   UNL     1       1.075   3.608  19.211  0.00  0.00    +0.000 C 
ATOM     20  C   UNL     1       1.120   3.839  20.723  0.00  0.00    +0.000 C 
ATOM     21  C   UNL     1       1.594   2.580  21.445  0.00  0.00    +0.000 C 
ATOM     22  C   UNL     1       3.076   2.538  21.068  0.00  0.00    +0.000 C 
ATOM     23  C   UNL     1       3.229   3.795  20.212  0.00  0.00    +0.000 C 
ATOM     24  O   UNL     1       2.284   4.690  20.855  0.00  0.00    +0.000 OA
ENDBRANCH  17  18
ENDBRANCH   3  17
TORSDOF 3
ENDMDL
MODEL 6
REMARK VINA RESULT:      -7.3      4.554      7.713
REMARK  Name = 
REMARK  3 active torsions:
REMARK  status: ('A' for Active; 'I' for Inactive)
REMARK    1  A    between atoms: C_2  and  C_12
REMARK    2  A    between atoms: N_3  and  C_4
REMARK    3  A    between atoms: C_4  and  C_5
REMARK                            x       y       z     vdW  Elec       q    Type
REMARK                         _______ _______ _______ _____ _____    ______ ____
ROOT
ATOM      1  O   UNL     1       7.775   6.436  16.151  0.00  0.00    +0.000 OA
ATOM      2  C   UNL     1       7.186   6.671  17.196  0.00  0.00    +0.000 C 
ATOM      3  N   UNL     1       7.392   7.789  17.977  0.00  0.00    +0.000 N 
ATOM      4  H   UNL     1       6.878   7.874  18.854  0.00  0.00    +0.000 HD
ENDROOT
BRANCH   2   5
ATOM      5  C   UNL     1       6.163   5.692  17.746  0.00  0.00    +0.000 A 
ATOM      6  N   UNL     1       6.631   4.660  18.401  0.00  0.00    +0.000 NA
ATOM      7  N   UNL     1       5.769   3.760  18.942  0.00  0.00    +0.000 N 
ATOM      8  C   UNL     1       4.380   3.837  18.801  0.00  0.00    +0.000 A 
ATOM      9  C   UNL     1       3.545   2.888  19.402  0.00  0.00    +0.000 A 
ATOM     10  C   UNL     1       2.152   3.001  19.307  0.00  0.00    +0.000 A 
ATOM     11  C   UNL     1       1.578   4.056  18.599  0.00  0.00    +0.000 A 
ATOM     12  C   UNL     1       2.395   5.007  17.995  0.00  0.00    +0.000 A 
ATOM     13  C   UNL     1       3.785   4.892  18.116  0.00  0.00    +0.000 A 
ATOM     14  C   UNL     1       4.681   5.909  17.565  0.00  0.00    +0.000 A 
ATOM     15  O   UNL     1       4.250   6.916  17.022  0.00  0.00    +0.000 OA
ATOM     16  H   UNL     1       6.157   2.925  19.378  0.00  0.00    +0.000 HD
ENDBRANCH   2   5
BRANCH   3  17
ATOM     17  C   UNL     1       8.302   8.838  17.575  0.00  0.00    +0.000 C 
BRANCH  17  18
ATOM     18  C   UNL     1       8.277  10.072  18.486  0.00  0.00    +0.000 C 
ATOM     19  C   UNL     1       8.291  11.391  17.692  0.00  0.00    +0.000 C 
ATOM     20  C   UNL     1       9.594  12.038  18.166  0.00  0.00    +0.000 C 
ATOM     21  C   UNL     1       9.446  12.565  19.590  0.00  0.00    +0.000 C 
ATOM     22  C   UNL     1       9.399  11.271  20.405  0.00  0.00    +0.000 C 
ATOM     23  C   UNL     1       9.557  10.202  19.323  0.00  0.00    +0.000 C 
ATOM     24  O   UNL     1      10.434  10.878  18.386  0.00  0.00    +0.000 OA
ENDBRANCH  17  18
ENDBRANCH   3  17
TORSDOF 3
ENDMDL
MODEL 7
REMARK VINA RESULT:      -7.3      5.246      7.990
REMARK  Name = 
REMARK  3 active torsions:
REMARK  status: ('A' for Active; 'I' for Inactive)
REMARK    1  A    between atoms: C_2  and  C_12
REMARK    2  A    between atoms: N_3  and  C_4
REMARK    3  A    between atoms: C_4  and  C_5
REMARK                            x       y       z     vdW  Elec       q    Type
REMARK                         _______ _______ _______ _____ _____    ______ ____
ROOT
ATOM      1  O   UNL     1       2.917   8.334  17.002  0.00  0.00    +0.000 OA
ATOM      2  C   UNL     1       2.580   7.963  18.117  0.00  0.00    +0.000 C 
ATOM      3  N   UNL     1       2.881   6.730  18.656  0.00  0.00    +0.000 N 
ATOM      4  H   UNL     1       2.520   6.501  19.582  0.00  0.00    +0.000 HD
ENDROOT
BRANCH   2   5
ATOM      5  C   UNL     1       1.747   8.862  19.014  0.00  0.00    +0.000 A 
ATOM      6  N   UNL     1       1.380  10.015  18.512  0.00  0.00    +0.000 NA
ATOM      7  N   UNL     1       0.611  10.855  19.252  0.00  0.00    +0.000 N 
ATOM      8  C   UNL     1       0.215  10.589  20.566  0.00  0.00    +0.000 A 
ATOM      9  C   UNL     1      -0.596  11.488  21.267  0.00  0.00    +0.000 A 
ATOM     10  C   UNL     1      -1.038  11.191  22.562  0.00  0.00    +0.000 A 
ATOM     11  C   UNL     1      -0.663   9.997  23.177  0.00  0.00    +0.000 A 
ATOM     12  C   UNL     1       0.144   9.092  22.493  0.00  0.00    +0.000 A 
ATOM     13  C   UNL     1       0.561   9.395  21.191  0.00  0.00    +0.000 A 
ATOM     14  C   UNL     1       1.345   8.441  20.405  0.00  0.00    +0.000 A 
ATOM     15  O   UNL     1       1.623   7.332  20.837  0.00  0.00    +0.000 OA
ATOM     16  H   UNL     1       0.405  11.778  18.871  0.00  0.00    +0.000 HD
ENDBRANCH   2   5
BRANCH   3  17
ATOM     17  C   UNL     1       3.702   5.773  17.949  0.00  0.00    +0.000 C 
BRANCH  17  18
ATOM     18  C   UNL     1       3.053   4.394  17.781  0.00  0.00    +0.000 C 
ATOM     19  C   UNL     1       1.515   4.458  17.814  0.00  0.00    +0.000 C 
ATOM     20  C   UNL     1       1.184   3.597  19.035  0.00  0.00    +0.000 C 
ATOM     21  C   UNL     1       1.399   2.118  18.725  0.00  0.00    +0.000 C 
ATOM     22  C   UNL     1       2.924   2.027  18.655  0.00  0.00    +0.000 C 
ATOM     23  C   UNL     1       3.349   3.463  18.965  0.00  0.00    +0.000 C 
ATOM     24  O   UNL     1       2.314   3.866  19.900  0.00  0.00    +0.000 OA
ENDBRANCH  17  18
ENDBRANCH   3  17
TORSDOF 3
ENDMDL
MODEL 8
REMARK VINA RESULT:      -7.3      5.620      8.357
REMARK  Name = 
REMARK  3 active torsions:
REMARK  status: ('A' for Active; 'I' for Inactive)
REMARK    1  A    between atoms: C_2  and  C_12
REMARK    2  A    between atoms: N_3  and  C_4
REMARK    3  A    between atoms: C_4  and  C_5
REMARK                            x       y       z     vdW  Elec       q    Type
REMARK                         _______ _______ _______ _____ _____    ______ ____
ROOT
ATOM      1  O   UNL     1       2.257   7.725  17.671  0.00  0.00    +0.000 OA
ATOM      2  C   UNL     1       2.207   7.828  18.888  0.00  0.00    +0.000 C 
ATOM      3  N   UNL     1       2.825   6.970  19.773  0.00  0.00    +0.000 N 
ATOM      4  H   UNL     1       2.690   7.120  20.773  0.00  0.00    +0.000 HD
ENDROOT
BRANCH   2   5
ATOM      5  C   UNL     1       1.405   8.942  19.539  0.00  0.00    +0.000 A 
ATOM      6  N   UNL     1       1.238  10.033  18.835  0.00  0.00    +0.000 NA
ATOM      7  N   UNL     1       0.507  11.057  19.347  0.00  0.00    +0.000 N 
ATOM      8  C   UNL     1      -0.052  11.045  20.629  0.00  0.00    +0.000 A 
ATOM      9  C   UNL     1      -0.813  12.126  21.089  0.00  0.00    +0.000 A 
ATOM     10  C   UNL     1      -1.419  12.085  22.350  0.00  0.00    +0.000 A 
ATOM     11  C   UNL     1      -1.262  10.970  23.173  0.00  0.00    +0.000 A 
ATOM     12  C   UNL     1      -0.507   9.887  22.729  0.00  0.00    +0.000 A 
ATOM     13  C   UNL     1       0.076   9.935  21.457  0.00  0.00    +0.000 A 
ATOM     14  C   UNL     1       0.812   8.791  20.917  0.00  0.00    +0.000 A 
ATOM     15  O   UNL     1       0.904   7.740  21.535  0.00  0.00    +0.000 OA
ATOM     16  H   UNL     1       0.458  11.925  18.815  0.00  0.00    +0.000 HD
ENDBRANCH   2   5
BRANCH   3  17
ATOM     17  C   UNL     1       3.662   5.883  19.317  0.00  0.00    +0.000 C 
BRANCH  17  18
ATOM     18  C   UNL     1       3.238   4.504  19.838  0.00  0.00    +0.000 C 
ATOM     19  C   UNL     1       2.364   3.736  18.830  0.00  0.00    +0.000 C 
ATOM     20  C   UNL     1       1.056   3.563  19.605  0.00  0.00    +0.000 C 
ATOM     21  C   UNL     1       1.216   2.512  20.701  0.00  0.00    +0.000 C 
ATOM     22  C   UNL     1       2.109   3.238  21.708  0.00  0.00    +0.000 C 
ATOM     23  C   UNL     1       2.300   4.603  21.049  0.00  0.00    +0.000 C 
ATOM     24  O   UNL     1       1.018   4.779  20.391  0.00  0.00    +0.000 OA
ENDBRANCH  17  18
ENDBRANCH   3  17
TORSDOF 3
ENDMDL
MODEL 9
REMARK VINA RESULT:      -7.2      4.933      7.129
REMARK  Name = 
REMARK  3 active torsions:
REMARK  status: ('A' for Active; 'I' for Inactive)
REMARK    1  A    between atoms: C_2  and  C_12
REMARK    2  A    between atoms: N_3  and  C_4
REMARK    3  A    between atoms: C_4  and  C_5
REMARK                            x       y       z     vdW  Elec       q    Type
REMARK                         _______ _______ _______ _____ _____    ______ ____
ROOT
ATOM      1  O   UNL     1       3.506   6.600  17.233  0.00  0.00    +0.000 OA
ATOM      2  C   UNL     1       3.165   6.936  18.358  0.00  0.00    +0.000 C 
ATOM      3  N   UNL     1       3.486   6.251  19.511  0.00  0.00    +0.000 N 
ATOM      4  H   UNL     1       3.119   6.592  20.400  0.00  0.00    +0.000 HD
ENDROOT
BRANCH   2   5
ATOM      5  C   UNL     1       2.302   8.169  18.570  0.00  0.00    +0.000 A 
ATOM      6  N   UNL     1       2.243   9.021  17.579  0.00  0.00    +0.000 NA
ATOM      7  N   UNL     1       1.469  10.131  17.693  0.00  0.00    +0.000 N 
ATOM      8  C   UNL     1       0.751  10.460  18.847  0.00  0.00    +0.000 A 
ATOM      9  C   UNL     1      -0.046  11.609  18.893  0.00  0.00    +0.000 A 
ATOM     10  C   UNL     1      -0.809  11.904  20.029  0.00  0.00    +0.000 A 
ATOM     11  C   UNL     1      -0.774  11.061  21.139  0.00  0.00    +0.000 A 
ATOM     12  C   UNL     1       0.015   9.914  21.109  0.00  0.00    +0.000 A 
ATOM     13  C   UNL     1       0.756   9.622  19.958  0.00  0.00    +0.000 A 
ATOM     14  C   UNL     1       1.537   8.390  19.851  0.00  0.00    +0.000 A 
ATOM     15  O   UNL     1       1.534   7.551  20.740  0.00  0.00    +0.000 OA
ATOM     16  H   UNL     1       1.501  10.818  16.941  0.00  0.00    +0.000 HD
ENDBRANCH   2   5
BRANCH   3  17
ATOM     17  C   UNL     1       4.335   5.081  19.488  0.00  0.00    +0.000 C 
BRANCH  17  18
ATOM     18  C   UNL     1       3.575   3.753  19.590  0.00  0.00    +0.000 C 
ATOM     19  C   UNL     1       3.226   3.166  18.211  0.00  0.00    +0.000 C 
ATOM     20  C   UNL     1       1.697   3.142  18.249  0.00  0.00    +0.000 C 
ATOM     21  C   UNL     1       1.198   2.028  19.166  0.00  0.00    +0.000 C 
ATOM     22  C   UNL     1       1.560   2.571  20.550  0.00  0.00    +0.000 C 
ATOM     23  C   UNL     1       2.183   3.926  20.214  0.00  0.00    +0.000 C 
ATOM     24  O   UNL     1       1.405   4.313  19.051  0.00  0.00    +0.000 OA
ENDBRANCH  17  18
ENDBRANCH   3  17
TORSDOF 3
ENDMDL
