MODEL 1
REMARK VINA RESULT:      -7.4      0.000      0.000
REMARK  Name = 
REMARK  5 active torsions:
REMARK  status: ('A' for Active; 'I' for Inactive)
REMARK    1  A    between atoms: C_1  and  C_2
REMARK    2  A    between atoms: C_5  and  C_6
REMARK    3  A    between atoms: C_7  and  N_8
REMARK    4  A    between atoms: C_9  and  C_11
REMARK    5  A    between atoms: C_11  and  N_12
REMARK                            x       y       z     vdW  Elec       q    Type
REMARK                         _______ _______ _______ _____ _____    ______ ____
ROOT
ATOM      1  N   UNL     1       0.617  10.062  18.887  0.00  0.00    +0.000 NA
ATOM      2  C   UNL     1       1.163  11.411  19.076  0.00  0.00    +0.000 C 
ATOM      3  C   UNL     1      -0.017  12.319  18.757  0.00  0.00    +0.000 C 
ATOM      4  C   UNL     1      -1.250  11.481  19.100  0.00  0.00    +0.000 C 
ATOM      5  C   UNL     1      -0.719  10.103  19.500  0.00  0.00    +0.000 C 
ATOM      6  C   UNL     1      -2.203  11.363  17.883  0.00  0.00    +0.000 C 
ATOM      7  O   UNL     1      -1.960  10.888  16.782  0.00  0.00    +0.000 OA
ATOM      8  N   UNL     1      -3.423  11.908  18.256  0.00  0.00    +0.000 N 
ATOM      9  C   UNL     1      -3.406  12.347  19.570  0.00  0.00    +0.000 A 
ATOM     10  C   UNL     1      -4.443  12.925  20.269  0.00  0.00    +0.000 A 
ATOM     11  C   UNL     1      -4.199  13.283  21.597  0.00  0.00    +0.000 A 
ATOM     12  C   UNL     1      -2.941  13.056  22.183  0.00  0.00    +0.000 A 
ATOM     13  C   UNL     1      -1.903  12.471  21.447  0.00  0.00    +0.000 A 
ATOM     14  C   UNL     1      -2.153  12.116  20.134  0.00  0.00    +0.000 A 
ATOM     15  H   UNL     1      -4.213  11.956  17.628  0.00  0.00    +0.000 HD
ENDROOT
BRANCH   1  16
ATOM     16  C   UNL     1       1.475   9.024  19.476  0.00  0.00    +0.000 C 
BRANCH  16  18
ATOM     17  N   UNL     1       2.613   6.985  18.796  0.00  0.00    +0.000 N 
ATOM     18  C   UNL     1       2.180   8.230  18.369  0.00  0.00    +0.000 C 
ATOM     19  O   UNL     1       2.309   8.734  17.258  0.00  0.00    +0.000 OA
ATOM     20  H   UNL     1       2.371   6.743  19.752  0.00  0.00    +0.000 HD
BRANCH  17  27
ATOM     21  C   UNL     1       1.445   4.058  18.268  0.00  0.00    +0.000 C 
ATOM     22  C   UNL     1       2.710   4.679  17.797  0.00  0.00    +0.000 A 
ATOM     23  N   UNL     1       3.528   3.950  17.029  0.00  0.00    +0.000 NA
ATOM     24  N   UNL     1       4.549   4.774  16.783  0.00  0.00    +0.000 N 
ATOM     25  C   UNL     1       4.434   6.006  17.363  0.00  0.00    +0.000 A 
ATOM     26  C   UNL     1       5.501   7.010  17.145  0.00  0.00    +0.000 C 
ATOM     27  C   UNL     1       3.231   5.991  18.045  0.00  0.00    +0.000 A 
ATOM     28  H   UNL     1       5.304   4.433  16.197  0.00  0.00    +0.000 HD
ENDBRANCH  17  27
ENDBRANCH  16  18
ENDBRANCH   1  16
TORSDOF 3
ENDMDL
MODEL 2
REMARK VINA RESULT:      -7.3      0.117      1.631
REMARK  Name = 
REMARK  5 active torsions:
REMARK  status: ('A' for Active; 'I' for Inactive)
REMARK    1  A    between atoms: C_1  and  C_2
REMARK    2  A    between atoms: C_5  and  C_6
REMARK    3  A    between atoms: C_7  and  N_8
REMARK    4  A    between atoms: C_9  and  C_11
REMARK    5  A    between atoms: C_11  and  N_12
REMARK                            x       y       z     vdW  Elec       q    Type
REMARK                         _______ _______ _______ _____ _____    ______ ____
ROOT
ATOM      1  N   UNL     1       0.670  10.054  18.912  0.00  0.00    +0.000 NA
ATOM      2  C   UNL     1       1.223  11.399  19.104  0.00  0.00    +0.000 C 
ATOM      3  C   UNL     1       0.043  12.314  18.807  0.00  0.00    +0.000 C 
ATOM      4  C   UNL     1      -1.189  11.478  19.159  0.00  0.00    +0.000 C 
ATOM      5  C   UNL     1      -0.658  10.095  19.542  0.00  0.00    +0.000 C 
ATOM      6  C   UNL     1      -2.157  11.372  17.953  0.00  0.00    +0.000 C 
ATOM      7  O   UNL     1      -1.930  10.905  16.846  0.00  0.00    +0.000 OA
ATOM      8  N   UNL     1      -3.370  11.919  18.345  0.00  0.00    +0.000 N 
ATOM      9  C   UNL     1      -3.336  12.348  19.662  0.00  0.00    +0.000 A 
ATOM     10  C   UNL     1      -4.362  12.925  20.378  0.00  0.00    +0.000 A 
ATOM     11  C   UNL     1      -4.100  13.271  21.705  0.00  0.00    +0.000 A 
ATOM     12  C   UNL     1      -2.835  13.036  22.274  0.00  0.00    +0.000 A 
ATOM     13  C   UNL     1      -1.809  12.452  21.521  0.00  0.00    +0.000 A 
ATOM     14  C   UNL     1      -2.077  12.108  20.208  0.00  0.00    +0.000 A 
ATOM     15  H   UNL     1      -4.168  11.974  17.728  0.00  0.00    +0.000 HD
ENDROOT
BRANCH   1  16
ATOM     16  C   UNL     1       1.532   9.009  19.483  0.00  0.00    +0.000 C 
BRANCH  16  18
ATOM     17  N   UNL     1       2.590   6.924  18.812  0.00  0.00    +0.000 N 
ATOM     18  C   UNL     1       2.139   8.155  18.362  0.00  0.00    +0.000 C 
ATOM     19  O   UNL     1       2.188   8.606  17.223  0.00  0.00    +0.000 OA
ATOM     20  H   UNL     1       2.420   6.729  19.794  0.00  0.00    +0.000 HD
BRANCH  17  27
ATOM     21  C   UNL     1       5.420   6.996  17.330  0.00  0.00    +0.000 C 
ATOM     22  C   UNL     1       4.409   5.910  17.402  0.00  0.00    +0.000 A 
ATOM     23  N   UNL     1       4.666   4.759  16.769  0.00  0.00    +0.000 NA
ATOM     24  N   UNL     1       3.589   4.011  17.020  0.00  0.00    +0.000 N 
ATOM     25  C   UNL     1       2.639   4.628  17.785  0.00  0.00    +0.000 A 
ATOM     26  C   UNL     1       1.406   3.888  18.142  0.00  0.00    +0.000 C 
ATOM     27  C   UNL     1       3.137   5.888  18.063  0.00  0.00    +0.000 A 
ATOM     28  H   UNL     1       3.564   3.071  16.641  0.00  0.00    +0.000 HD
ENDBRANCH  17  27
ENDBRANCH  16  18
ENDBRANCH   1  16
TORSDOF 3
ENDMDL
MODEL 3
REMARK VINA RESULT:      -7.2      3.359      9.184
REMARK  Name = 
REMARK  5 active torsions:
REMARK  status: ('A' for Active; 'I' for Inactive)
REMARK    1  A    between atoms: C_1  and  C_2
REMARK    2  A    between atoms: C_5  and  C_6
REMARK    3  A    between atoms: C_7  and  N_8
REMARK    4  A    between atoms: C_9  and  C_11
REMARK    5  A    between atoms: C_11  and  N_12
REMARK                            x       y       z     vdW  Elec       q    Type
REMARK                         _______ _______ _______ _____ _____    ______ ____
ROOT
ATOM      1  N   UNL     1      -1.196  12.176  20.737  0.00  0.00    +0.000 NA
ATOM      2  C   UNL     1       0.030  12.845  20.288  0.00  0.00    +0.000 C 
ATOM      3  C   UNL     1       1.132  11.870  20.682  0.00  0.00    +0.000 C 
ATOM      4  C   UNL     1       0.455  10.498  20.662  0.00  0.00    +0.000 C 
ATOM      5  C   UNL     1      -1.020  10.766  20.358  0.00  0.00    +0.000 C 
ATOM      6  C   UNL     1       0.606   9.779  22.027  0.00  0.00    +0.000 C 
ATOM      7  O   UNL     1       0.217  10.159  23.124  0.00  0.00    +0.000 OA
ATOM      8  N   UNL     1       1.285   8.592  21.799  0.00  0.00    +0.000 N 
ATOM      9  C   UNL     1       1.578   8.421  20.456  0.00  0.00    +0.000 A 
ATOM     10  C   UNL     1       2.229   7.355  19.874  0.00  0.00    +0.000 A 
ATOM     11  C   UNL     1       2.407   7.393  18.489  0.00  0.00    +0.000 A 
ATOM     12  C   UNL     1       1.937   8.482  17.733  0.00  0.00    +0.000 A 
ATOM     13  C   UNL     1       1.282   9.554  18.352  0.00  0.00    +0.000 A 
ATOM     14  C   UNL     1       1.107   9.508  19.723  0.00  0.00    +0.000 A 
ATOM     15  H   UNL     1       1.514   7.943  22.540  0.00  0.00    +0.000 HD
ENDROOT
BRANCH   1  16
ATOM     16  C   UNL     1      -2.405  12.770  20.150  0.00  0.00    +0.000 C 
BRANCH  16  18
ATOM     17  N   UNL     1      -4.419  12.720  21.514  0.00  0.00    +0.000 N 
ATOM     18  C   UNL     1      -3.256  13.426  21.245  0.00  0.00    +0.000 C 
ATOM     19  O   UNL     1      -2.871  14.471  21.759  0.00  0.00    +0.000 OA
ATOM     20  H   UNL     1      -4.532  11.853  20.998  0.00  0.00    +0.000 HD
BRANCH  17  27
ATOM     21  C   UNL     1      -7.391  13.740  20.934  0.00  0.00    +0.000 C 
ATOM     22  C   UNL     1      -6.719  13.445  22.226  0.00  0.00    +0.000 A 
ATOM     23  N   UNL     1      -7.415  13.612  23.356  0.00  0.00    +0.000 NA
ATOM     24  N   UNL     1      -6.549  13.273  24.315  0.00  0.00    +0.000 N 
ATOM     25  C   UNL     1      -5.318  12.898  23.857  0.00  0.00    +0.000 A 
ATOM     26  C   UNL     1      -4.280  12.484  24.829  0.00  0.00    +0.000 C 
ATOM     27  C   UNL     1      -5.381  12.995  22.478  0.00  0.00    +0.000 A 
ATOM     28  H   UNL     1      -6.866  13.313  25.277  0.00  0.00    +0.000 HD
ENDBRANCH  17  27
ENDBRANCH  16  18
ENDBRANCH   1  16
TORSDOF 3
ENDMDL
MODEL 4
REMARK VINA RESULT:      -7.2      1.410      1.503
REMARK  Name = 
REMARK  5 active torsions:
REMARK  status: ('A' for Active; 'I' for Inactive)
REMARK    1  A    between atoms: C_1  and  C_2
REMARK    2  A    between atoms: C_5  and  C_6
REMARK    3  A    between atoms: C_7  and  N_8
REMARK    4  A    between atoms: C_9  and  C_11
REMARK    5  A    between atoms: C_11  and  N_12
REMARK                            x       y       z     vdW  Elec       q    Type
REMARK                         _______ _______ _______ _____ _____    ______ ____
ROOT
ATOM      1  N   UNL     1       0.829   9.459  19.509  0.00  0.00    +0.000 NA
ATOM      2  C   UNL     1       1.447  10.782  19.356  0.00  0.00    +0.000 C 
ATOM      3  C   UNL     1       0.326  11.632  18.775  0.00  0.00    +0.000 C 
ATOM      4  C   UNL     1      -0.959  10.976  19.285  0.00  0.00    +0.000 C 
ATOM      5  C   UNL     1      -0.513   9.726  20.047  0.00  0.00    +0.000 C 
ATOM      6  C   UNL     1      -1.895  10.590  18.111  0.00  0.00    +0.000 C 
ATOM      7  O   UNL     1      -1.660   9.832  17.180  0.00  0.00    +0.000 OA
ATOM      8  N   UNL     1      -3.088  11.274  18.290  0.00  0.00    +0.000 N 
ATOM      9  C   UNL     1      -3.070  12.041  19.443  0.00  0.00    +0.000 A 
ATOM     10  C   UNL     1      -4.085  12.833  19.934  0.00  0.00    +0.000 A 
ATOM     11  C   UNL     1      -3.845  13.514  21.129  0.00  0.00    +0.000 A 
ATOM     12  C   UNL     1      -2.612  13.387  21.794  0.00  0.00    +0.000 A 
ATOM     13  C   UNL     1      -1.596  12.577  21.270  0.00  0.00    +0.000 A 
ATOM     14  C   UNL     1      -1.843  11.904  20.088  0.00  0.00    +0.000 A 
ATOM     15  H   UNL     1      -3.864  11.195  17.646  0.00  0.00    +0.000 HD
ENDROOT
BRANCH   1  16
ATOM     16  C   UNL     1       1.617   8.571  20.375  0.00  0.00    +0.000 C 
BRANCH  16  18
ATOM     17  N   UNL     1       2.556   6.328  20.336  0.00  0.00    +0.000 N 
ATOM     18  C   UNL     1       2.203   7.416  19.553  0.00  0.00    +0.000 C 
ATOM     19  O   UNL     1       2.320   7.542  18.339  0.00  0.00    +0.000 OA
ATOM     20  H   UNL     1       2.341   6.413  21.325  0.00  0.00    +0.000 HD
BRANCH  17  27
ATOM     21  C   UNL     1       1.026   3.529  20.534  0.00  0.00    +0.000 C 
ATOM     22  C   UNL     1       2.374   3.843  19.995  0.00  0.00    +0.000 A 
ATOM     23  N   UNL     1       3.110   2.840  19.501  0.00  0.00    +0.000 NA
ATOM     24  N   UNL     1       4.237   3.437  19.108  0.00  0.00    +0.000 N 
ATOM     25  C   UNL     1       4.270   4.784  19.331  0.00  0.00    +0.000 A 
ATOM     26  C   UNL     1       5.467   5.556  18.921  0.00  0.00    +0.000 C 
ATOM     27  C   UNL     1       3.058   5.100  19.917  0.00  0.00    +0.000 A 
ATOM     28  H   UNL     1       4.956   2.862  18.683  0.00  0.00    +0.000 HD
ENDBRANCH  17  27
ENDBRANCH  16  18
ENDBRANCH   1  16
TORSDOF 3
ENDMDL
MODEL 5
REMARK VINA RESULT:      -7.2      1.063      1.158
REMARK  Name = 
REMARK  5 active torsions:
REMARK  status: ('A' for Active; 'I' for Inactive)
REMARK    1  A    between atoms: C_1  and  C_2
REMARK    2  A    between atoms: C_5  and  C_6
REMARK    3  A    between atoms: C_7  and  N_8
REMARK    4  A    between atoms: C_9  and  C_11
REMARK    5  A    between atoms: C_11  and  N_12
REMARK                            x       y       z     vdW  Elec       q    Type
REMARK                         _______ _______ _______ _____ _____    ______ ____
ROOT
ATOM      1  N   UNL     1       0.229  10.613  18.822  0.00  0.00    +0.000 NA
ATOM      2  C   UNL     1       0.515  12.048  18.933  0.00  0.00    +0.000 C 
ATOM      3  C   UNL     1      -0.761  12.705  18.424  0.00  0.00    +0.000 C 
ATOM      4  C   UNL     1      -1.864  11.689  18.729  0.00  0.00    +0.000 C 
ATOM      5  C   UNL     1      -1.153  10.463  19.304  0.00  0.00    +0.000 C 
ATOM      6  C   UNL     1      -2.648  11.311  17.446  0.00  0.00    +0.000 C 
ATOM      7  O   UNL     1      -2.212  10.805  16.421  0.00  0.00    +0.000 OA
ATOM      8  N   UNL     1      -3.974  11.658  17.653  0.00  0.00    +0.000 N 
ATOM      9  C   UNL     1      -4.173  12.192  18.915  0.00  0.00    +0.000 A 
ATOM     10  C   UNL     1      -5.361  12.628  19.459  0.00  0.00    +0.000 A 
ATOM     11  C   UNL     1      -5.325  13.124  20.764  0.00  0.00    +0.000 A 
ATOM     12  C   UNL     1      -4.116  13.170  21.482  0.00  0.00    +0.000 A 
ATOM     13  C   UNL     1      -2.922  12.724  20.903  0.00  0.00    +0.000 A 
ATOM     14  C   UNL     1      -2.966  12.231  19.611  0.00  0.00    +0.000 A 
ATOM     15  H   UNL     1      -4.690  11.516  16.953  0.00  0.00    +0.000 HD
ENDROOT
BRANCH   1  16
ATOM     16  C   UNL     1       1.182   9.792  19.583  0.00  0.00    +0.000 C 
BRANCH  16  18
ATOM     17  N   UNL     1       2.236   7.603  19.468  0.00  0.00    +0.000 N 
ATOM     18  C   UNL     1       1.686   8.630  18.717  0.00  0.00    +0.000 C 
ATOM     19  O   UNL     1       1.581   8.700  17.497  0.00  0.00    +0.000 OA
ATOM     20  H   UNL     1       2.191   7.727  20.475  0.00  0.00    +0.000 HD
BRANCH  17  27
ATOM     21  C   UNL     1       1.299   4.724  20.491  0.00  0.00    +0.000 C 
ATOM     22  C   UNL     1       2.310   5.089  19.465  0.00  0.00    +0.000 A 
ATOM     23  N   UNL     1       2.961   4.104  18.836  0.00  0.00    +0.000 NA
ATOM     24  N   UNL     1       3.778   4.748  17.998  0.00  0.00    +0.000 N 
ATOM     25  C   UNL     1       3.690   6.110  18.059  0.00  0.00    +0.000 A 
ATOM     26  C   UNL     1       4.539   6.930  17.164  0.00  0.00    +0.000 C 
ATOM     27  C   UNL     1       2.730   6.385  19.017  0.00  0.00    +0.000 A 
ATOM     28  H   UNL     1       4.376   4.192  17.397  0.00  0.00    +0.000 HD
ENDBRANCH  17  27
ENDBRANCH  16  18
ENDBRANCH   1  16
TORSDOF 3
ENDMDL
MODEL 6
REMARK VINA RESULT:      -7.1      2.349      8.788
REMARK  Name = 
REMARK  5 active torsions:
REMARK  status: ('A' for Active; 'I' for Inactive)
REMARK    1  A    between atoms: C_1  and  C_2
REMARK    2  A    between atoms: C_5  and  C_6
REMARK    3  A    between atoms: C_7  and  N_8
REMARK    4  A    between atoms: C_9  and  C_11
REMARK    5  A    between atoms: C_11  and  N_12
REMARK                            x       y       z     vdW  Elec       q    Type
REMARK                         _______ _______ _______ _____ _____    ______ ____
ROOT
ATOM      1  N   UNL     1       1.859   6.721  19.896  0.00  0.00    +0.000 NA
ATOM      2  C   UNL     1       2.384   5.805  20.915  0.00  0.00    +0.000 C 
ATOM      3  C   UNL     1       2.959   4.655  20.098  0.00  0.00    +0.000 C 
ATOM      4  C   UNL     1       3.349   5.292  18.762  0.00  0.00    +0.000 C 
ATOM      5  C   UNL     1       2.886   6.748  18.844  0.00  0.00    +0.000 C 
ATOM      6  C   UNL     1       2.661   4.569  17.576  0.00  0.00    +0.000 C 
ATOM      7  O   UNL     1       1.463   4.435  17.371  0.00  0.00    +0.000 OA
ATOM      8  N   UNL     1       3.663   4.075  16.754  0.00  0.00    +0.000 N 
ATOM      9  C   UNL     1       4.922   4.400  17.230  0.00  0.00    +0.000 A 
ATOM     10  C   UNL     1       6.136   4.084  16.661  0.00  0.00    +0.000 A 
ATOM     11  C   UNL     1       7.286   4.528  17.317  0.00  0.00    +0.000 A 
ATOM     12  C   UNL     1       7.193   5.266  18.511  0.00  0.00    +0.000 A 
ATOM     13  C   UNL     1       5.946   5.569  19.069  0.00  0.00    +0.000 A 
ATOM     14  C   UNL     1       4.811   5.129  18.412  0.00  0.00    +0.000 A 
ATOM     15  H   UNL     1       3.468   3.554  15.910  0.00  0.00    +0.000 HD
ENDROOT
BRANCH   1  16
ATOM     16  C   UNL     1       1.573   8.057  20.438  0.00  0.00    +0.000 C 
BRANCH  16  18
ATOM     17  N   UNL     1       0.222   9.937  19.693  0.00  0.00    +0.000 N 
ATOM     18  C   UNL     1       1.180   9.013  19.305  0.00  0.00    +0.000 C 
ATOM     19  O   UNL     1       1.703   8.886  18.204  0.00  0.00    +0.000 OA
ATOM     20  H   UNL     1      -0.054   9.895  20.669  0.00  0.00    +0.000 HD
BRANCH  17  27
ATOM     21  C   UNL     1       1.229  12.970  19.739  0.00  0.00    +0.000 C 
ATOM     22  C   UNL     1       0.137  12.339  18.953  0.00  0.00    +0.000 A 
ATOM     23  N   UNL     1      -0.569  13.108  18.116  0.00  0.00    +0.000 NA
ATOM     24  N   UNL     1      -1.451  12.263  17.576  0.00  0.00    +0.000 N 
ATOM     25  C   UNL     1      -1.352  10.978  18.030  0.00  0.00    +0.000 A 
ATOM     26  C   UNL     1      -2.269   9.948  17.489  0.00  0.00    +0.000 C 
ATOM     27  C   UNL     1      -0.314  10.978  18.944  0.00  0.00    +0.000 A 
ATOM     28  H   UNL     1      -2.100  12.629  16.888  0.00  0.00    +0.000 HD
ENDBRANCH  17  27
ENDBRANCH  16  18
ENDBRANCH   1  16
TORSDOF 3
ENDMDL
MODEL 7
REMARK VINA RESULT:      -7.1      1.803      8.769
REMARK  Name = 
REMARK  5 active torsions:
REMARK  status: ('A' for Active; 'I' for Inactive)
REMARK    1  A    between atoms: C_1  and  C_2
REMARK    2  A    between atoms: C_5  and  C_6
REMARK    3  A    between atoms: C_7  and  N_8
REMARK    4  A    between atoms: C_9  and  C_11
REMARK    5  A    between atoms: C_11  and  N_12
REMARK                            x       y       z     vdW  Elec       q    Type
REMARK                         _______ _______ _______ _____ _____    ______ ____
ROOT
ATOM      1  N   UNL     1       1.864   8.025  18.450  0.00  0.00    +0.000 NA
ATOM      2  C   UNL     1       2.472   7.758  19.759  0.00  0.00    +0.000 C 
ATOM      3  C   UNL     1       2.974   6.326  19.633  0.00  0.00    +0.000 C 
ATOM      4  C   UNL     1       3.251   6.147  18.138  0.00  0.00    +0.000 C 
ATOM      5  C   UNL     1       2.799   7.448  17.473  0.00  0.00    +0.000 C 
ATOM      6  C   UNL     1       2.464   4.941  17.564  0.00  0.00    +0.000 C 
ATOM      7  O   UNL     1       1.252   4.774  17.546  0.00  0.00    +0.000 OA
ATOM      8  N   UNL     1       3.392   4.043  17.057  0.00  0.00    +0.000 N 
ATOM      9  C   UNL     1       4.687   4.511  17.200  0.00  0.00    +0.000 A 
ATOM     10  C   UNL     1       5.848   3.888  16.798  0.00  0.00    +0.000 A 
ATOM     11  C   UNL     1       7.050   4.557  17.038  0.00  0.00    +0.000 A 
ATOM     12  C   UNL     1       7.060   5.816  17.666  0.00  0.00    +0.000 A 
ATOM     13  C   UNL     1       5.865   6.424  18.068  0.00  0.00    +0.000 A 
ATOM     14  C   UNL     1       4.678   5.757  17.824  0.00  0.00    +0.000 A 
ATOM     15  H   UNL     1       3.125   3.166  16.631  0.00  0.00    +0.000 HD
ENDROOT
BRANCH   1  16
ATOM     16  C   UNL     1       1.628   9.458  18.225  0.00  0.00    +0.000 C 
BRANCH  16  18
ATOM     17  N   UNL     1      -0.476  10.573  17.731  0.00  0.00    +0.000 N 
ATOM     18  C   UNL     1       0.213   9.837  18.682  0.00  0.00    +0.000 C 
ATOM     19  O   UNL     1      -0.172   9.491  19.793  0.00  0.00    +0.000 OA
ATOM     20  H   UNL     1       0.014  10.722  16.854  0.00  0.00    +0.000 HD
BRANCH  17  27
ATOM     21  C   UNL     1      -2.785   9.858  15.640  0.00  0.00    +0.000 C 
ATOM     22  C   UNL     1      -2.832  10.706  16.860  0.00  0.00    +0.000 A 
ATOM     23  N   UNL     1      -3.993  11.285  17.186  0.00  0.00    +0.000 NA
ATOM     24  N   UNL     1      -3.708  11.960  18.302  0.00  0.00    +0.000 N 
ATOM     25  C   UNL     1      -2.409  11.850  18.713  0.00  0.00    +0.000 A 
ATOM     26  C   UNL     1      -1.980  12.545  19.949  0.00  0.00    +0.000 C 
ATOM     27  C   UNL     1      -1.789  11.028  17.789  0.00  0.00    +0.000 A 
ATOM     28  H   UNL     1      -4.456  12.481  18.747  0.00  0.00    +0.000 HD
ENDBRANCH  17  27
ENDBRANCH  16  18
ENDBRANCH   1  16
TORSDOF 3
ENDMDL
MODEL 8
REMARK VINA RESULT:      -7.1      3.048      7.430
REMARK  Name = 
REMARK  5 active torsions:
REMARK  status: ('A' for Active; 'I' for Inactive)
REMARK    1  A    between atoms: C_1  and  C_2
REMARK    2  A    between atoms: C_5  and  C_6
REMARK    3  A    between atoms: C_7  and  N_8
REMARK    4  A    between atoms: C_9  and  C_11
REMARK    5  A    between atoms: C_11  and  N_12
REMARK                            x       y       z     vdW  Elec       q    Type
REMARK                         _______ _______ _______ _____ _____    ______ ____
ROOT
ATOM      1  N   UNL     1      -0.818  12.005  21.360  0.00  0.00    +0.000 NA
ATOM      2  C   UNL     1       0.411  12.671  20.915  0.00  0.00    +0.000 C 
ATOM      3  C   UNL     1       1.482  11.606  21.108  0.00  0.00    +0.000 C 
ATOM      4  C   UNL     1       0.734  10.279  20.963  0.00  0.00    +0.000 C 
ATOM      5  C   UNL     1      -0.741  10.649  20.797  0.00  0.00    +0.000 C 
ATOM      6  C   UNL     1       0.932   9.386  22.214  0.00  0.00    +0.000 C 
ATOM      7  O   UNL     1       0.633   9.639  23.373  0.00  0.00    +0.000 OA
ATOM      8  N   UNL     1       1.532   8.208  21.793  0.00  0.00    +0.000 N 
ATOM      9  C   UNL     1       1.732   8.198  20.423  0.00  0.00    +0.000 A 
ATOM     10  C   UNL     1       2.288   7.188  19.669  0.00  0.00    +0.000 A 
ATOM     11  C   UNL     1       2.381   7.395  18.291  0.00  0.00    +0.000 A 
ATOM     12  C   UNL     1       1.923   8.591  17.710  0.00  0.00    +0.000 A 
ATOM     13  C   UNL     1       1.366   9.603  18.502  0.00  0.00    +0.000 A 
ATOM     14  C   UNL     1       1.274   9.390  19.865  0.00  0.00    +0.000 A 
ATOM     15  H   UNL     1       1.773   7.461  22.430  0.00  0.00    +0.000 HD
ENDROOT
BRANCH   1  16
ATOM     16  C   UNL     1      -2.028  12.723  20.935  0.00  0.00    +0.000 C 
BRANCH  16  18
ATOM     17  N   UNL     1      -3.327  11.774  19.110  0.00  0.00    +0.000 N 
ATOM     18  C   UNL     1      -2.232  12.565  19.423  0.00  0.00    +0.000 C 
ATOM     19  O   UNL     1      -1.449  13.109  18.652  0.00  0.00    +0.000 OA
ATOM     20  H   UNL     1      -3.870  11.448  19.904  0.00  0.00    +0.000 HD
BRANCH  17  27
ATOM     21  C   UNL     1      -1.921   9.885  16.950  0.00  0.00    +0.000 C 
ATOM     22  C   UNL     1      -3.211  10.620  16.879  0.00  0.00    +0.000 A 
ATOM     23  N   UNL     1      -3.943  10.512  15.764  0.00  0.00    +0.000 NA
ATOM     24  N   UNL     1      -5.012  11.272  16.012  0.00  0.00    +0.000 N 
ATOM     25  C   UNL     1      -5.005  11.875  17.239  0.00  0.00    +0.000 A 
ATOM     26  C   UNL     1      -6.149  12.730  17.631  0.00  0.00    +0.000 C 
ATOM     27  C   UNL     1      -3.831  11.472  17.850  0.00  0.00    +0.000 A 
ATOM     28  H   UNL     1      -5.727  11.336  15.296  0.00  0.00    +0.000 HD
ENDBRANCH  17  27
ENDBRANCH  16  18
ENDBRANCH   1  16
TORSDOF 3
ENDMDL
MODEL 9
REMARK VINA RESULT:      -7.1      1.407      2.201
REMARK  Name = 
REMARK  5 active torsions:
REMARK  status: ('A' for Active; 'I' for Inactive)
REMARK    1  A    between atoms: C_1  and  C_2
REMARK    2  A    between atoms: C_5  and  C_6
REMARK    3  A    between atoms: C_7  and  N_8
REMARK    4  A    between atoms: C_9  and  C_11
REMARK    5  A    between atoms: C_11  and  N_12
REMARK                            x       y       z     vdW  Elec       q    Type
REMARK                         _______ _______ _______ _____ _____    ______ ____
ROOT
ATOM      1  N   UNL     1       0.883   9.460  19.430  0.00  0.00    +0.000 NA
ATOM      2  C   UNL     1       1.488  10.787  19.270  0.00  0.00    +0.000 C 
ATOM      3  C   UNL     1       0.355  11.629  18.700  0.00  0.00    +0.000 C 
ATOM      4  C   UNL     1      -0.919  10.962  19.225  0.00  0.00    +0.000 C 
ATOM      5  C   UNL     1      -0.455   9.717  19.983  0.00  0.00    +0.000 C 
ATOM      6  C   UNL     1      -1.865  10.568  18.062  0.00  0.00    +0.000 C 
ATOM      7  O   UNL     1      -1.634   9.811  17.129  0.00  0.00    +0.000 OA
ATOM      8  N   UNL     1      -3.062  11.243  18.253  0.00  0.00    +0.000 N 
ATOM      9  C   UNL     1      -3.037  12.011  19.405  0.00  0.00    +0.000 A 
ATOM     10  C   UNL     1      -4.053  12.795  19.906  0.00  0.00    +0.000 A 
ATOM     11  C   UNL     1      -3.805  13.479  21.099  0.00  0.00    +0.000 A 
ATOM     12  C   UNL     1      -2.563  13.362  21.750  0.00  0.00    +0.000 A 
ATOM     13  C   UNL     1      -1.547  12.561  21.216  0.00  0.00    +0.000 A 
ATOM     14  C   UNL     1      -1.801  11.884  20.036  0.00  0.00    +0.000 A 
ATOM     15  H   UNL     1      -3.844  11.157  17.618  0.00  0.00    +0.000 HD
ENDROOT
BRANCH   1  16
ATOM     16  C   UNL     1       1.687   8.579  20.289  0.00  0.00    +0.000 C 
BRANCH  16  18
ATOM     17  N   UNL     1       2.535   6.299  20.290  0.00  0.00    +0.000 N 
ATOM     18  C   UNL     1       2.188   7.372  19.484  0.00  0.00    +0.000 C 
ATOM     19  O   UNL     1       2.251   7.449  18.262  0.00  0.00    +0.000 OA
ATOM     20  H   UNL     1       2.371   6.429  21.284  0.00  0.00    +0.000 HD
BRANCH  17  27
ATOM     21  C   UNL     1       5.388   5.628  19.017  0.00  0.00    +0.000 C 
ATOM     22  C   UNL     1       4.248   4.728  19.331  0.00  0.00    +0.000 A 
ATOM     23  N   UNL     1       4.377   3.423  19.063  0.00  0.00    +0.000 NA
ATOM     24  N   UNL     1       3.210   2.904  19.449  0.00  0.00    +0.000 N 
ATOM     25  C   UNL     1       2.324   3.815  19.953  0.00  0.00    +0.000 A 
ATOM     26  C   UNL     1       1.001   3.350  20.430  0.00  0.00    +0.000 C 
ATOM     27  C   UNL     1       2.968   5.038  19.895  0.00  0.00    +0.000 A 
ATOM     28  H   UNL     1       3.078   1.903  19.348  0.00  0.00    +0.000 HD
ENDBRANCH  17  27
ENDBRANCH  16  18
ENDBRANCH   1  16
TORSDOF 3
ENDMDL
