MODEL 1
REMARK VINA RESULT:      -9.3      0.000      0.000
REMARK  Name = 
REMARK  7 active torsions:
REMARK  status: ('A' for Active; 'I' for Inactive)
REMARK    1  A    between atoms: C_1  and  C_2
REMARK    2  A    between atoms: C_2  and  O_3
REMARK    3  A    between atoms: O_3  and  C_4
REMARK    4  A    between atoms: C_7  and  O_8
REMARK    5  A    between atoms: O_8  and  C_9
REMARK    6  A    between atoms: C_14  and  N_15
REMARK    7  A    between atoms: C_16  and  C_18
REMARK                            x       y       z     vdW  Elec       q    Type
REMARK                         _______ _______ _______ _____ _____    ______ ____
ROOT
ATOM      1  C   UNL     1       2.246   4.947  19.683  0.00  0.00    +0.000 A 
ATOM      2  C   UNL     1       1.300   4.441  20.582  0.00  0.00    +0.000 A 
ATOM      3  C   UNL     1       0.538   3.326  20.257  0.00  0.00    +0.000 A 
ATOM      4  C   UNL     1       0.746   2.673  19.045  0.00  0.00    +0.000 A 
ATOM      5  C   UNL     1       1.764   3.092  18.190  0.00  0.00    +0.000 A 
ATOM      6  C   UNL     1       2.541   4.205  18.509  0.00  0.00    +0.000 A 
ENDROOT
BRANCH   6   7
ATOM      7  N   UNL     1       3.626   4.592  17.705  0.00  0.00    +0.000 N 
ATOM      8  C   UNL     1       4.530   3.811  16.951  0.00  0.00    +0.000 C 
ATOM      9  O   UNL     1       4.597   2.595  16.859  0.00  0.00    +0.000 OA
ATOM     10  H   UNL     1       3.798   5.593  17.733  0.00  0.00    +0.000 HD
BRANCH   8  11
ATOM     11  C   UNL     1       5.438   4.764  16.208  0.00  0.00    +0.000 C 
ATOM     12  C   UNL     1       5.418   6.282  16.128  0.00  0.00    +0.000 C 
ATOM     13  C   UNL     1       6.932   6.572  16.149  0.00  0.00    +0.000 C 
ATOM     14  O   UNL     1       7.462   7.397  16.882  0.00  0.00    +0.000 OA
ATOM     15  N   UNL     1       7.691   5.747  15.300  0.00  0.00    +0.000 N 
ATOM     16  C   UNL     1       7.063   4.852  14.408  0.00  0.00    +0.000 A 
ATOM     17  C   UNL     1       7.561   4.595  13.143  0.00  0.00    +0.000 A 
ATOM     18  C   UNL     1       6.713   3.992  12.210  0.00  0.00    +0.000 A 
ATOM     19  C   UNL     1       5.417   3.589  12.566  0.00  0.00    +0.000 A 
ATOM     20  C   UNL     1       4.964   3.750  13.873  0.00  0.00    +0.000 A 
ATOM     21  C   UNL     1       5.805   4.366  14.796  0.00  0.00    +0.000 A 
ATOM     22  H   UNL     1       8.700   5.806  15.358  0.00  0.00    +0.000 HD
ENDBRANCH   8  11
ENDBRANCH   6   7
BRANCH   1  23
ATOM     23  O   UNL     1       2.907   6.143  19.947  0.00  0.00    +0.000 OA
BRANCH  23  27
ATOM     24  C   UNL     1       1.054   9.764  18.794  0.00  0.00    +0.000 A 
ATOM     25  C   UNL     1       1.737   8.977  17.867  0.00  0.00    +0.000 A 
ATOM     26  C   UNL     1       2.336   7.756  18.276  0.00  0.00    +0.000 A 
ATOM     27  C   UNL     1       2.259   7.326  19.608  0.00  0.00    +0.000 A 
ATOM     28  C   UNL     1       1.500   8.088  20.506  0.00  0.00    +0.000 A 
ATOM     29  C   UNL     1       0.954   9.312  20.112  0.00  0.00    +0.000 A 
BRANCH  24  30
ATOM     30  O   UNL     1       0.449  10.969  18.565  0.00  0.00    +0.000 OA
BRANCH  30  32
ATOM     31  C   UNL     1       2.178  12.615  18.482  0.00  0.00    +0.000 C 
ATOM     32  C   UNL     1       0.957  12.118  19.243  0.00  0.00    +0.000 C 
ENDBRANCH  30  32
ENDBRANCH  24  30
ENDBRANCH  23  27
ENDBRANCH   1  23
TORSDOF 6
ENDMDL
MODEL 2
REMARK VINA RESULT:      -9.2      0.757      1.241
REMARK  Name = 
REMARK  7 active torsions:
REMARK  status: ('A' for Active; 'I' for Inactive)
REMARK    1  A    between atoms: C_1  and  C_2
REMARK    2  A    between atoms: C_2  and  O_3
REMARK    3  A    between atoms: O_3  and  C_4
REMARK    4  A    between atoms: C_7  and  O_8
REMARK    5  A    between atoms: O_8  and  C_9
REMARK    6  A    between atoms: C_14  and  N_15
REMARK    7  A    between atoms: C_16  and  C_18
REMARK                            x       y       z     vdW  Elec       q    Type
REMARK                         _______ _______ _______ _____ _____    ______ ____
ROOT
ATOM      1  C   UNL     1       2.243   4.860  19.704  0.00  0.00    +0.000 A 
ATOM      2  C   UNL     1       1.300   4.337  20.597  0.00  0.00    +0.000 A 
ATOM      3  C   UNL     1       0.533   3.232  20.249  0.00  0.00    +0.000 A 
ATOM      4  C   UNL     1       0.731   2.608  19.021  0.00  0.00    +0.000 A 
ATOM      5  C   UNL     1       1.746   3.044  18.170  0.00  0.00    +0.000 A 
ATOM      6  C   UNL     1       2.529   4.146  18.511  0.00  0.00    +0.000 A 
ENDROOT
BRANCH   6   7
ATOM      7  N   UNL     1       3.611   4.548  17.711  0.00  0.00    +0.000 N 
ATOM      8  C   UNL     1       4.515   3.782  16.943  0.00  0.00    +0.000 C 
ATOM      9  O   UNL     1       4.584   2.568  16.832  0.00  0.00    +0.000 OA
ATOM     10  H   UNL     1       3.781   5.549  17.756  0.00  0.00    +0.000 HD
BRANCH   8  11
ATOM     11  C   UNL     1       5.419   4.749  16.213  0.00  0.00    +0.000 C 
ATOM     12  C   UNL     1       5.383   6.267  16.141  0.00  0.00    +0.000 C 
ATOM     13  C   UNL     1       6.894   6.573  16.177  0.00  0.00    +0.000 C 
ATOM     14  O   UNL     1       7.409   7.400  16.920  0.00  0.00    +0.000 OA
ATOM     15  N   UNL     1       7.669   5.761  15.331  0.00  0.00    +0.000 N 
ATOM     16  C   UNL     1       7.059   4.864  14.429  0.00  0.00    +0.000 A 
ATOM     17  C   UNL     1       7.571   4.619  13.166  0.00  0.00    +0.000 A 
ATOM     18  C   UNL     1       6.738   4.012  12.223  0.00  0.00    +0.000 A 
ATOM     19  C   UNL     1       5.444   3.593  12.565  0.00  0.00    +0.000 A 
ATOM     20  C   UNL     1       4.977   3.742  13.869  0.00  0.00    +0.000 A 
ATOM     21  C   UNL     1       5.803   4.362  14.803  0.00  0.00    +0.000 A 
ATOM     22  H   UNL     1       8.678   5.830  15.398  0.00  0.00    +0.000 HD
ENDBRANCH   8  11
ENDBRANCH   6   7
BRANCH   1  23
ATOM     23  O   UNL     1       2.910   6.048  19.994  0.00  0.00    +0.000 OA
BRANCH  23  27
ATOM     24  C   UNL     1       0.928   9.643  18.984  0.00  0.00    +0.000 A 
ATOM     25  C   UNL     1       0.908   9.151  20.288  0.00  0.00    +0.000 A 
ATOM     26  C   UNL     1       1.596   7.950  20.605  0.00  0.00    +0.000 A 
ATOM     27  C   UNL     1       2.297   7.239  19.621  0.00  0.00    +0.000 A 
ATOM     28  C   UNL     1       2.375   7.791  18.336  0.00  0.00    +0.000 A 
ATOM     29  C   UNL     1       1.656   8.947  18.016  0.00  0.00    +0.000 A 
BRANCH  24  30
ATOM     30  O   UNL     1       0.299  10.763  18.515  0.00  0.00    +0.000 OA
BRANCH  30  32
ATOM     31  C   UNL     1      -1.636  11.835  19.415  0.00  0.00    +0.000 C 
ATOM     32  C   UNL     1      -1.127  10.763  18.462  0.00  0.00    +0.000 C 
ENDBRANCH  30  32
ENDBRANCH  24  30
ENDBRANCH  23  27
ENDBRANCH   1  23
TORSDOF 6
ENDMDL
MODEL 3
REMARK VINA RESULT:      -9.2      1.146      1.615
REMARK  Name = 
REMARK  7 active torsions:
REMARK  status: ('A' for Active; 'I' for Inactive)
REMARK    1  A    between atoms: C_1  and  C_2
REMARK    2  A    between atoms: C_2  and  O_3
REMARK    3  A    between atoms: O_3  and  C_4
REMARK    4  A    between atoms: C_7  and  O_8
REMARK    5  A    between atoms: O_8  and  C_9
REMARK    6  A    between atoms: C_14  and  N_15
REMARK    7  A    between atoms: C_16  and  C_18
REMARK                            x       y       z     vdW  Elec       q    Type
REMARK                         _______ _______ _______ _____ _____    ______ ____
ROOT
ATOM      1  C   UNL     1       2.050   4.774  19.980  0.00  0.00    +0.000 A 
ATOM      2  C   UNL     1       1.055   4.075  20.673  0.00  0.00    +0.000 A 
ATOM      3  C   UNL     1       0.419   2.985  20.092  0.00  0.00    +0.000 A 
ATOM      4  C   UNL     1       0.802   2.552  18.826  0.00  0.00    +0.000 A 
ATOM      5  C   UNL     1       1.871   3.163  18.171  0.00  0.00    +0.000 A 
ATOM      6  C   UNL     1       2.523   4.252  18.748  0.00  0.00    +0.000 A 
ENDROOT
BRANCH   6   7
ATOM      7  N   UNL     1       3.655   4.827  18.146  0.00  0.00    +0.000 N 
ATOM      8  C   UNL     1       5.027   4.539  18.317  0.00  0.00    +0.000 C 
ATOM      9  O   UNL     1       5.551   3.736  19.074  0.00  0.00    +0.000 OA
ATOM     10  H   UNL     1       3.423   5.607  17.538  0.00  0.00    +0.000 HD
BRANCH   8  11
ATOM     11  C   UNL     1       5.794   5.407  17.345  0.00  0.00    +0.000 C 
ATOM     12  C   UNL     1       5.716   6.903  17.088  0.00  0.00    +0.000 C 
ATOM     13  C   UNL     1       7.209   7.214  16.861  0.00  0.00    +0.000 C 
ATOM     14  O   UNL     1       7.810   8.131  17.408  0.00  0.00    +0.000 OA
ATOM     15  N   UNL     1       7.869   6.302  16.019  0.00  0.00    +0.000 N 
ATOM     16  C   UNL     1       7.152   5.295  15.338  0.00  0.00    +0.000 A 
ATOM     17  C   UNL     1       7.479   4.892  14.055  0.00  0.00    +0.000 A 
ATOM     18  C   UNL     1       6.530   4.167  13.330  0.00  0.00    +0.000 A 
ATOM     19  C   UNL     1       5.309   3.793  13.910  0.00  0.00    +0.000 A 
ATOM     20  C   UNL     1       5.035   4.107  15.239  0.00  0.00    +0.000 A 
ATOM     21  C   UNL     1       5.976   4.843  15.954  0.00  0.00    +0.000 A 
ATOM     22  H   UNL     1       8.875   6.381  15.927  0.00  0.00    +0.000 HD
ENDBRANCH   8  11
ENDBRANCH   6   7
BRANCH   1  23
ATOM     23  O   UNL     1       2.588   5.948  20.502  0.00  0.00    +0.000 OA
BRANCH  23  27
ATOM     24  C   UNL     1       0.854   9.591  19.241  0.00  0.00    +0.000 A 
ATOM     25  C   UNL     1       0.650   9.105  20.532  0.00  0.00    +0.000 A 
ATOM     26  C   UNL     1       1.257   7.887  20.937  0.00  0.00    +0.000 A 
ATOM     27  C   UNL     1       2.061   7.154  20.053  0.00  0.00    +0.000 A 
ATOM     28  C   UNL     1       2.321   7.699  18.789  0.00  0.00    +0.000 A 
ATOM     29  C   UNL     1       1.683   8.872  18.377  0.00  0.00    +0.000 A 
BRANCH  24  30
ATOM     30  O   UNL     1       0.322  10.727  18.695  0.00  0.00    +0.000 OA
BRANCH  30  32
ATOM     31  C   UNL     1      -1.933  10.284  18.047  0.00  0.00    +0.000 C 
ATOM     32  C   UNL     1      -1.032  11.053  19.003  0.00  0.00    +0.000 C 
ENDBRANCH  30  32
ENDBRANCH  24  30
ENDBRANCH  23  27
ENDBRANCH   1  23
TORSDOF 6
ENDMDL
MODEL 4
REMARK VINA RESULT:      -8.9      1.679      3.149
REMARK  Name = 
REMARK  7 active torsions:
REMARK  status: ('A' for Active; 'I' for Inactive)
REMARK    1  A    between atoms: C_1  and  C_2
REMARK    2  A    between atoms: C_2  and  O_3
REMARK    3  A    between atoms: O_3  and  C_4
REMARK    4  A    between atoms: C_7  and  O_8
REMARK    5  A    between atoms: O_8  and  C_9
REMARK    6  A    between atoms: C_14  and  N_15
REMARK    7  A    between atoms: C_16  and  C_18
REMARK                            x       y       z     vdW  Elec       q    Type
REMARK                         _______ _______ _______ _____ _____    ______ ____
ROOT
ATOM      1  C   UNL     1       2.103   4.644  19.844  0.00  0.00    +0.000 A 
ATOM      2  C   UNL     1       1.013   4.138  20.563  0.00  0.00    +0.000 A 
ATOM      3  C   UNL     1       0.284   3.059  20.079  0.00  0.00    +0.000 A 
ATOM      4  C   UNL     1       0.664   2.442  18.890  0.00  0.00    +0.000 A 
ATOM      5  C   UNL     1       1.815   2.858  18.223  0.00  0.00    +0.000 A 
ATOM      6  C   UNL     1       2.561   3.934  18.704  0.00  0.00    +0.000 A 
ENDROOT
BRANCH   6   7
ATOM      7  N   UNL     1       3.769   4.313  18.097  0.00  0.00    +0.000 N 
ATOM      8  C   UNL     1       5.090   3.875  18.337  0.00  0.00    +0.000 C 
ATOM      9  O   UNL     1       5.491   3.080  19.172  0.00  0.00    +0.000 OA
ATOM     10  H   UNL     1       3.650   5.063  17.421  0.00  0.00    +0.000 HD
BRANCH   8  11
ATOM     11  C   UNL     1       5.982   4.558  17.325  0.00  0.00    +0.000 C 
ATOM     12  C   UNL     1       6.891   3.969  16.258  0.00  0.00    +0.000 C 
ATOM     13  C   UNL     1       6.658   4.981  15.119  0.00  0.00    +0.000 C 
ATOM     14  O   UNL     1       6.400   4.666  13.963  0.00  0.00    +0.000 OA
ATOM     15  N   UNL     1       6.687   6.327  15.525  0.00  0.00    +0.000 N 
ATOM     16  C   UNL     1       7.056   6.678  16.840  0.00  0.00    +0.000 A 
ATOM     17  C   UNL     1       7.796   7.814  17.124  0.00  0.00    +0.000 A 
ATOM     18  C   UNL     1       8.414   7.903  18.374  0.00  0.00    +0.000 A 
ATOM     19  C   UNL     1       8.231   6.906  19.343  0.00  0.00    +0.000 A 
ATOM     20  C   UNL     1       7.394   5.822  19.089  0.00  0.00    +0.000 A 
ATOM     21  C   UNL     1       6.792   5.728  17.837  0.00  0.00    +0.000 A 
ATOM     22  H   UNL     1       6.422   7.033  14.849  0.00  0.00    +0.000 HD
ENDBRANCH   8  11
ENDBRANCH   6   7
BRANCH   1  23
ATOM     23  O   UNL     1       2.745   5.809  20.256  0.00  0.00    +0.000 OA
BRANCH  23  27
ATOM     24  C   UNL     1       1.070   9.478  18.991  0.00  0.00    +0.000 A 
ATOM     25  C   UNL     1       0.936   9.041  20.308  0.00  0.00    +0.000 A 
ATOM     26  C   UNL     1       1.523   7.813  20.712  0.00  0.00    +0.000 A 
ATOM     27  C   UNL     1       2.236   7.020  19.802  0.00  0.00    +0.000 A 
ATOM     28  C   UNL     1       2.429   7.515  18.505  0.00  0.00    +0.000 A 
ATOM     29  C   UNL     1       1.809   8.699  18.098  0.00  0.00    +0.000 A 
BRANCH  24  30
ATOM     30  O   UNL     1       0.546  10.617  18.443  0.00  0.00    +0.000 OA
BRANCH  30  32
ATOM     31  C   UNL     1      -1.619  10.184  17.532  0.00  0.00    +0.000 C 
ATOM     32  C   UNL     1      -0.843  10.882  18.639  0.00  0.00    +0.000 C 
ENDBRANCH  30  32
ENDBRANCH  24  30
ENDBRANCH  23  27
ENDBRANCH   1  23
TORSDOF 6
ENDMDL
MODEL 5
REMARK VINA RESULT:      -8.7      1.500      2.761
REMARK  Name = 
REMARK  7 active torsions:
REMARK  status: ('A' for Active; 'I' for Inactive)
REMARK    1  A    between atoms: C_1  and  C_2
REMARK    2  A    between atoms: C_2  and  O_3
REMARK    3  A    between atoms: O_3  and  C_4
REMARK    4  A    between atoms: C_7  and  O_8
REMARK    5  A    between atoms: O_8  and  C_9
REMARK    6  A    between atoms: C_14  and  N_15
REMARK    7  A    between atoms: C_16  and  C_18
REMARK                            x       y       z     vdW  Elec       q    Type
REMARK                         _______ _______ _______ _____ _____    ______ ____
ROOT
ATOM      1  C   UNL     1       2.306   4.724  19.783  0.00  0.00    +0.000 A 
ATOM      2  C   UNL     1       1.302   4.363  20.689  0.00  0.00    +0.000 A 
ATOM      3  C   UNL     1       0.492   3.261  20.447  0.00  0.00    +0.000 A 
ATOM      4  C   UNL     1       0.706   2.477  19.317  0.00  0.00    +0.000 A 
ATOM      5  C   UNL     1       1.776   2.753  18.467  0.00  0.00    +0.000 A 
ATOM      6  C   UNL     1       2.601   3.852  18.703  0.00  0.00    +0.000 A 
ENDROOT
BRANCH   6   7
ATOM      7  N   UNL     1       3.734   4.098  17.910  0.00  0.00    +0.000 N 
ATOM      8  C   UNL     1       4.543   3.208  17.170  0.00  0.00    +0.000 C 
ATOM      9  O   UNL     1       4.461   1.992  17.085  0.00  0.00    +0.000 OA
ATOM     10  H   UNL     1       4.028   5.070  17.937  0.00  0.00    +0.000 HD
BRANCH   8  11
ATOM     11  C   UNL     1       5.570   4.038  16.434  0.00  0.00    +0.000 C 
ATOM     12  C   UNL     1       6.607   3.631  15.400  0.00  0.00    +0.000 C 
ATOM     13  C   UNL     1       6.539   4.849  14.457  0.00  0.00    +0.000 C 
ATOM     14  O   UNL     1       6.435   4.769  13.240  0.00  0.00    +0.000 OA
ATOM     15  N   UNL     1       6.528   6.091  15.117  0.00  0.00    +0.000 N 
ATOM     16  C   UNL     1       6.722   6.172  16.512  0.00  0.00    +0.000 A 
ATOM     17  C   UNL     1       7.428   7.205  17.103  0.00  0.00    +0.000 A 
ATOM     18  C   UNL     1       7.875   7.032  18.416  0.00  0.00    +0.000 A 
ATOM     19  C   UNL     1       7.553   5.876  19.142  0.00  0.00    +0.000 A 
ATOM     20  C   UNL     1       6.746   4.891  18.577  0.00  0.00    +0.000 A 
ATOM     21  C   UNL     1       6.316   5.059  17.263  0.00  0.00    +0.000 A 
ATOM     22  H   UNL     1       6.363   6.922  14.562  0.00  0.00    +0.000 HD
ENDBRANCH   8  11
ENDBRANCH   6   7
BRANCH   1  23
ATOM     23  O   UNL     1       3.022   5.906  19.953  0.00  0.00    +0.000 OA
BRANCH  23  27
ATOM     24  C   UNL     1       1.232   9.551  18.776  0.00  0.00    +0.000 A 
ATOM     25  C   UNL     1       1.943   8.770  17.865  0.00  0.00    +0.000 A 
ATOM     26  C   UNL     1       2.520   7.541  18.281  0.00  0.00    +0.000 A 
ATOM     27  C   UNL     1       2.394   7.097  19.605  0.00  0.00    +0.000 A 
ATOM     28  C   UNL     1       1.608   7.854  20.484  0.00  0.00    +0.000 A 
ATOM     29  C   UNL     1       1.083   9.085  20.084  0.00  0.00    +0.000 A 
BRANCH  24  30
ATOM     30  O   UNL     1       0.643  10.762  18.539  0.00  0.00    +0.000 OA
BRANCH  30  32
ATOM     31  C   UNL     1      -1.618  10.459  17.832  0.00  0.00    +0.000 C 
ATOM     32  C   UNL     1      -0.710  10.946  18.952  0.00  0.00    +0.000 C 
ENDBRANCH  30  32
ENDBRANCH  24  30
ENDBRANCH  23  27
ENDBRANCH   1  23
TORSDOF 6
ENDMDL
MODEL 6
REMARK VINA RESULT:      -8.4      1.381      2.811
REMARK  Name = 
REMARK  7 active torsions:
REMARK  status: ('A' for Active; 'I' for Inactive)
REMARK    1  A    between atoms: C_1  and  C_2
REMARK    2  A    between atoms: C_2  and  O_3
REMARK    3  A    between atoms: O_3  and  C_4
REMARK    4  A    between atoms: C_7  and  O_8
REMARK    5  A    between atoms: O_8  and  C_9
REMARK    6  A    between atoms: C_14  and  N_15
REMARK    7  A    between atoms: C_16  and  C_18
REMARK                            x       y       z     vdW  Elec       q    Type
REMARK                         _______ _______ _______ _____ _____    ______ ____
ROOT
ATOM      1  C   UNL     1       2.209   4.807  19.689  0.00  0.00    +0.000 A 
ATOM      2  C   UNL     1       1.158   4.459  20.546  0.00  0.00    +0.000 A 
ATOM      3  C   UNL     1       0.333   3.380  20.254  0.00  0.00    +0.000 A 
ATOM      4  C   UNL     1       0.578   2.606  19.123  0.00  0.00    +0.000 A 
ATOM      5  C   UNL     1       1.690   2.867  18.324  0.00  0.00    +0.000 A 
ATOM      6  C   UNL     1       2.530   3.942  18.611  0.00  0.00    +0.000 A 
ENDROOT
BRANCH   6   7
ATOM      7  N   UNL     1       3.702   4.170  17.871  0.00  0.00    +0.000 N 
ATOM      8  C   UNL     1       4.573   3.259  17.233  0.00  0.00    +0.000 C 
ATOM      9  O   UNL     1       4.523   2.039  17.216  0.00  0.00    +0.000 OA
ATOM     10  H   UNL     1       3.972   5.149  17.856  0.00  0.00    +0.000 HD
BRANCH   8  11
ATOM     11  C   UNL     1       5.622   4.071  16.509  0.00  0.00    +0.000 C 
ATOM     12  C   UNL     1       6.651   3.649  15.473  0.00  0.00    +0.000 C 
ATOM     13  C   UNL     1       6.617   4.879  14.544  0.00  0.00    +0.000 C 
ATOM     14  O   UNL     1       6.514   4.816  13.325  0.00  0.00    +0.000 OA
ATOM     15  N   UNL     1       6.635   6.113  15.217  0.00  0.00    +0.000 N 
ATOM     16  C   UNL     1       6.827   6.174  16.613  0.00  0.00    +0.000 A 
ATOM     17  C   UNL     1       7.558   7.182  17.218  0.00  0.00    +0.000 A 
ATOM     18  C   UNL     1       7.997   6.983  18.530  0.00  0.00    +0.000 A 
ATOM     19  C   UNL     1       7.643   5.828  19.242  0.00  0.00    +0.000 A 
ATOM     20  C   UNL     1       6.814   4.871  18.664  0.00  0.00    +0.000 A 
ATOM     21  C   UNL     1       6.392   5.063  17.351  0.00  0.00    +0.000 A 
ATOM     22  H   UNL     1       6.493   6.955  14.671  0.00  0.00    +0.000 HD
ENDBRANCH   8  11
ENDBRANCH   6   7
BRANCH   1  23
ATOM     23  O   UNL     1       2.945   5.969  19.906  0.00  0.00    +0.000 OA
BRANCH  23  27
ATOM     24  C   UNL     1       1.034   9.624  18.978  0.00  0.00    +0.000 A 
ATOM     25  C   UNL     1       1.006   9.104  20.271  0.00  0.00    +0.000 A 
ATOM     26  C   UNL     1       1.671   7.883  20.561  0.00  0.00    +0.000 A 
ATOM     27  C   UNL     1       2.356   7.180  19.560  0.00  0.00    +0.000 A 
ATOM     28  C   UNL     1       2.442   7.758  18.287  0.00  0.00    +0.000 A 
ATOM     29  C   UNL     1       1.746   8.934  17.994  0.00  0.00    +0.000 A 
BRANCH  24  30
ATOM     30  O   UNL     1       0.427  10.767  18.535  0.00  0.00    +0.000 OA
BRANCH  30  32
ATOM     31  C   UNL     1       0.324  12.680  19.961  0.00  0.00    +0.000 C 
ATOM     32  C   UNL     1       1.061  12.016  18.806  0.00  0.00    +0.000 C 
ENDBRANCH  30  32
ENDBRANCH  24  30
ENDBRANCH  23  27
ENDBRANCH   1  23
TORSDOF 6
ENDMDL
MODEL 7
REMARK VINA RESULT:      -8.3      2.416      7.663
REMARK  Name = 
REMARK  7 active torsions:
REMARK  status: ('A' for Active; 'I' for Inactive)
REMARK    1  A    between atoms: C_1  and  C_2
REMARK    2  A    between atoms: C_2  and  O_3
REMARK    3  A    between atoms: O_3  and  C_4
REMARK    4  A    between atoms: C_7  and  O_8
REMARK    5  A    between atoms: O_8  and  C_9
REMARK    6  A    between atoms: C_14  and  N_15
REMARK    7  A    between atoms: C_16  and  C_18
REMARK                            x       y       z     vdW  Elec       q    Type
REMARK                         _______ _______ _______ _____ _____    ______ ____
ROOT
ATOM      1  C   UNL     1       3.338   4.680  19.791  0.00  0.00    +0.000 A 
ATOM      2  C   UNL     1       3.638   3.391  19.337  0.00  0.00    +0.000 A 
ATOM      3  C   UNL     1       2.766   2.335  19.576  0.00  0.00    +0.000 A 
ATOM      4  C   UNL     1       1.561   2.565  20.233  0.00  0.00    +0.000 A 
ATOM      5  C   UNL     1       1.194   3.863  20.587  0.00  0.00    +0.000 A 
ATOM      6  C   UNL     1       2.055   4.932  20.344  0.00  0.00    +0.000 A 
ENDROOT
BRANCH   6   7
ATOM      7  N   UNL     1       1.669   6.255  20.613  0.00  0.00    +0.000 N 
ATOM      8  C   UNL     1       1.696   7.401  19.788  0.00  0.00    +0.000 C 
ATOM      9  O   UNL     1       2.108   7.509  18.644  0.00  0.00    +0.000 OA
ATOM     10  H   UNL     1       1.382   6.392  21.578  0.00  0.00    +0.000 HD
BRANCH   8  11
ATOM     11  C   UNL     1       1.076   8.536  20.572  0.00  0.00    +0.000 C 
ATOM     12  C   UNL     1       0.097   8.509  21.735  0.00  0.00    +0.000 C 
ATOM     13  C   UNL     1       0.655   9.671  22.581  0.00  0.00    +0.000 C 
ATOM     14  O   UNL     1       0.876   9.599  23.784  0.00  0.00    +0.000 OA
ATOM     15  N   UNL     1       0.972  10.825  21.843  0.00  0.00    +0.000 N 
ATOM     16  C   UNL     1       0.645  10.921  20.474  0.00  0.00    +0.000 A 
ATOM     17  C   UNL     1       0.228  12.106  19.893  0.00  0.00    +0.000 A 
ATOM     18  C   UNL     1      -0.406  12.044  18.649  0.00  0.00    +0.000 A 
ATOM     19  C   UNL     1      -0.550  10.825  17.972  0.00  0.00    +0.000 A 
ATOM     20  C   UNL     1      -0.027   9.653  18.513  0.00  0.00    +0.000 A 
ATOM     21  C   UNL     1       0.589   9.715  19.760  0.00  0.00    +0.000 A 
ATOM     22  H   UNL     1       1.453  11.578  22.320  0.00  0.00    +0.000 HD
ENDBRANCH   8  11
ENDBRANCH   6   7
BRANCH   1  23
ATOM     23  O   UNL     1       4.271   5.707  19.676  0.00  0.00    +0.000 OA
BRANCH  23  27
ATOM     24  C   UNL     1       6.727   5.600  16.237  0.00  0.00    +0.000 A 
ATOM     25  C   UNL     1       5.386   5.972  16.153  0.00  0.00    +0.000 A 
ATOM     26  C   UNL     1       4.587   6.017  17.326  0.00  0.00    +0.000 A 
ATOM     27  C   UNL     1       5.123   5.684  18.578  0.00  0.00    +0.000 A 
ATOM     28  C   UNL     1       6.492   5.393  18.654  0.00  0.00    +0.000 A 
ATOM     29  C   UNL     1       7.263   5.302  17.492  0.00  0.00    +0.000 A 
BRANCH  24  30
ATOM     30  O   UNL     1       7.616   5.483  15.204  0.00  0.00    +0.000 OA
BRANCH  30  32
ATOM     31  C   UNL     1       7.992   5.411  12.847  0.00  0.00    +0.000 C 
ATOM     32  C   UNL     1       7.175   4.852  14.003  0.00  0.00    +0.000 C 
ENDBRANCH  30  32
ENDBRANCH  24  30
ENDBRANCH  23  27
ENDBRANCH   1  23
TORSDOF 6
ENDMDL
MODEL 8
REMARK VINA RESULT:      -7.9      3.159      5.733
REMARK  Name = 
REMARK  7 active torsions:
REMARK  status: ('A' for Active; 'I' for Inactive)
REMARK    1  A    between atoms: C_1  and  C_2
REMARK    2  A    between atoms: C_2  and  O_3
REMARK    3  A    between atoms: O_3  and  C_4
REMARK    4  A    between atoms: C_7  and  O_8
REMARK    5  A    between atoms: O_8  and  C_9
REMARK    6  A    between atoms: C_14  and  N_15
REMARK    7  A    between atoms: C_16  and  C_18
REMARK                            x       y       z     vdW  Elec       q    Type
REMARK                         _______ _______ _______ _____ _____    ______ ____
ROOT
ATOM      1  C   UNL     1       0.206   9.961  20.212  0.00  0.00    +0.000 A 
ATOM      2  C   UNL     1      -0.394  10.950  21.000  0.00  0.00    +0.000 A 
ATOM      3  C   UNL     1      -0.457  10.815  22.382  0.00  0.00    +0.000 A 
ATOM      4  C   UNL     1       0.122   9.708  22.997  0.00  0.00    +0.000 A 
ATOM      5  C   UNL     1       0.826   8.774  22.239  0.00  0.00    +0.000 A 
ATOM      6  C   UNL     1       0.903   8.903  20.853  0.00  0.00    +0.000 A 
ENDROOT
BRANCH   6   7
ATOM      7  N   UNL     1       1.678   8.023  20.080  0.00  0.00    +0.000 N 
ATOM      8  C   UNL     1       1.968   6.653  20.269  0.00  0.00    +0.000 C 
ATOM      9  O   UNL     1       1.636   5.922  21.189  0.00  0.00    +0.000 OA
ATOM     10  H   UNL     1       2.134   8.484  19.299  0.00  0.00    +0.000 HD
BRANCH   8  11
ATOM     11  C   UNL     1       2.776   6.195  19.076  0.00  0.00    +0.000 C 
ATOM     12  C   UNL     1       3.003   6.858  17.728  0.00  0.00    +0.000 C 
ATOM     13  C   UNL     1       4.485   6.498  17.498  0.00  0.00    +0.000 C 
ATOM     14  O   UNL     1       5.343   7.305  17.163  0.00  0.00    +0.000 OA
ATOM     15  N   UNL     1       4.806   5.159  17.783  0.00  0.00    +0.000 N 
ATOM     16  C   UNL     1       3.797   4.224  18.098  0.00  0.00    +0.000 A 
ATOM     17  C   UNL     1       3.853   2.906  17.680  0.00  0.00    +0.000 A 
ATOM     18  C   UNL     1       2.678   2.150  17.721  0.00  0.00    +0.000 A 
ATOM     19  C   UNL     1       1.491   2.688  18.241  0.00  0.00    +0.000 A 
ATOM     20  C   UNL     1       1.473   3.979  18.762  0.00  0.00    +0.000 A 
ATOM     21  C   UNL     1       2.641   4.735  18.705  0.00  0.00    +0.000 A 
ATOM     22  H   UNL     1       5.782   4.891  17.768  0.00  0.00    +0.000 HD
ENDBRANCH   8  11
ENDBRANCH   6   7
BRANCH   1  23
ATOM     23  O   UNL     1       0.144  10.027  18.823  0.00  0.00    +0.000 OA
BRANCH  23  27
ATOM     24  C   UNL     1      -3.593  11.187  17.223  0.00  0.00    +0.000 A 
ATOM     25  C   UNL     1      -2.971  11.938  18.220  0.00  0.00    +0.000 A 
ATOM     26  C   UNL     1      -1.708  11.537  18.728  0.00  0.00    +0.000 A 
ATOM     27  C   UNL     1      -1.070  10.385  18.247  0.00  0.00    +0.000 A 
ATOM     28  C   UNL     1      -1.671   9.689  17.190  0.00  0.00    +0.000 A 
ATOM     29  C   UNL     1      -2.936  10.059  16.726  0.00  0.00    +0.000 A 
BRANCH  24  30
ATOM     30  O   UNL     1      -4.812  11.425  16.651  0.00  0.00    +0.000 OA
BRANCH  30  32
ATOM     31  C   UNL     1      -6.475  10.919  18.290  0.00  0.00    +0.000 C 
ATOM     32  C   UNL     1      -5.830  12.018  17.457  0.00  0.00    +0.000 C 
ENDBRANCH  30  32
ENDBRANCH  24  30
ENDBRANCH  23  27
ENDBRANCH   1  23
TORSDOF 6
ENDMDL
MODEL 9
REMARK VINA RESULT:      -7.8      4.678     10.067
REMARK  Name = 
REMARK  7 active torsions:
REMARK  status: ('A' for Active; 'I' for Inactive)
REMARK    1  A    between atoms: C_1  and  C_2
REMARK    2  A    between atoms: C_2  and  O_3
REMARK    3  A    between atoms: O_3  and  C_4
REMARK    4  A    between atoms: C_7  and  O_8
REMARK    5  A    between atoms: O_8  and  C_9
REMARK    6  A    between atoms: C_14  and  N_15
REMARK    7  A    between atoms: C_16  and  C_18
REMARK                            x       y       z     vdW  Elec       q    Type
REMARK                         _______ _______ _______ _____ _____    ______ ____
ROOT
ATOM      1  C   UNL     1       0.302  12.057  20.237  0.00  0.00    +0.000 A 
ATOM      2  C   UNL     1       1.467  12.556  20.831  0.00  0.00    +0.000 A 
ATOM      3  C   UNL     1       1.910  13.842  20.549  0.00  0.00    +0.000 A 
ATOM      4  C   UNL     1       1.167  14.663  19.706  0.00  0.00    +0.000 A 
ATOM      5  C   UNL     1      -0.055  14.224  19.200  0.00  0.00    +0.000 A 
ATOM      6  C   UNL     1      -0.515  12.938  19.482  0.00  0.00    +0.000 A 
ENDROOT
BRANCH   6   7
ATOM      7  N   UNL     1      -1.782  12.507  19.055  0.00  0.00    +0.000 N 
ATOM      8  C   UNL     1      -3.008  12.440  19.752  0.00  0.00    +0.000 C 
ATOM      9  O   UNL     1      -3.239  12.711  20.920  0.00  0.00    +0.000 OA
ATOM     10  H   UNL     1      -1.772  12.137  18.108  0.00  0.00    +0.000 HD
BRANCH   8  11
ATOM     11  C   UNL     1      -4.062  11.983  18.769  0.00  0.00    +0.000 C 
ATOM     12  C   UNL     1      -5.436  11.379  19.008  0.00  0.00    +0.000 C 
ATOM     13  C   UNL     1      -6.230  12.062  17.877  0.00  0.00    +0.000 C 
ATOM     14  O   UNL     1      -7.308  12.621  18.036  0.00  0.00    +0.000 OA
ATOM     15  N   UNL     1      -5.576  12.067  16.632  0.00  0.00    +0.000 N 
ATOM     16  C   UNL     1      -4.371  11.359  16.445  0.00  0.00    +0.000 A 
ATOM     17  C   UNL     1      -4.072  10.705  15.262  0.00  0.00    +0.000 A 
ATOM     18  C   UNL     1      -3.051   9.751  15.276  0.00  0.00    +0.000 A 
ATOM     19  C   UNL     1      -2.298   9.514  16.435  0.00  0.00    +0.000 A 
ATOM     20  C   UNL     1      -2.532  10.258  17.590  0.00  0.00    +0.000 A 
ATOM     21  C   UNL     1      -3.561  11.196  17.578  0.00  0.00    +0.000 A 
ATOM     22  H   UNL     1      -5.990  12.604  15.880  0.00  0.00    +0.000 HD
ENDBRANCH   8  11
ENDBRANCH   6   7
BRANCH   1  23
ATOM     23  O   UNL     1      -0.066  10.724  20.407  0.00  0.00    +0.000 OA
BRANCH  23  27
ATOM     24  C   UNL     1       2.369   7.753  18.640  0.00  0.00    +0.000 A 
ATOM     25  C   UNL     1       2.010   7.685  19.986  0.00  0.00    +0.000 A 
ATOM     26  C   UNL     1       1.177   8.686  20.551  0.00  0.00    +0.000 A 
ATOM     27  C   UNL     1       0.709   9.756  19.776  0.00  0.00    +0.000 A 
ATOM     28  C   UNL     1       1.012   9.765  18.409  0.00  0.00    +0.000 A 
ATOM     29  C   UNL     1       1.872   8.805  17.867  0.00  0.00    +0.000 A 
BRANCH  24  30
ATOM     30  O   UNL     1       3.179   6.888  17.958  0.00  0.00    +0.000 OA
BRANCH  30  32
ATOM     31  C   UNL     1       2.019   4.803  17.844  0.00  0.00    +0.000 C 
ATOM     32  C   UNL     1       3.236   5.531  18.396  0.00  0.00    +0.000 C 
ENDBRANCH  30  32
ENDBRANCH  24  30
ENDBRANCH  23  27
ENDBRANCH   1  23
TORSDOF 6
ENDMDL
