MODEL 1
REMARK VINA RESULT:      -8.8      0.000      0.000
REMARK  Name = 
REMARK  7 active torsions:
REMARK  status: ('A' for Active; 'I' for Inactive)
REMARK    1  A    between atoms: C_1  and  C_2
REMARK    2  A    between atoms: C_2  and  C_3
REMARK    3  A    between atoms: C_2  and  C_10
REMARK    4  A    between atoms: C_3  and  C_4
REMARK    5  A    between atoms: N_8  and  C_9
REMARK    6  A    between atoms: C_14  and  N_15
REMARK    7  A    between atoms: C_16  and  C_18
REMARK                            x       y       z     vdW  Elec       q    Type
REMARK                         _______ _______ _______ _____ _____    ______ ____
ROOT
ATOM      1  C   UNL     1       4.637   5.429  17.007  0.00  0.00    +0.000 A 
ATOM      2  C   UNL     1       3.996   4.185  16.893  0.00  0.00    +0.000 A 
ATOM      3  C   UNL     1       2.750   3.959  17.480  0.00  0.00    +0.000 A 
ATOM      4  C   UNL     1       2.135   4.959  18.232  0.00  0.00    +0.000 A 
ATOM      5  C   UNL     1       2.753   6.196  18.392  0.00  0.00    +0.000 A 
ATOM      6  C   UNL     1       3.979   6.431  17.748  0.00  0.00    +0.000 A 
ENDROOT
BRANCH   5   7
ATOM      7  N   UNL     1       2.242   7.226  19.205  0.00  0.00    +0.000 N 
ATOM      8  C   UNL     1       1.735   8.448  18.794  0.00  0.00    +0.000 C 
ATOM      9  O   UNL     1       1.712   8.890  17.654  0.00  0.00    +0.000 OA
ATOM     10  H   UNL     1       2.143   7.045  20.202  0.00  0.00    +0.000 HD
BRANCH   8  11
ATOM     11  C   UNL     1       1.154   9.269  19.903  0.00  0.00    +0.000 A 
ATOM     12  C   UNL     1       0.806   8.631  21.092  0.00  0.00    +0.000 A 
ATOM     13  C   UNL     1       0.269   9.473  22.011  0.00  0.00    +0.000 A 
ATOM     14  C   UNL     1       0.099  10.797  21.808  0.00  0.00    +0.000 A 
ATOM     15  C   UNL     1       0.460  11.389  20.643  0.00  0.00    +0.000 A 
ATOM     16  N   UNL     1       1.000  10.628  19.654  0.00  0.00    +0.000 NA
ATOM     17  N   UNL     1      -0.450  10.942  23.071  0.00  0.00    +0.000 NA
ATOM     18  C   UNL     1      -0.297   9.673  23.286  0.00  0.00    +0.000 C 
ENDBRANCH   8  11
ENDBRANCH   5   7
BRANCH   1  20
ATOM     19  C   UNL     1       7.046   6.047  17.490  0.00  0.00    +0.000 C 
ATOM     20  C   UNL     1       6.040   5.625  16.404  0.00  0.00    +0.000 C 
BRANCH  20  21
ATOM     21  C   UNL     1       6.564   4.404  15.606  0.00  0.00    +0.000 C 
BRANCH  21  22
ATOM     22  C   UNL     1       7.145   4.746  14.272  0.00  0.00    +0.000 A 
ATOM     23  N   UNL     1       8.126   5.600  14.057  0.00  0.00    +0.000 NA
ATOM     24  N   UNL     1       8.301   5.728  12.700  0.00  0.00    +0.000 NA
ATOM     25  C   UNL     1       7.423   4.949  12.113  0.00  0.00    +0.000 A 
ATOM     26  N   UNL     1       6.687   4.301  13.057  0.00  0.00    +0.000 N 
ATOM     27  C   UNL     1       5.631   3.365  12.781  0.00  0.00    +0.000 C 
ENDBRANCH  21  22
ENDBRANCH  20  21
ENDBRANCH   1  20
TORSDOF 5
ENDMDL
MODEL 2
REMARK VINA RESULT:      -8.3      0.942      1.317
REMARK  Name = 
REMARK  7 active torsions:
REMARK  status: ('A' for Active; 'I' for Inactive)
REMARK    1  A    between atoms: C_1  and  C_2
REMARK    2  A    between atoms: C_2  and  C_3
REMARK    3  A    between atoms: C_2  and  C_10
REMARK    4  A    between atoms: C_3  and  C_4
REMARK    5  A    between atoms: N_8  and  C_9
REMARK    6  A    between atoms: C_14  and  N_15
REMARK    7  A    between atoms: C_16  and  C_18
REMARK                            x       y       z     vdW  Elec       q    Type
REMARK                         _______ _______ _______ _____ _____    ______ ____
ROOT
ATOM      1  C   UNL     1       4.425   4.707  17.226  0.00  0.00    +0.000 A 
ATOM      2  C   UNL     1       3.737   3.482  17.234  0.00  0.00    +0.000 A 
ATOM      3  C   UNL     1       2.512   3.347  17.889  0.00  0.00    +0.000 A 
ATOM      4  C   UNL     1       1.966   4.422  18.590  0.00  0.00    +0.000 A 
ATOM      5  C   UNL     1       2.634   5.644  18.630  0.00  0.00    +0.000 A 
ATOM      6  C   UNL     1       3.836   5.784  17.918  0.00  0.00    +0.000 A 
ENDROOT
BRANCH   5   7
ATOM      7  N   UNL     1       2.196   6.750  19.384  0.00  0.00    +0.000 N 
ATOM      8  C   UNL     1       1.981   8.042  18.935  0.00  0.00    +0.000 C 
ATOM      9  O   UNL     1       2.209   8.480  17.815  0.00  0.00    +0.000 OA
ATOM     10  H   UNL     1       1.917   6.590  20.350  0.00  0.00    +0.000 HD
BRANCH   8  11
ATOM     11  C   UNL     1       1.395   8.955  19.966  0.00  0.00    +0.000 A 
ATOM     12  C   UNL     1       0.871  10.178  19.552  0.00  0.00    +0.000 A 
ATOM     13  C   UNL     1       0.392  10.927  20.577  0.00  0.00    +0.000 A 
ATOM     14  C   UNL     1       0.405  10.530  21.867  0.00  0.00    +0.000 A 
ATOM     15  C   UNL     1       0.911   9.328  22.236  0.00  0.00    +0.000 A 
ATOM     16  N   UNL     1       1.424   8.505  21.282  0.00  0.00    +0.000 NA
ATOM     17  N   UNL     1      -0.188  11.718  22.261  0.00  0.00    +0.000 NA
ATOM     18  C   UNL     1      -0.209  12.119  21.029  0.00  0.00    +0.000 C 
ENDBRANCH   8  11
ENDBRANCH   5   7
BRANCH   1  20
ATOM     19  C   UNL     1       6.930   4.555  17.570  0.00  0.00    +0.000 C 
ATOM     20  C   UNL     1       5.804   4.804  16.550  0.00  0.00    +0.000 C 
BRANCH  20  21
ATOM     21  C   UNL     1       5.969   3.893  15.308  0.00  0.00    +0.000 C 
BRANCH  21  22
ATOM     22  C   UNL     1       6.848   4.461  14.241  0.00  0.00    +0.000 A 
ATOM     23  N   UNL     1       7.772   5.385  14.417  0.00  0.00    +0.000 NA
ATOM     24  N   UNL     1       8.286   5.725  13.190  0.00  0.00    +0.000 NA
ATOM     25  C   UNL     1       7.666   5.003  12.288  0.00  0.00    +0.000 A 
ATOM     26  N   UNL     1       6.768   4.183  12.899  0.00  0.00    +0.000 N 
ATOM     27  C   UNL     1       5.909   3.249  12.224  0.00  0.00    +0.000 C 
ENDBRANCH  21  22
ENDBRANCH  20  21
ENDBRANCH   1  20
TORSDOF 5
ENDMDL
MODEL 3
REMARK VINA RESULT:      -7.9      1.298      1.843
REMARK  Name = 
REMARK  7 active torsions:
REMARK  status: ('A' for Active; 'I' for Inactive)
REMARK    1  A    between atoms: C_1  and  C_2
REMARK    2  A    between atoms: C_2  and  C_3
REMARK    3  A    between atoms: C_2  and  C_10
REMARK    4  A    between atoms: C_3  and  C_4
REMARK    5  A    between atoms: N_8  and  C_9
REMARK    6  A    between atoms: C_14  and  N_15
REMARK    7  A    between atoms: C_16  and  C_18
REMARK                            x       y       z     vdW  Elec       q    Type
REMARK                         _______ _______ _______ _____ _____    ______ ____
ROOT
ATOM      1  C   UNL     1       4.479   4.837  16.957  0.00  0.00    +0.000 A 
ATOM      2  C   UNL     1       3.768   3.627  17.028  0.00  0.00    +0.000 A 
ATOM      3  C   UNL     1       2.455   3.589  17.501  0.00  0.00    +0.000 A 
ATOM      4  C   UNL     1       1.836   4.753  17.955  0.00  0.00    +0.000 A 
ATOM      5  C   UNL     1       2.520   5.966  17.929  0.00  0.00    +0.000 A 
ATOM      6  C   UNL     1       3.818   6.002  17.397  0.00  0.00    +0.000 A 
ENDROOT
BRANCH   5   7
ATOM      7  N   UNL     1       2.000   7.168  18.448  0.00  0.00    +0.000 N 
ATOM      8  C   UNL     1       1.806   7.494  19.780  0.00  0.00    +0.000 C 
ATOM      9  O   UNL     1       1.976   6.765  20.749  0.00  0.00    +0.000 OA
ATOM     10  H   UNL     1       1.819   7.931  17.799  0.00  0.00    +0.000 HD
BRANCH   8  11
ATOM     11  C   UNL     1       1.352   8.903  20.002  0.00  0.00    +0.000 A 
ATOM     12  C   UNL     1       1.264   9.754  18.902  0.00  0.00    +0.000 A 
ATOM     13  C   UNL     1       0.866  11.009  19.231  0.00  0.00    +0.000 A 
ATOM     14  C   UNL     1       0.570  11.398  20.489  0.00  0.00    +0.000 A 
ATOM     15  C   UNL     1       0.654  10.541  21.536  0.00  0.00    +0.000 A 
ATOM     16  N   UNL     1       1.053   9.260  21.312  0.00  0.00    +0.000 NA
ATOM     17  N   UNL     1       0.284  12.680  20.049  0.00  0.00    +0.000 NA
ATOM     18  C   UNL     1       0.564  12.327  18.834  0.00  0.00    +0.000 C 
ENDBRANCH   8  11
ENDBRANCH   5   7
BRANCH   1  20
ATOM     19  C   UNL     1       6.894   4.596  17.683  0.00  0.00    +0.000 C 
ATOM     20  C   UNL     1       5.946   4.835  16.493  0.00  0.00    +0.000 C 
BRANCH  20  21
ATOM     21  C   UNL     1       6.246   3.847  15.338  0.00  0.00    +0.000 C 
BRANCH  21  22
ATOM     22  C   UNL     1       6.962   4.458  14.177  0.00  0.00    +0.000 A 
ATOM     23  N   UNL     1       7.847   5.433  14.246  0.00  0.00    +0.000 NA
ATOM     24  N   UNL     1       8.194   5.795  12.967  0.00  0.00    +0.000 NA
ATOM     25  C   UNL     1       7.514   5.036  12.142  0.00  0.00    +0.000 A 
ATOM     26  N   UNL     1       6.740   4.171  12.853  0.00  0.00    +0.000 N 
ATOM     27  C   UNL     1       5.860   3.189  12.281  0.00  0.00    +0.000 C 
ENDBRANCH  21  22
ENDBRANCH  20  21
ENDBRANCH   1  20
TORSDOF 5
ENDMDL
MODEL 4
REMARK VINA RESULT:      -7.8      2.270      3.349
REMARK  Name = 
REMARK  7 active torsions:
REMARK  status: ('A' for Active; 'I' for Inactive)
REMARK    1  A    between atoms: C_1  and  C_2
REMARK    2  A    between atoms: C_2  and  C_3
REMARK    3  A    between atoms: C_2  and  C_10
REMARK    4  A    between atoms: C_3  and  C_4
REMARK    5  A    between atoms: N_8  and  C_9
REMARK    6  A    between atoms: C_14  and  N_15
REMARK    7  A    between atoms: C_16  and  C_18
REMARK                            x       y       z     vdW  Elec       q    Type
REMARK                         _______ _______ _______ _____ _____    ______ ____
ROOT
ATOM      1  C   UNL     1       4.756   4.070  16.550  0.00  0.00    +0.000 A 
ATOM      2  C   UNL     1       4.281   2.834  17.018  0.00  0.00    +0.000 A 
ATOM      3  C   UNL     1       3.142   2.757  17.821  0.00  0.00    +0.000 A 
ATOM      4  C   UNL     1       2.477   3.918  18.213  0.00  0.00    +0.000 A 
ATOM      5  C   UNL     1       2.936   5.164  17.794  0.00  0.00    +0.000 A 
ATOM      6  C   UNL     1       4.047   5.225  16.938  0.00  0.00    +0.000 A 
ENDROOT
BRANCH   5   7
ATOM      7  N   UNL     1       2.375   6.386  18.215  0.00  0.00    +0.000 N 
ATOM      8  C   UNL     1       2.206   6.829  19.516  0.00  0.00    +0.000 C 
ATOM      9  O   UNL     1       2.438   6.206  20.543  0.00  0.00    +0.000 OA
ATOM     10  H   UNL     1       2.139   7.074  17.503  0.00  0.00    +0.000 HD
BRANCH   8  11
ATOM     11  C   UNL     1       1.692   8.232  19.618  0.00  0.00    +0.000 A 
ATOM     12  C   UNL     1       1.177   8.664  20.839  0.00  0.00    +0.000 A 
ATOM     13  C   UNL     1       0.720   9.942  20.801  0.00  0.00    +0.000 A 
ATOM     14  C   UNL     1       0.768  10.725  19.702  0.00  0.00    +0.000 A 
ATOM     15  C   UNL     1       1.286  10.277  18.532  0.00  0.00    +0.000 A 
ATOM     16  N   UNL     1       1.764   9.005  18.465  0.00  0.00    +0.000 NA
ATOM     17  N   UNL     1       0.171  11.767  20.392  0.00  0.00    +0.000 NA
ATOM     18  C   UNL     1       0.114  11.031  21.458  0.00  0.00    +0.000 C 
ENDBRANCH   8  11
ENDBRANCH   5   7
BRANCH   1  20
ATOM     19  C   UNL     1       5.749   3.932  14.223  0.00  0.00    +0.000 C 
ATOM     20  C   UNL     1       6.051   4.127  15.720  0.00  0.00    +0.000 C 
BRANCH  20  21
ATOM     21  C   UNL     1       6.900   5.403  15.953  0.00  0.00    +0.000 C 
BRANCH  21  22
ATOM     22  C   UNL     1       7.451   5.530  17.336  0.00  0.00    +0.000 A 
ATOM     23  N   UNL     1       7.720   4.529  18.152  0.00  0.00    +0.000 NA
ATOM     24  N   UNL     1       8.102   5.048  19.365  0.00  0.00    +0.000 NA
ATOM     25  C   UNL     1       8.059   6.355  19.268  0.00  0.00    +0.000 A 
ATOM     26  N   UNL     1       7.672   6.705  18.010  0.00  0.00    +0.000 N 
ATOM     27  C   UNL     1       7.515   8.054  17.540  0.00  0.00    +0.000 C 
ENDBRANCH  21  22
ENDBRANCH  20  21
ENDBRANCH   1  20
TORSDOF 5
ENDMDL
MODEL 5
REMARK VINA RESULT:      -7.8      2.686      4.377
REMARK  Name = 
REMARK  7 active torsions:
REMARK  status: ('A' for Active; 'I' for Inactive)
REMARK    1  A    between atoms: C_1  and  C_2
REMARK    2  A    between atoms: C_2  and  C_3
REMARK    3  A    between atoms: C_2  and  C_10
REMARK    4  A    between atoms: C_3  and  C_4
REMARK    5  A    between atoms: N_8  and  C_9
REMARK    6  A    between atoms: C_14  and  N_15
REMARK    7  A    between atoms: C_16  and  C_18
REMARK                            x       y       z     vdW  Elec       q    Type
REMARK                         _______ _______ _______ _____ _____    ______ ____
ROOT
ATOM      1  C   UNL     1       2.718   6.771  19.376  0.00  0.00    +0.000 A 
ATOM      2  C   UNL     1       3.160   7.126  18.090  0.00  0.00    +0.000 A 
ATOM      3  C   UNL     1       2.750   8.318  17.490  0.00  0.00    +0.000 A 
ATOM      4  C   UNL     1       1.853   9.162  18.142  0.00  0.00    +0.000 A 
ATOM      5  C   UNL     1       1.369   8.830  19.404  0.00  0.00    +0.000 A 
ATOM      6  C   UNL     1       1.834   7.659  20.023  0.00  0.00    +0.000 A 
ENDROOT
BRANCH   5   7
ATOM      7  N   UNL     1       0.397   9.583  20.092  0.00  0.00    +0.000 N 
ATOM      8  C   UNL     1       0.526  10.193  21.329  0.00  0.00    +0.000 C 
ATOM      9  O   UNL     1       1.483  10.123  22.088  0.00  0.00    +0.000 OA
ATOM     10  H   UNL     1      -0.476   9.789  19.612  0.00  0.00    +0.000 HD
BRANCH   8  11
ATOM     11  C   UNL     1      -0.655  11.024  21.723  0.00  0.00    +0.000 A 
ATOM     12  C   UNL     1      -1.318  11.749  20.734  0.00  0.00    +0.000 A 
ATOM     13  C   UNL     1      -2.354  12.481  21.216  0.00  0.00    +0.000 A 
ATOM     14  C   UNL     1      -2.720  12.501  22.516  0.00  0.00    +0.000 A 
ATOM     15  C   UNL     1      -2.061  11.774  23.451  0.00  0.00    +0.000 A 
ATOM     16  N   UNL     1      -1.000  11.012  23.070  0.00  0.00    +0.000 NA
ATOM     17  N   UNL     1      -3.744  13.390  22.236  0.00  0.00    +0.000 NA
ATOM     18  C   UNL     1      -3.409  13.387  20.984  0.00  0.00    +0.000 C 
ENDBRANCH   8  11
ENDBRANCH   5   7
BRANCH   1  20
ATOM     19  C   UNL     1       1.960   4.775  20.740  0.00  0.00    +0.000 C 
ATOM     20  C   UNL     1       3.135   5.420  19.983  0.00  0.00    +0.000 C 
BRANCH  20  21
ATOM     21  C   UNL     1       3.749   4.428  18.962  0.00  0.00    +0.000 C 
BRANCH  21  22
ATOM     22  C   UNL     1       5.223   4.579  18.769  0.00  0.00    +0.000 A 
ATOM     23  N   UNL     1       6.082   4.976  19.687  0.00  0.00    +0.000 NA
ATOM     24  N   UNL     1       7.319   5.096  19.102  0.00  0.00    +0.000 NA
ATOM     25  C   UNL     1       7.192   4.771  17.838  0.00  0.00    +0.000 A 
ATOM     26  N   UNL     1       5.900   4.423  17.585  0.00  0.00    +0.000 N 
ATOM     27  C   UNL     1       5.391   4.008  16.306  0.00  0.00    +0.000 C 
ENDBRANCH  21  22
ENDBRANCH  20  21
ENDBRANCH   1  20
TORSDOF 5
ENDMDL
MODEL 6
REMARK VINA RESULT:      -7.8      2.074      3.012
REMARK  Name = 
REMARK  7 active torsions:
REMARK  status: ('A' for Active; 'I' for Inactive)
REMARK    1  A    between atoms: C_1  and  C_2
REMARK    2  A    between atoms: C_2  and  C_3
REMARK    3  A    between atoms: C_2  and  C_10
REMARK    4  A    between atoms: C_3  and  C_4
REMARK    5  A    between atoms: N_8  and  C_9
REMARK    6  A    between atoms: C_14  and  N_15
REMARK    7  A    between atoms: C_16  and  C_18
REMARK                            x       y       z     vdW  Elec       q    Type
REMARK                         _______ _______ _______ _____ _____    ______ ____
ROOT
ATOM      1  C   UNL     1       4.517   4.174  17.943  0.00  0.00    +0.000 A 
ATOM      2  C   UNL     1       4.470   2.966  18.657  0.00  0.00    +0.000 A 
ATOM      3  C   UNL     1       3.697   2.840  19.813  0.00  0.00    +0.000 A 
ATOM      4  C   UNL     1       2.987   3.933  20.307  0.00  0.00    +0.000 A 
ATOM      5  C   UNL     1       3.032   5.156  19.643  0.00  0.00    +0.000 A 
ATOM      6  C   UNL     1       3.766   5.254  18.450  0.00  0.00    +0.000 A 
ENDROOT
BRANCH   5   7
ATOM      7  N   UNL     1       2.416   6.329  20.122  0.00  0.00    +0.000 N 
ATOM      8  C   UNL     1       2.254   7.528  19.449  0.00  0.00    +0.000 C 
ATOM      9  O   UNL     1       2.688   7.816  18.342  0.00  0.00    +0.000 OA
ATOM     10  H   UNL     1       1.955   6.291  21.028  0.00  0.00    +0.000 HD
BRANCH   8  11
ATOM     11  C   UNL     1       1.443   8.541  20.196  0.00  0.00    +0.000 A 
ATOM     12  C   UNL     1       1.159   8.305  21.540  0.00  0.00    +0.000 A 
ATOM     13  C   UNL     1       0.398   9.278  22.102  0.00  0.00    +0.000 A 
ATOM     14  C   UNL     1      -0.032  10.372  21.439  0.00  0.00    +0.000 A 
ATOM     15  C   UNL     1       0.273  10.578  20.134  0.00  0.00    +0.000 A 
ATOM     16  N   UNL     1       1.025   9.655  19.477  0.00  0.00    +0.000 NA
ATOM     17  N   UNL     1      -0.681  10.831  22.573  0.00  0.00    +0.000 NA
ATOM     18  C   UNL     1      -0.280   9.787  23.228  0.00  0.00    +0.000 C 
ENDBRANCH   8  11
ENDBRANCH   5   7
BRANCH   1  20
ATOM     19  C   UNL     1       4.946   5.433  15.787  0.00  0.00    +0.000 C 
ATOM     20  C   UNL     1       5.430   4.299  16.711  0.00  0.00    +0.000 C 
BRANCH  20  21
ATOM     21  C   UNL     1       6.933   4.461  17.048  0.00  0.00    +0.000 C 
BRANCH  21  22
ATOM     22  C   UNL     1       7.338   5.857  17.395  0.00  0.00    +0.000 A 
ATOM     23  N   UNL     1       7.489   6.849  16.539  0.00  0.00    +0.000 NA
ATOM     24  N   UNL     1       7.975   7.939  17.219  0.00  0.00    +0.000 NA
ATOM     25  C   UNL     1       8.112   7.592  18.476  0.00  0.00    +0.000 A 
ATOM     26  N   UNL     1       7.710   6.302  18.639  0.00  0.00    +0.000 N 
ATOM     27  C   UNL     1       7.720   5.585  19.885  0.00  0.00    +0.000 C 
ENDBRANCH  21  22
ENDBRANCH  20  21
ENDBRANCH   1  20
TORSDOF 5
ENDMDL
MODEL 7
REMARK VINA RESULT:      -7.7      3.246      9.356
REMARK  Name = 
REMARK  7 active torsions:
REMARK  status: ('A' for Active; 'I' for Inactive)
REMARK    1  A    between atoms: C_1  and  C_2
REMARK    2  A    between atoms: C_2  and  C_3
REMARK    3  A    between atoms: C_2  and  C_10
REMARK    4  A    between atoms: C_3  and  C_4
REMARK    5  A    between atoms: N_8  and  C_9
REMARK    6  A    between atoms: C_14  and  N_15
REMARK    7  A    between atoms: C_16  and  C_18
REMARK                            x       y       z     vdW  Elec       q    Type
REMARK                         _______ _______ _______ _____ _____    ______ ____
ROOT
ATOM      1  C   UNL     1      -0.069  10.256  20.019  0.00  0.00    +0.000 A 
ATOM      2  C   UNL     1      -0.241  10.136  21.408  0.00  0.00    +0.000 A 
ATOM      3  C   UNL     1       0.481   9.197  22.146  0.00  0.00    +0.000 A 
ATOM      4  C   UNL     1       1.361   8.325  21.506  0.00  0.00    +0.000 A 
ATOM      5  C   UNL     1       1.536   8.393  20.126  0.00  0.00    +0.000 A 
ATOM      6  C   UNL     1       0.848   9.380  19.403  0.00  0.00    +0.000 A 
ENDROOT
BRANCH   5   7
ATOM      7  N   UNL     1       2.337   7.494  19.394  0.00  0.00    +0.000 N 
ATOM      8  C   UNL     1       2.385   6.116  19.522  0.00  0.00    +0.000 C 
ATOM      9  O   UNL     1       1.800   5.432  20.350  0.00  0.00    +0.000 OA
ATOM     10  H   UNL     1       2.886   7.864  18.622  0.00  0.00    +0.000 HD
BRANCH   8  11
ATOM     11  C   UNL     1       3.252   5.442  18.504  0.00  0.00    +0.000 A 
ATOM     12  C   UNL     1       3.962   6.235  17.604  0.00  0.00    +0.000 A 
ATOM     13  C   UNL     1       4.691   5.512  16.717  0.00  0.00    +0.000 A 
ATOM     14  C   UNL     1       4.740   4.162  16.709  0.00  0.00    +0.000 A 
ATOM     15  C   UNL     1       4.047   3.420  17.606  0.00  0.00    +0.000 A 
ATOM     16  N   UNL     1       3.277   4.052  18.533  0.00  0.00    +0.000 NA
ATOM     17  N   UNL     1       5.599   4.179  15.622  0.00  0.00    +0.000 NA
ATOM     18  C   UNL     1       5.565   5.475  15.612  0.00  0.00    +0.000 C 
ENDBRANCH   8  11
ENDBRANCH   5   7
BRANCH   1  20
ATOM     19  C   UNL     1      -0.091  12.476  18.798  0.00  0.00    +0.000 C 
ATOM     20  C   UNL     1      -0.928  11.256  19.225  0.00  0.00    +0.000 C 
BRANCH  20  21
ATOM     21  C   UNL     1      -1.666  10.637  18.011  0.00  0.00    +0.000 C 
BRANCH  21  22
ATOM     22  C   UNL     1      -3.022  11.210  17.758  0.00  0.00    +0.000 A 
ATOM     23  N   UNL     1      -3.831  11.705  18.674  0.00  0.00    +0.000 NA
ATOM     24  N   UNL     1      -5.023  12.029  18.073  0.00  0.00    +0.000 NA
ATOM     25  C   UNL     1      -4.919  11.724  16.801  0.00  0.00    +0.000 A 
ATOM     26  N   UNL     1      -3.678  11.224  16.552  0.00  0.00    +0.000 N 
ATOM     27  C   UNL     1      -3.207  10.784  15.267  0.00  0.00    +0.000 C 
ENDBRANCH  21  22
ENDBRANCH  20  21
ENDBRANCH   1  20
TORSDOF 5
ENDMDL
MODEL 8
REMARK VINA RESULT:      -7.7      4.965      7.893
REMARK  Name = 
REMARK  7 active torsions:
REMARK  status: ('A' for Active; 'I' for Inactive)
REMARK    1  A    between atoms: C_1  and  C_2
REMARK    2  A    between atoms: C_2  and  C_3
REMARK    3  A    between atoms: C_2  and  C_10
REMARK    4  A    between atoms: C_3  and  C_4
REMARK    5  A    between atoms: N_8  and  C_9
REMARK    6  A    between atoms: C_14  and  N_15
REMARK    7  A    between atoms: C_16  and  C_18
REMARK                            x       y       z     vdW  Elec       q    Type
REMARK                         _______ _______ _______ _____ _____    ______ ____
ROOT
ATOM      1  C   UNL     1       6.338   5.983  17.099  0.00  0.00    +0.000 A 
ATOM      2  C   UNL     1       6.876   5.119  18.067  0.00  0.00    +0.000 A 
ATOM      3  C   UNL     1       7.833   5.565  18.981  0.00  0.00    +0.000 A 
ATOM      4  C   UNL     1       8.307   6.875  18.920  0.00  0.00    +0.000 A 
ATOM      5  C   UNL     1       7.820   7.753  17.956  0.00  0.00    +0.000 A 
ATOM      6  C   UNL     1       6.815   7.310  17.080  0.00  0.00    +0.000 A 
ENDROOT
BRANCH   5   7
ATOM      7  N   UNL     1       8.307   9.062  17.772  0.00  0.00    +0.000 N 
ATOM      8  C   UNL     1       8.918   9.871  18.714  0.00  0.00    +0.000 C 
ATOM      9  O   UNL     1       9.075   9.628  19.903  0.00  0.00    +0.000 OA
ATOM     10  H   UNL     1       8.299   9.447  16.830  0.00  0.00    +0.000 HD
BRANCH   8  11
ATOM     11  C   UNL     1       9.434  11.164  18.163  0.00  0.00    +0.000 A 
ATOM     12  C   UNL     1      10.795  11.274  17.886  0.00  0.00    +0.000 A 
ATOM     13  C   UNL     1      11.146  12.497  17.415  0.00  0.00    +0.000 A 
ATOM     14  C   UNL     1      10.270  13.506  17.220  0.00  0.00    +0.000 A 
ATOM     15  C   UNL     1       8.949  13.363  17.488  0.00  0.00    +0.000 A 
ATOM     16  N   UNL     1       8.498  12.175  17.973  0.00  0.00    +0.000 NA
ATOM     17  N   UNL     1      11.289  14.333  16.777  0.00  0.00    +0.000 NA
ATOM     18  C   UNL     1      12.146  13.378  16.959  0.00  0.00    +0.000 C 
ENDBRANCH   8  11
ENDBRANCH   5   7
BRANCH   1  20
ATOM     19  C   UNL     1       6.031   5.172  14.719  0.00  0.00    +0.000 C 
ATOM     20  C   UNL     1       5.334   5.444  16.065  0.00  0.00    +0.000 C 
BRANCH  20  21
ATOM     21  C   UNL     1       4.540   4.201  16.540  0.00  0.00    +0.000 C 
BRANCH  21  22
ATOM     22  C   UNL     1       3.547   4.482  17.621  0.00  0.00    +0.000 A 
ATOM     23  N   UNL     1       2.959   5.641  17.842  0.00  0.00    +0.000 NA
ATOM     24  N   UNL     1       2.204   5.534  18.984  0.00  0.00    +0.000 NA
ATOM     25  C   UNL     1       2.346   4.312  19.440  0.00  0.00    +0.000 A 
ATOM     26  N   UNL     1       3.166   3.610  18.610  0.00  0.00    +0.000 N 
ATOM     27  C   UNL     1       3.546   2.236  18.794  0.00  0.00    +0.000 C 
ENDBRANCH  21  22
ENDBRANCH  20  21
ENDBRANCH   1  20
TORSDOF 5
ENDMDL
MODEL 9
REMARK VINA RESULT:      -7.7      3.900      5.161
REMARK  Name = 
REMARK  7 active torsions:
REMARK  status: ('A' for Active; 'I' for Inactive)
REMARK    1  A    between atoms: C_1  and  C_2
REMARK    2  A    between atoms: C_2  and  C_3
REMARK    3  A    between atoms: C_2  and  C_10
REMARK    4  A    between atoms: C_3  and  C_4
REMARK    5  A    between atoms: N_8  and  C_9
REMARK    6  A    between atoms: C_14  and  N_15
REMARK    7  A    between atoms: C_16  and  C_18
REMARK                            x       y       z     vdW  Elec       q    Type
REMARK                         _______ _______ _______ _____ _____    ______ ____
ROOT
ATOM      1  C   UNL     1       2.265   7.260  19.614  0.00  0.00    +0.000 A 
ATOM      2  C   UNL     1       2.495   7.532  18.255  0.00  0.00    +0.000 A 
ATOM      3  C   UNL     1       2.043   8.717  17.670  0.00  0.00    +0.000 A 
ATOM      4  C   UNL     1       1.311   9.637  18.419  0.00  0.00    +0.000 A 
ATOM      5  C   UNL     1       1.037   9.388  19.761  0.00  0.00    +0.000 A 
ATOM      6  C   UNL     1       1.547   8.222  20.354  0.00  0.00    +0.000 A 
ENDROOT
BRANCH   5   7
ATOM      7  N   UNL     1       0.232  10.222  20.562  0.00  0.00    +0.000 N 
ATOM      8  C   UNL     1       0.353  10.451  21.923  0.00  0.00    +0.000 C 
ATOM      9  O   UNL     1       1.130   9.907  22.695  0.00  0.00    +0.000 OA
ATOM     10  H   UNL     1      -0.468  10.798  20.100  0.00  0.00    +0.000 HD
BRANCH   8  11
ATOM     11  C   UNL     1      -0.586  11.492  22.449  0.00  0.00    +0.000 A 
ATOM     12  C   UNL     1      -1.768  11.075  23.059  0.00  0.00    +0.000 A 
ATOM     13  C   UNL     1      -2.546  12.107  23.473  0.00  0.00    +0.000 A 
ATOM     14  C   UNL     1      -2.211  13.406  23.325  0.00  0.00    +0.000 A 
ATOM     15  C   UNL     1      -1.047  13.778  22.739  0.00  0.00    +0.000 A 
ATOM     16  N   UNL     1      -0.200  12.817  22.281  0.00  0.00    +0.000 NA
ATOM     17  N   UNL     1      -3.393  13.802  23.929  0.00  0.00    +0.000 NA
ATOM     18  C   UNL     1      -3.735  12.560  24.078  0.00  0.00    +0.000 C 
ENDBRANCH   8  11
ENDBRANCH   5   7
BRANCH   1  20
ATOM     19  C   UNL     1       1.515   4.980  20.426  0.00  0.00    +0.000 C 
ATOM     20  C   UNL     1       2.719   5.917  20.213  0.00  0.00    +0.000 C 
BRANCH  20  21
ATOM     21  C   UNL     1       3.838   5.209  19.408  0.00  0.00    +0.000 C 
BRANCH  21  22
ATOM     22  C   UNL     1       3.379   4.011  18.642  0.00  0.00    +0.000 A 
ATOM     23  N   UNL     1       2.609   4.030  17.572  0.00  0.00    +0.000 NA
ATOM     24  N   UNL     1       2.316   2.735  17.223  0.00  0.00    +0.000 NA
ATOM     25  C   UNL     1       2.912   1.948  18.087  0.00  0.00    +0.000 A 
ATOM     26  N   UNL     1       3.604   2.701  18.986  0.00  0.00    +0.000 N 
ATOM     27  C   UNL     1       4.379   2.178  20.077  0.00  0.00    +0.000 C 
ENDBRANCH  21  22
ENDBRANCH  20  21
ENDBRANCH   1  20
TORSDOF 5
ENDMDL
