MODEL 1
REMARK VINA RESULT:      -8.4      0.000      0.000
REMARK  Name = 
REMARK  4 active torsions:
REMARK  status: ('A' for Active; 'I' for Inactive)
REMARK    1  A    between atoms: C_1  and  N_2
REMARK    2  A    between atoms: C_4  and  C_5
REMARK    3  A    between atoms: C_5  and  C_6
REMARK    4  A    between atoms: C_10  and  N_11
REMARK                            x       y       z     vdW  Elec       q    Type
REMARK                         _______ _______ _______ _____ _____    ______ ____
ROOT
ATOM      1  C   UNL     1       1.429   9.131  19.043  0.00  0.00    +0.000 A 
ATOM      2  C   UNL     1       2.180   9.471  17.895  0.00  0.00    +0.000 A 
ATOM      3  C   UNL     1       2.990   8.549  17.235  0.00  0.00    +0.000 A 
ATOM      4  C   UNL     1       3.160   7.279  17.768  0.00  0.00    +0.000 A 
ATOM      5  C   UNL     1       2.589   6.971  19.009  0.00  0.00    +0.000 A 
ATOM      6  C   UNL     1       1.613   7.824  19.537  0.00  0.00    +0.000 A 
ENDROOT
BRANCH   5   7
ATOM      7  N   UNL     1       3.296   6.101  19.949  0.00  0.00    +0.000 N 
ATOM      8  C   UNL     1       4.281   5.260  19.211  0.00  0.00    +0.000 C 
ATOM      9  C   UNL     1       3.460   4.058  18.900  0.00  0.00    +0.000 A 
ATOM     10  C   UNL     1       3.383   3.327  17.734  0.00  0.00    +0.000 A 
ATOM     11  F   UNL     1       4.234   3.559  16.726  0.00  0.00    +0.000 F 
ATOM     12  C   UNL     1       2.314   2.452  17.554  0.00  0.00    +0.000 A 
ATOM     13  C   UNL     1       1.352   2.312  18.565  0.00  0.00    +0.000 A 
ATOM     14  F   UNL     1       0.291   1.526  18.345  0.00  0.00    +0.000 F 
ATOM     15  C   UNL     1       1.415   3.043  19.742  0.00  0.00    +0.000 A 
ATOM     16  C   UNL     1       2.472   3.926  19.874  0.00  0.00    +0.000 A 
ATOM     17  C   UNL     1       2.473   5.181  20.660  0.00  0.00    +0.000 C 
ATOM     18  O   UNL     1       1.728   5.400  21.595  0.00  0.00    +0.000 OA
ENDBRANCH   5   7
BRANCH   1  19
ATOM     19  C   UNL     1       0.471  10.200  19.782  0.00  0.00    +0.000 C 
ATOM     20  C   UNL     1      -0.283   9.752  21.074  0.00  0.00    +0.000 C 
ATOM     21  O   UNL     1       0.690  10.406  21.922  0.00  0.00    +0.000 OA
ATOM     22  C   UNL     1       1.171  11.167  20.788  0.00  0.00    +0.000 C 
BRANCH  19  26
ATOM     23  C   UNL     1      -3.497  11.466  17.973  0.00  0.00    +0.000 C 
ATOM     24  N   UNL     1      -2.183  11.333  17.325  0.00  0.00    +0.000 NA
ATOM     25  C   UNL     1      -1.431  10.201  17.954  0.00  0.00    +0.000 C 
ATOM     26  C   UNL     1      -0.370  10.865  18.761  0.00  0.00    +0.000 C 
ATOM     27  C   UNL     1      -0.402  12.173  18.515  0.00  0.00    +0.000 C 
ATOM     28  N   UNL     1      -1.437  12.510  17.680  0.00  0.00    +0.000 N 
ATOM     29  H   UNL     1      -1.179  13.129  16.907  0.00  0.00    +0.000 HD
ENDBRANCH  19  26
ENDBRANCH   1  19
TORSDOF 3
ENDMDL
MODEL 2
REMARK VINA RESULT:      -8.4      4.147      6.698
REMARK  Name = 
REMARK  4 active torsions:
REMARK  status: ('A' for Active; 'I' for Inactive)
REMARK    1  A    between atoms: C_1  and  N_2
REMARK    2  A    between atoms: C_4  and  C_5
REMARK    3  A    between atoms: C_5  and  C_6
REMARK    4  A    between atoms: C_10  and  N_11
REMARK                            x       y       z     vdW  Elec       q    Type
REMARK                         _______ _______ _______ _____ _____    ______ ____
ROOT
ATOM      1  C   UNL     1       4.619   6.386  17.738  0.00  0.00    +0.000 A 
ATOM      2  C   UNL     1       4.070   7.658  17.457  0.00  0.00    +0.000 A 
ATOM      3  C   UNL     1       2.786   8.019  17.858  0.00  0.00    +0.000 A 
ATOM      4  C   UNL     1       1.964   7.078  18.460  0.00  0.00    +0.000 A 
ATOM      5  C   UNL     1       2.404   5.753  18.576  0.00  0.00    +0.000 A 
ATOM      6  C   UNL     1       3.760   5.469  18.372  0.00  0.00    +0.000 A 
ENDROOT
BRANCH   5   7
ATOM      7  N   UNL     1       1.458   4.647  18.422  0.00  0.00    +0.000 N 
ATOM      8  C   UNL     1       1.003   4.187  19.765  0.00  0.00    +0.000 C 
ATOM      9  C   UNL     1       2.008   3.130  20.065  0.00  0.00    +0.000 A 
ATOM     10  C   UNL     1       2.674   2.863  21.242  0.00  0.00    +0.000 A 
ATOM     11  F   UNL     1       2.335   3.491  22.375  0.00  0.00    +0.000 F 
ATOM     12  C   UNL     1       3.804   2.050  21.209  0.00  0.00    +0.000 A 
ATOM     13  C   UNL     1       4.230   1.499  19.992  0.00  0.00    +0.000 A 
ATOM     14  F   UNL     1       5.362   0.784  19.965  0.00  0.00    +0.000 F 
ATOM     15  C   UNL     1       3.572   1.762  18.799  0.00  0.00    +0.000 A 
ATOM     16  C   UNL     1       2.473   2.600  18.863  0.00  0.00    +0.000 A 
ATOM     17  C   UNL     1       1.982   3.486  17.784  0.00  0.00    +0.000 C 
ATOM     18  O   UNL     1       2.208   3.311  16.602  0.00  0.00    +0.000 OA
ENDBRANCH   5   7
BRANCH   1  19
ATOM     19  C   UNL     1       6.120   5.989  17.293  0.00  0.00    +0.000 C 
ATOM     20  C   UNL     1       7.198   7.118  17.230  0.00  0.00    +0.000 C 
ATOM     21  O   UNL     1       7.740   6.733  18.516  0.00  0.00    +0.000 OA
ATOM     22  C   UNL     1       7.054   5.461  18.427  0.00  0.00    +0.000 C 
BRANCH  19  26
ATOM     23  C   UNL     1       7.299   4.749  13.087  0.00  0.00    +0.000 C 
ATOM     24  N   UNL     1       6.076   4.428  13.840  0.00  0.00    +0.000 NA
ATOM     25  C   UNL     1       5.716   5.587  14.718  0.00  0.00    +0.000 C 
ATOM     26  C   UNL     1       6.044   5.123  16.095  0.00  0.00    +0.000 C 
ATOM     27  C   UNL     1       6.395   3.840  16.042  0.00  0.00    +0.000 C 
ATOM     28  N   UNL     1       6.428   3.373  14.752  0.00  0.00    +0.000 N 
ATOM     29  H   UNL     1       5.955   2.478  14.609  0.00  0.00    +0.000 HD
ENDBRANCH  19  26
ENDBRANCH   1  19
TORSDOF 3
ENDMDL
MODEL 3
REMARK VINA RESULT:      -8.2      4.279      6.668
REMARK  Name = 
REMARK  4 active torsions:
REMARK  status: ('A' for Active; 'I' for Inactive)
REMARK    1  A    between atoms: C_1  and  N_2
REMARK    2  A    between atoms: C_4  and  C_5
REMARK    3  A    between atoms: C_5  and  C_6
REMARK    4  A    between atoms: C_10  and  N_11
REMARK                            x       y       z     vdW  Elec       q    Type
REMARK                         _______ _______ _______ _____ _____    ______ ____
ROOT
ATOM      1  C   UNL     1       4.889   6.060  18.051  0.00  0.00    +0.000 A 
ATOM      2  C   UNL     1       4.513   7.265  17.415  0.00  0.00    +0.000 A 
ATOM      3  C   UNL     1       3.207   7.751  17.454  0.00  0.00    +0.000 A 
ATOM      4  C   UNL     1       2.208   6.988  18.041  0.00  0.00    +0.000 A 
ATOM      5  C   UNL     1       2.507   5.701  18.506  0.00  0.00    +0.000 A 
ATOM      6  C   UNL     1       3.848   5.329  18.655  0.00  0.00    +0.000 A 
ENDROOT
BRANCH   5   7
ATOM      7  N   UNL     1       1.524   4.625  18.374  0.00  0.00    +0.000 N 
ATOM      8  C   UNL     1       1.068   4.195  19.727  0.00  0.00    +0.000 C 
ATOM      9  C   UNL     1       2.041   3.111  20.030  0.00  0.00    +0.000 A 
ATOM     10  C   UNL     1       2.710   2.836  21.204  0.00  0.00    +0.000 A 
ATOM     11  F   UNL     1       2.402   3.488  22.333  0.00  0.00    +0.000 F 
ATOM     12  C   UNL     1       3.813   1.987  21.170  0.00  0.00    +0.000 A 
ATOM     13  C   UNL     1       4.209   1.408  19.956  0.00  0.00    +0.000 A 
ATOM     14  F   UNL     1       5.317   0.657  19.927  0.00  0.00    +0.000 F 
ATOM     15  C   UNL     1       3.548   1.678  18.767  0.00  0.00    +0.000 A 
ATOM     16  C   UNL     1       2.477   2.551  18.831  0.00  0.00    +0.000 A 
ATOM     17  C   UNL     1       2.004   3.440  17.745  0.00  0.00    +0.000 C 
ATOM     18  O   UNL     1       2.213   3.243  16.564  0.00  0.00    +0.000 OA
ENDBRANCH   5   7
BRANCH   1  19
ATOM     19  C   UNL     1       6.411   5.522  18.024  0.00  0.00    +0.000 C 
ATOM     20  C   UNL     1       7.521   6.402  18.681  0.00  0.00    +0.000 C 
ATOM     21  O   UNL     1       7.515   5.591  19.880  0.00  0.00    +0.000 OA
ATOM     22  C   UNL     1       6.813   4.542  19.170  0.00  0.00    +0.000 C 
BRANCH  19  26
ATOM     23  C   UNL     1       5.294   4.266  13.805  0.00  0.00    +0.000 C 
ATOM     24  N   UNL     1       6.504   3.943  14.579  0.00  0.00    +0.000 NA
ATOM     25  C   UNL     1       6.147   3.817  16.028  0.00  0.00    +0.000 C 
ATOM     26  C   UNL     1       6.717   5.040  16.657  0.00  0.00    +0.000 C 
ATOM     27  C   UNL     1       7.429   5.698  15.745  0.00  0.00    +0.000 C 
ATOM     28  N   UNL     1       7.349   5.105  14.510  0.00  0.00    +0.000 N 
ATOM     29  H   UNL     1       8.246   4.981  14.036  0.00  0.00    +0.000 HD
ENDBRANCH  19  26
ENDBRANCH   1  19
TORSDOF 3
ENDMDL
MODEL 4
REMARK VINA RESULT:      -8.0      3.270      7.656
REMARK  Name = 
REMARK  4 active torsions:
REMARK  status: ('A' for Active; 'I' for Inactive)
REMARK    1  A    between atoms: C_1  and  N_2
REMARK    2  A    between atoms: C_4  and  C_5
REMARK    3  A    between atoms: C_5  and  C_6
REMARK    4  A    between atoms: C_10  and  N_11
REMARK                            x       y       z     vdW  Elec       q    Type
REMARK                         _______ _______ _______ _____ _____    ______ ____
ROOT
ATOM      1  C   UNL     1       2.448   5.868  18.942  0.00  0.00    +0.000 A 
ATOM      2  C   UNL     1       2.367   6.713  17.812  0.00  0.00    +0.000 A 
ATOM      3  C   UNL     1       2.175   8.089  17.923  0.00  0.00    +0.000 A 
ATOM      4  C   UNL     1       1.948   8.652  19.171  0.00  0.00    +0.000 A 
ATOM      5  C   UNL     1       1.825   7.819  20.290  0.00  0.00    +0.000 A 
ATOM      6  C   UNL     1       2.236   6.485  20.191  0.00  0.00    +0.000 A 
ENDROOT
BRANCH   5   7
ATOM      7  N   UNL     1       0.873   8.148  21.352  0.00  0.00    +0.000 N 
ATOM      8  C   UNL     1      -0.485   8.337  20.767  0.00  0.00    +0.000 C 
ATOM      9  C   UNL     1      -0.477   9.798  20.482  0.00  0.00    +0.000 A 
ATOM     10  C   UNL     1      -0.936  10.478  19.374  0.00  0.00    +0.000 A 
ATOM     11  F   UNL     1      -1.637   9.843  18.426  0.00  0.00    +0.000 F 
ATOM     12  C   UNL     1      -0.531  11.796  19.174  0.00  0.00    +0.000 A 
ATOM     13  C   UNL     1       0.312  12.414  20.108  0.00  0.00    +0.000 A 
ATOM     14  F   UNL     1       0.755  13.653  19.861  0.00  0.00    +0.000 F 
ATOM     15  C   UNL     1       0.784  11.741  21.226  0.00  0.00    +0.000 A 
ATOM     16  C   UNL     1       0.388  10.425  21.377  0.00  0.00    +0.000 A 
ATOM     17  C   UNL     1       1.148   9.353  22.060  0.00  0.00    +0.000 C 
ATOM     18  O   UNL     1       1.994   9.553  22.910  0.00  0.00    +0.000 OA
ENDBRANCH   5   7
BRANCH   1  19
ATOM     19  C   UNL     1       2.701   4.280  18.802  0.00  0.00    +0.000 C 
ATOM     20  C   UNL     1       2.297   3.356  19.995  0.00  0.00    +0.000 C 
ATOM     21  O   UNL     1       1.067   2.971  19.337  0.00  0.00    +0.000 OA
ATOM     22  C   UNL     1       1.581   3.469  18.078  0.00  0.00    +0.000 C 
BRANCH  19  26
ATOM     23  C   UNL     1       6.297   5.364  16.249  0.00  0.00    +0.000 C 
ATOM     24  N   UNL     1       5.915   4.057  16.807  0.00  0.00    +0.000 NA
ATOM     25  C   UNL     1       4.422   3.944  16.832  0.00  0.00    +0.000 C 
ATOM     26  C   UNL     1       4.067   4.063  18.273  0.00  0.00    +0.000 C 
ATOM     27  C   UNL     1       5.188   4.086  18.990  0.00  0.00    +0.000 C 
ATOM     28  N   UNL     1       6.304   4.080  18.192  0.00  0.00    +0.000 N 
ATOM     29  H   UNL     1       7.024   3.409  18.468  0.00  0.00    +0.000 HD
ENDBRANCH  19  26
ENDBRANCH   1  19
TORSDOF 3
ENDMDL
MODEL 5
REMARK VINA RESULT:      -7.9      4.904      7.648
REMARK  Name = 
REMARK  4 active torsions:
REMARK  status: ('A' for Active; 'I' for Inactive)
REMARK    1  A    between atoms: C_1  and  N_2
REMARK    2  A    between atoms: C_4  and  C_5
REMARK    3  A    between atoms: C_5  and  C_6
REMARK    4  A    between atoms: C_10  and  N_11
REMARK                            x       y       z     vdW  Elec       q    Type
REMARK                         _______ _______ _______ _____ _____    ______ ____
ROOT
ATOM      1  C   UNL     1      -4.690  11.917  18.308  0.00  0.00    +0.000 A 
ATOM      2  C   UNL     1      -4.513  11.337  17.032  0.00  0.00    +0.000 A 
ATOM      3  C   UNL     1      -3.295  10.796  16.623  0.00  0.00    +0.000 A 
ATOM      4  C   UNL     1      -2.181  10.915  17.441  0.00  0.00    +0.000 A 
ATOM      5  C   UNL     1      -2.273  11.657  18.625  0.00  0.00    +0.000 A 
ATOM      6  C   UNL     1      -3.539  11.997  19.116  0.00  0.00    +0.000 A 
ENDROOT
BRANCH   5   7
ATOM      7  N   UNL     1      -1.141  12.469  19.074  0.00  0.00    +0.000 N 
ATOM      8  C   UNL     1       0.134  11.750  18.797  0.00  0.00    +0.000 C 
ATOM      9  C   UNL     1       0.323  10.995  20.065  0.00  0.00    +0.000 A 
ATOM     10  C   UNL     1       0.726   9.691  20.258  0.00  0.00    +0.000 A 
ATOM     11  F   UNL     1       1.176   8.957  19.232  0.00  0.00    +0.000 F 
ATOM     12  C   UNL     1       0.515   9.095  21.499  0.00  0.00    +0.000 A 
ATOM     13  C   UNL     1      -0.077   9.833  22.534  0.00  0.00    +0.000 A 
ATOM     14  F   UNL     1      -0.343   9.222  23.695  0.00  0.00    +0.000 F 
ATOM     15  C   UNL     1      -0.491  11.144  22.353  0.00  0.00    +0.000 A 
ATOM     16  C   UNL     1      -0.296  11.694  21.099  0.00  0.00    +0.000 A 
ATOM     17  C   UNL     1      -1.117  12.754  20.470  0.00  0.00    +0.000 C 
ATOM     18  O   UNL     1      -1.792  13.552  21.090  0.00  0.00    +0.000 OA
ENDBRANCH   5   7
BRANCH   1  19
ATOM     19  C   UNL     1      -6.113  12.515  18.781  0.00  0.00    +0.000 C 
ATOM     20  C   UNL     1      -6.353  14.053  18.650  0.00  0.00    +0.000 C 
ATOM     21  O   UNL     1      -7.110  13.876  17.430  0.00  0.00    +0.000 OA
ATOM     22  C   UNL     1      -7.263  12.466  17.727  0.00  0.00    +0.000 C 
BRANCH  19  26
ATOM     23  C   UNL     1      -7.915  12.659  22.947  0.00  0.00    +0.000 C 
ATOM     24  N   UNL     1      -6.882  11.756  22.414  0.00  0.00    +0.000 NA
ATOM     25  C   UNL     1      -6.043  12.496  21.418  0.00  0.00    +0.000 C 
ATOM     26  C   UNL     1      -6.454  11.936  20.101  0.00  0.00    +0.000 C 
ATOM     27  C   UNL     1      -7.288  10.920  20.310  0.00  0.00    +0.000 C 
ATOM     28  N   UNL     1      -7.575  10.761  21.642  0.00  0.00    +0.000 N 
ATOM     29  H   UNL     1      -7.506   9.799  21.982  0.00  0.00    +0.000 HD
ENDBRANCH  19  26
ENDBRANCH   1  19
TORSDOF 3
ENDMDL
MODEL 6
REMARK VINA RESULT:      -7.6      3.491      7.853
REMARK  Name = 
REMARK  4 active torsions:
REMARK  status: ('A' for Active; 'I' for Inactive)
REMARK    1  A    between atoms: C_1  and  N_2
REMARK    2  A    between atoms: C_4  and  C_5
REMARK    3  A    between atoms: C_5  and  C_6
REMARK    4  A    between atoms: C_10  and  N_11
REMARK                            x       y       z     vdW  Elec       q    Type
REMARK                         _______ _______ _______ _____ _____    ______ ____
ROOT
ATOM      1  C   UNL     1       2.206   6.906  19.191  0.00  0.00    +0.000 A 
ATOM      2  C   UNL     1       2.338   7.522  17.926  0.00  0.00    +0.000 A 
ATOM      3  C   UNL     1       2.050   8.870  17.721  0.00  0.00    +0.000 A 
ATOM      4  C   UNL     1       1.515   9.623  18.756  0.00  0.00    +0.000 A 
ATOM      5  C   UNL     1       1.187   8.997  19.965  0.00  0.00    +0.000 A 
ATOM      6  C   UNL     1       1.682   7.713  20.220  0.00  0.00    +0.000 A 
ENDROOT
BRANCH   5   7
ATOM      7  N   UNL     1       0.001   9.417  20.713  0.00  0.00    +0.000 N 
ATOM      8  C   UNL     1      -0.988  10.031  19.783  0.00  0.00    +0.000 C 
ATOM      9  C   UNL     1      -0.589  11.464  19.839  0.00  0.00    +0.000 A 
ATOM     10  C   UNL     1      -0.473  12.383  18.817  0.00  0.00    +0.000 A 
ATOM     11  F   UNL     1      -0.897  12.086  17.583  0.00  0.00    +0.000 F 
ATOM     12  C   UNL     1       0.230  13.563  19.047  0.00  0.00    +0.000 A 
ATOM     13  C   UNL     1       0.784  13.808  20.312  0.00  0.00    +0.000 A 
ATOM     14  F   UNL     1       1.521  14.911  20.493  0.00  0.00    +0.000 F 
ATOM     15  C   UNL     1       0.678  12.892  21.348  0.00  0.00    +0.000 A 
ATOM     16  C   UNL     1       0.002  11.716  21.076  0.00  0.00    +0.000 A 
ATOM     17  C   UNL     1       0.236  10.402  21.716  0.00  0.00    +0.000 C 
ATOM     18  O   UNL     1       0.741  10.258  22.812  0.00  0.00    +0.000 OA
ENDBRANCH   5   7
BRANCH   1  19
ATOM     19  C   UNL     1       2.570   5.350  19.423  0.00  0.00    +0.000 C 
ATOM     20  C   UNL     1       2.357   4.742  20.845  0.00  0.00    +0.000 C 
ATOM     21  O   UNL     1       1.104   4.136  20.446  0.00  0.00    +0.000 OA
ATOM     22  C   UNL     1       1.455   4.322  19.053  0.00  0.00    +0.000 C 
BRANCH  19  26
ATOM     23  C   UNL     1       5.682   5.680  16.131  0.00  0.00    +0.000 C 
ATOM     24  N   UNL     1       5.563   4.673  17.199  0.00  0.00    +0.000 NA
ATOM     25  C   UNL     1       4.115   4.430  17.493  0.00  0.00    +0.000 C 
ATOM     26  C   UNL     1       3.893   5.079  18.815  0.00  0.00    +0.000 C 
ATOM     27  C   UNL     1       5.064   5.499  19.287  0.00  0.00    +0.000 C 
ATOM     28  N   UNL     1       6.082   5.287  18.392  0.00  0.00    +0.000 N 
ATOM     29  H   UNL     1       6.920   4.858  18.790  0.00  0.00    +0.000 HD
ENDBRANCH  19  26
ENDBRANCH   1  19
TORSDOF 3
ENDMDL
MODEL 7
REMARK VINA RESULT:      -7.6      4.909      6.960
REMARK  Name = 
REMARK  4 active torsions:
REMARK  status: ('A' for Active; 'I' for Inactive)
REMARK    1  A    between atoms: C_1  and  N_2
REMARK    2  A    between atoms: C_4  and  C_5
REMARK    3  A    between atoms: C_5  and  C_6
REMARK    4  A    between atoms: C_10  and  N_11
REMARK                            x       y       z     vdW  Elec       q    Type
REMARK                         _______ _______ _______ _____ _____    ______ ____
ROOT
ATOM      1  C   UNL     1      -0.918  12.022  22.542  0.00  0.00    +0.000 A 
ATOM      2  C   UNL     1      -1.186  10.723  23.031  0.00  0.00    +0.000 A 
ATOM      3  C   UNL     1      -0.352   9.640  22.760  0.00  0.00    +0.000 A 
ATOM      4  C   UNL     1       0.723   9.798  21.898  0.00  0.00    +0.000 A 
ATOM      5  C   UNL     1       0.903  11.022  21.240  0.00  0.00    +0.000 A 
ATOM      6  C   UNL     1       0.196  12.144  21.689  0.00  0.00    +0.000 A 
ENDROOT
BRANCH   5   7
ATOM      7  N   UNL     1       1.400  11.051  19.864  0.00  0.00    +0.000 N 
ATOM      8  C   UNL     1       0.892  12.271  19.174  0.00  0.00    +0.000 C 
ATOM      9  C   UNL     1      -0.374  11.762  18.581  0.00  0.00    +0.000 A 
ATOM     10  C   UNL     1      -1.616  12.359  18.520  0.00  0.00    +0.000 A 
ATOM     11  F   UNL     1      -1.777  13.637  18.887  0.00  0.00    +0.000 F 
ATOM     12  C   UNL     1      -2.728  11.576  18.221  0.00  0.00    +0.000 A 
ATOM     13  C   UNL     1      -2.567  10.207  17.964  0.00  0.00    +0.000 A 
ATOM     14  F   UNL     1      -3.654   9.454  17.755  0.00  0.00    +0.000 F 
ATOM     15  C   UNL     1      -1.325   9.592  18.025  0.00  0.00    +0.000 A 
ATOM     16  C   UNL     1      -0.247  10.393  18.356  0.00  0.00    +0.000 A 
ATOM     17  C   UNL     1       0.989   9.958  19.048  0.00  0.00    +0.000 C 
ATOM     18  O   UNL     1       1.400   8.814  19.054  0.00  0.00    +0.000 OA
ENDBRANCH   5   7
BRANCH   1  19
ATOM     19  C   UNL     1      -1.876  13.276  22.886  0.00  0.00    +0.000 C 
ATOM     20  C   UNL     1      -1.488  14.199  24.084  0.00  0.00    +0.000 C 
ATOM     21  O   UNL     1      -0.922  15.190  23.194  0.00  0.00    +0.000 OA
ATOM     22  C   UNL     1      -1.612  14.583  22.075  0.00  0.00    +0.000 C 
BRANCH  19  26
ATOM     23  C   UNL     1      -6.302  13.686  23.815  0.00  0.00    +0.000 C 
ATOM     24  N   UNL     1      -5.520  12.469  23.541  0.00  0.00    +0.000 NA
ATOM     25  C   UNL     1      -4.135  12.635  24.086  0.00  0.00    +0.000 C 
ATOM     26  C   UNL     1      -3.282  12.812  22.879  0.00  0.00    +0.000 C 
ATOM     27  C   UNL     1      -4.031  12.622  21.794  0.00  0.00    +0.000 C 
ATOM     28  N   UNL     1      -5.348  12.413  22.114  0.00  0.00    +0.000 N 
ATOM     29  H   UNL     1      -5.783  11.618  21.640  0.00  0.00    +0.000 HD
ENDBRANCH  19  26
ENDBRANCH   1  19
TORSDOF 3
ENDMDL
MODEL 8
REMARK VINA RESULT:      -7.6      3.871      6.569
REMARK  Name = 
REMARK  4 active torsions:
REMARK  status: ('A' for Active; 'I' for Inactive)
REMARK    1  A    between atoms: C_1  and  N_2
REMARK    2  A    between atoms: C_4  and  C_5
REMARK    3  A    between atoms: C_5  and  C_6
REMARK    4  A    between atoms: C_10  and  N_11
REMARK                            x       y       z     vdW  Elec       q    Type
REMARK                         _______ _______ _______ _____ _____    ______ ____
ROOT
ATOM      1  C   UNL     1       4.625   6.139  18.047  0.00  0.00    +0.000 A 
ATOM      2  C   UNL     1       4.277   7.399  17.509  0.00  0.00    +0.000 A 
ATOM      3  C   UNL     1       3.092   8.051  17.845  0.00  0.00    +0.000 A 
ATOM      4  C   UNL     1       2.161   7.411  18.649  0.00  0.00    +0.000 A 
ATOM      5  C   UNL     1       2.383   6.085  19.039  0.00  0.00    +0.000 A 
ATOM      6  C   UNL     1       3.661   5.536  18.879  0.00  0.00    +0.000 A 
ENDROOT
BRANCH   5   7
ATOM      7  N   UNL     1       1.262   5.150  19.143  0.00  0.00    +0.000 N 
ATOM      8  C   UNL     1       1.411   4.323  20.374  0.00  0.00    +0.000 C 
ATOM      9  C   UNL     1       2.178   3.160  19.850  0.00  0.00    +0.000 A 
ATOM     10  C   UNL     1       3.247   2.492  20.409  0.00  0.00    +0.000 A 
ATOM     11  F   UNL     1       3.634   2.752  21.664  0.00  0.00    +0.000 F 
ATOM     12  C   UNL     1       4.017   1.655  19.603  0.00  0.00    +0.000 A 
ATOM     13  C   UNL     1       3.680   1.488  18.252  0.00  0.00    +0.000 A 
ATOM     14  F   UNL     1       4.475   0.743  17.474  0.00  0.00    +0.000 F 
ATOM     15  C   UNL     1       2.610   2.157  17.676  0.00  0.00    +0.000 A 
ATOM     16  C   UNL     1       1.888   3.004  18.496  0.00  0.00    +0.000 A 
ATOM     17  C   UNL     1       1.151   4.217  18.073  0.00  0.00    +0.000 C 
ATOM     18  O   UNL     1       0.743   4.407  16.943  0.00  0.00    +0.000 OA
ENDBRANCH   5   7
BRANCH   1  19
ATOM     19  C   UNL     1       6.014   5.407  17.673  0.00  0.00    +0.000 C 
ATOM     20  C   UNL     1       7.351   6.160  17.963  0.00  0.00    +0.000 C 
ATOM     21  O   UNL     1       7.564   5.405  19.179  0.00  0.00    +0.000 OA
ATOM     22  C   UNL     1       6.585   4.429  18.748  0.00  0.00    +0.000 C 
BRANCH  19  26
ATOM     23  C   UNL     1       7.338   4.843  13.366  0.00  0.00    +0.000 C 
ATOM     24  N   UNL     1       6.012   4.622  13.966  0.00  0.00    +0.000 NA
ATOM     25  C   UNL     1       5.787   5.625  15.055  0.00  0.00    +0.000 C 
ATOM     26  C   UNL     1       5.895   4.835  16.312  0.00  0.00    +0.000 C 
ATOM     27  C   UNL     1       6.012   3.547  15.999  0.00  0.00    +0.000 C 
ATOM     28  N   UNL     1       6.081   3.355  14.643  0.00  0.00    +0.000 N 
ATOM     29  H   UNL     1       5.469   2.619  14.283  0.00  0.00    +0.000 HD
ENDBRANCH  19  26
ENDBRANCH   1  19
TORSDOF 3
ENDMDL
MODEL 9
REMARK VINA RESULT:      -7.5      2.459      3.475
REMARK  Name = 
REMARK  4 active torsions:
REMARK  status: ('A' for Active; 'I' for Inactive)
REMARK    1  A    between atoms: C_1  and  N_2
REMARK    2  A    between atoms: C_4  and  C_5
REMARK    3  A    between atoms: C_5  and  C_6
REMARK    4  A    between atoms: C_10  and  N_11
REMARK                            x       y       z     vdW  Elec       q    Type
REMARK                         _______ _______ _______ _____ _____    ______ ____
ROOT
ATOM      1  C   UNL     1       1.194   8.940  19.499  0.00  0.00    +0.000 A 
ATOM      2  C   UNL     1       1.016   8.295  20.743  0.00  0.00    +0.000 A 
ATOM      3  C   UNL     1       1.695   7.126  21.079  0.00  0.00    +0.000 A 
ATOM      4  C   UNL     1       2.496   6.501  20.135  0.00  0.00    +0.000 A 
ATOM      5  C   UNL     1       2.540   7.004  18.829  0.00  0.00    +0.000 A 
ATOM      6  C   UNL     1       2.034   8.285  18.578  0.00  0.00    +0.000 A 
ENDROOT
BRANCH   5   7
ATOM      7  N   UNL     1       2.639   6.089  17.691  0.00  0.00    +0.000 N 
ATOM      8  C   UNL     1       1.543   5.081  17.761  0.00  0.00    +0.000 C 
ATOM      9  C   UNL     1       2.198   3.995  18.540  0.00  0.00    +0.000 A 
ATOM     10  C   UNL     1       1.694   3.226  19.568  0.00  0.00    +0.000 A 
ATOM     11  F   UNL     1       0.396   3.285  19.889  0.00  0.00    +0.000 F 
ATOM     12  C   UNL     1       2.578   2.506  20.368  0.00  0.00    +0.000 A 
ATOM     13  C   UNL     1       3.954   2.553  20.103  0.00  0.00    +0.000 A 
ATOM     14  F   UNL     1       4.794   1.917  20.929  0.00  0.00    +0.000 F 
ATOM     15  C   UNL     1       4.475   3.325  19.076  0.00  0.00    +0.000 A 
ATOM     16  C   UNL     1       3.573   4.053  18.321  0.00  0.00    +0.000 A 
ATOM     17  C   UNL     1       3.844   5.332  17.625  0.00  0.00    +0.000 C 
ATOM     18  O   UNL     1       4.950   5.700  17.282  0.00  0.00    +0.000 OA
ENDBRANCH   5   7
BRANCH   1  19
ATOM     19  C   UNL     1       0.423  10.311  19.132  0.00  0.00    +0.000 C 
ATOM     20  C   UNL     1      -0.358  10.384  17.781  0.00  0.00    +0.000 C 
ATOM     21  O   UNL     1      -1.619  10.140  18.447  0.00  0.00    +0.000 OA
ATOM     22  C   UNL     1      -1.013  10.469  19.721  0.00  0.00    +0.000 C 
BRANCH  19  26
ATOM     23  C   UNL     1       1.952  14.536  18.473  0.00  0.00    +0.000 C 
ATOM     24  N   UNL     1       2.650  13.376  19.053  0.00  0.00    +0.000 NA
ATOM     25  C   UNL     1       2.181  12.126  18.375  0.00  0.00    +0.000 C 
ATOM     26  C   UNL     1       1.333  11.449  19.395  0.00  0.00    +0.000 C 
ATOM     27  C   UNL     1       1.420  12.123  20.539  0.00  0.00    +0.000 C 
ATOM     28  N   UNL     1       2.179  13.258  20.407  0.00  0.00    +0.000 N 
ATOM     29  H   UNL     1       2.880  13.392  21.140  0.00  0.00    +0.000 HD
ENDBRANCH  19  26
ENDBRANCH   1  19
TORSDOF 3
ENDMDL
