MODEL 1
REMARK VINA RESULT:      -8.3      0.000      0.000
REMARK  Name = 
REMARK  7 active torsions:
REMARK  status: ('A' for Active; 'I' for Inactive)
REMARK    1  A    between atoms: C_2  and  CA_18
REMARK    2  A    between atoms: N_3  and  CA_4
REMARK    3  A    between atoms: CA_4  and  CB_5
REMARK    4  A    between atoms: CA_4  and  C_15
REMARK    5  A    between atoms: CB_5  and  CG_6
REMARK    6  A    between atoms: C_15  and  OXT_17
REMARK    7  A    between atoms: C_22  and  C_23
REMARK                            x       y       z     vdW  Elec       q    Type
REMARK                         _______ _______ _______ _____ _____    ______ ____
ROOT
ATOM      1  CA  UNL     1       3.286   3.722  18.176  0.00  0.00    +0.000 C 
ENDROOT
BRANCH   1   4
ATOM      2  O   UNL     1       3.370   5.547  20.257  0.00  0.00    +0.000 OA
ATOM      3  C   UNL     1       2.832   5.914  19.214  0.00  0.00    +0.000 C 
ATOM      4  N   UNL     1       2.693   5.075  18.122  0.00  0.00    +0.000 N 
ATOM      5  H   UNL     1       2.353   5.476  17.252  0.00  0.00    +0.000 HD
BRANCH   3   6
ATOM      6  CA  UNL     1       2.238   7.272  19.110  0.00  0.00    +0.000 A 
ATOM      7  C   UNL     1       2.471   7.985  17.956  0.00  0.00    +0.000 A 
ATOM      8  C   UNL     1       1.983   9.258  17.954  0.00  0.00    +0.000 A 
ATOM      9  N   UNL     1       1.309   9.780  18.994  0.00  0.00    +0.000 NA
ATOM     10  C   UNL     1       1.118   9.009  20.089  0.00  0.00    +0.000 A 
ATOM     11  N   UNL     1       1.575   7.745  20.194  0.00  0.00    +0.000 NA
BRANCH  10  12
ATOM     12  C   UNL     1       0.357   9.625  21.236  0.00  0.00    +0.000 C 
ATOM     13  C   UNL     1       0.888   9.430  22.642  0.00  0.00    +0.000 C 
ATOM     14  C   UNL     1      -0.408   8.794  22.238  0.00  0.00    +0.000 C 
ENDBRANCH  10  12
ENDBRANCH   3   6
ENDBRANCH   1   4
BRANCH   1  15
ATOM     15  C   UNL     1       2.169   2.668  18.102  0.00  0.00    +0.000 C 
ATOM     16  O   UNL     1       0.982   2.926  17.960  0.00  0.00    +0.000 OA
BRANCH  15  17
ATOM     17  OXT UNL     1       2.610   1.393  18.261  0.00  0.00    +0.000 OA
ATOM     18  HXT UNL     1       3.582   1.368  18.143  0.00  0.00    +0.000 HD
ENDBRANCH  15  17
ENDBRANCH   1  15
BRANCH   1  19
ATOM     19  CB  UNL     1       4.326   3.443  17.080  0.00  0.00    +0.000 C 
BRANCH  19  20
ATOM     20  CG  UNL     1       5.156   4.643  16.723  0.00  0.00    +0.000 A 
ATOM     21  CD1 UNL     1       5.140   5.339  15.530  0.00  0.00    +0.000 A 
ATOM     22  NE1 UNL     1       6.061   6.352  15.606  0.00  0.00    +0.000 N 
ATOM     23  CE2 UNL     1       6.683   6.335  16.833  0.00  0.00    +0.000 A 
ATOM     24  CZ2 UNL     1       7.691   7.160  17.346  0.00  0.00    +0.000 A 
ATOM     25  CH2 UNL     1       8.131   6.912  18.649  0.00  0.00    +0.000 A 
ATOM     26  CZ3 UNL     1       7.574   5.888  19.411  0.00  0.00    +0.000 A 
ATOM     27  CE3 UNL     1       6.566   5.075  18.884  0.00  0.00    +0.000 A 
ATOM     28  CD2 UNL     1       6.119   5.290  17.565  0.00  0.00    +0.000 A 
ATOM     29  HE1 UNL     1       6.258   7.019  14.874  0.00  0.00    +0.000 HD
ENDBRANCH  19  20
ENDBRANCH   1  19
TORSDOF 7
ENDMDL
MODEL 2
REMARK VINA RESULT:      -8.2      2.041      3.142
REMARK  Name = 
REMARK  7 active torsions:
REMARK  status: ('A' for Active; 'I' for Inactive)
REMARK    1  A    between atoms: C_2  and  CA_18
REMARK    2  A    between atoms: N_3  and  CA_4
REMARK    3  A    between atoms: CA_4  and  CB_5
REMARK    4  A    between atoms: CA_4  and  C_15
REMARK    5  A    between atoms: CB_5  and  CG_6
REMARK    6  A    between atoms: C_15  and  OXT_17
REMARK    7  A    between atoms: C_22  and  C_23
REMARK                            x       y       z     vdW  Elec       q    Type
REMARK                         _______ _______ _______ _____ _____    ______ ____
ROOT
ATOM      1  CA  UNL     1       4.362   4.387  17.975  0.00  0.00    +0.000 C 
ENDROOT
BRANCH   1   4
ATOM      2  O   UNL     1       4.634   7.128  17.685  0.00  0.00    +0.000 OA
ATOM      3  C   UNL     1       3.582   6.720  18.172  0.00  0.00    +0.000 C 
ATOM      4  N   UNL     1       3.349   5.376  18.405  0.00  0.00    +0.000 N 
ATOM      5  H   UNL     1       2.415   5.094  18.691  0.00  0.00    +0.000 HD
BRANCH   3   6
ATOM      6  CA  UNL     1       2.529   7.677  18.601  0.00  0.00    +0.000 A 
ATOM      7  C   UNL     1       2.004   8.521  17.648  0.00  0.00    +0.000 A 
ATOM      8  C   UNL     1       1.113   9.439  18.117  0.00  0.00    +0.000 A 
ATOM      9  N   UNL     1       0.757   9.513  19.410  0.00  0.00    +0.000 NA
ATOM     10  C   UNL     1       1.315   8.641  20.282  0.00  0.00    +0.000 A 
ATOM     11  N   UNL     1       2.217   7.707  19.920  0.00  0.00    +0.000 NA
BRANCH  10  12
ATOM     12  C   UNL     1       0.891   8.750  21.725  0.00  0.00    +0.000 C 
ATOM     13  C   UNL     1      -0.577   8.580  22.061  0.00  0.00    +0.000 C 
ATOM     14  C   UNL     1       0.081   9.914  22.244  0.00  0.00    +0.000 C 
ENDBRANCH  10  12
ENDBRANCH   3   6
ENDBRANCH   1   4
BRANCH   1  15
ATOM     15  C   UNL     1       4.196   3.095  18.792  0.00  0.00    +0.000 C 
ATOM     16  O   UNL     1       3.214   2.368  18.745  0.00  0.00    +0.000 OA
BRANCH  15  17
ATOM     17  OXT UNL     1       5.235   2.842  19.630  0.00  0.00    +0.000 OA
ATOM     18  HXT UNL     1       5.995   3.409  19.386  0.00  0.00    +0.000 HD
ENDBRANCH  15  17
ENDBRANCH   1  15
BRANCH   1  19
ATOM     19  CB  UNL     1       4.324   4.054  16.477  0.00  0.00    +0.000 C 
BRANCH  19  20
ATOM     20  CG  UNL     1       5.565   4.470  15.740  0.00  0.00    +0.000 A 
ATOM     21  CD1 UNL     1       6.637   5.178  16.250  0.00  0.00    +0.000 A 
ATOM     22  NE1 UNL     1       7.550   5.367  15.244  0.00  0.00    +0.000 N 
ATOM     23  CE2 UNL     1       7.096   4.794  14.079  0.00  0.00    +0.000 A 
ATOM     24  CZ2 UNL     1       7.679   4.753  12.806  0.00  0.00    +0.000 A 
ATOM     25  CH2 UNL     1       6.984   4.080  11.797  0.00  0.00    +0.000 A 
ATOM     26  CZ3 UNL     1       5.763   3.463  12.056  0.00  0.00    +0.000 A 
ATOM     27  CE3 UNL     1       5.197   3.512  13.333  0.00  0.00    +0.000 A 
ATOM     28  CD2 UNL     1       5.866   4.201  14.364  0.00  0.00    +0.000 A 
ATOM     29  HE1 UNL     1       8.430   5.853  15.338  0.00  0.00    +0.000 HD
ENDBRANCH  19  20
ENDBRANCH   1  19
TORSDOF 7
ENDMDL
MODEL 3
REMARK VINA RESULT:      -8.0      1.798      2.915
REMARK  Name = 
REMARK  7 active torsions:
REMARK  status: ('A' for Active; 'I' for Inactive)
REMARK    1  A    between atoms: C_2  and  CA_18
REMARK    2  A    between atoms: N_3  and  CA_4
REMARK    3  A    between atoms: CA_4  and  CB_5
REMARK    4  A    between atoms: CA_4  and  C_15
REMARK    5  A    between atoms: CB_5  and  CG_6
REMARK    6  A    between atoms: C_15  and  OXT_17
REMARK    7  A    between atoms: C_22  and  C_23
REMARK                            x       y       z     vdW  Elec       q    Type
REMARK                         _______ _______ _______ _____ _____    ______ ____
ROOT
ATOM      1  CA  UNL     1       4.011   4.003  17.635  0.00  0.00    +0.000 C 
ENDROOT
BRANCH   1   4
ATOM      2  O   UNL     1       4.044   5.664  19.850  0.00  0.00    +0.000 OA
ATOM      3  C   UNL     1       3.319   5.996  18.914  0.00  0.00    +0.000 C 
ATOM      4  N   UNL     1       3.188   5.223  17.773  0.00  0.00    +0.000 N 
ATOM      5  H   UNL     1       2.673   5.613  16.988  0.00  0.00    +0.000 HD
BRANCH   3   6
ATOM      6  CA  UNL     1       2.487   7.225  19.003  0.00  0.00    +0.000 A 
ATOM      7  C   UNL     1       2.287   7.946  17.848  0.00  0.00    +0.000 A 
ATOM      8  C   UNL     1       1.597   9.111  18.008  0.00  0.00    +0.000 A 
ATOM      9  N   UNL     1       1.132   9.524  19.199  0.00  0.00    +0.000 NA
ATOM     10  C   UNL     1       1.367   8.751  20.284  0.00  0.00    +0.000 A 
ATOM     11  N   UNL     1       2.052   7.591  20.233  0.00  0.00    +0.000 NA
BRANCH  10  12
ATOM     12  C   UNL     1       0.829   9.243  21.604  0.00  0.00    +0.000 C 
ATOM     13  C   UNL     1      -0.494   8.690  22.096  0.00  0.00    +0.000 C 
ATOM     14  C   UNL     1      -0.388  10.132  21.700  0.00  0.00    +0.000 C 
ENDBRANCH  10  12
ENDBRANCH   3   6
ENDBRANCH   1   4
BRANCH   1  15
ATOM     15  C   UNL     1       3.302   2.824  18.322  0.00  0.00    +0.000 C 
ATOM     16  O   UNL     1       3.832   2.070  19.125  0.00  0.00    +0.000 OA
BRANCH  15  17
ATOM     17  OXT UNL     1       2.016   2.652  17.920  0.00  0.00    +0.000 OA
ATOM     18  HXT UNL     1       1.449   2.492  18.703  0.00  0.00    +0.000 HD
ENDBRANCH  15  17
ENDBRANCH   1  15
BRANCH   1  19
ATOM     19  CB  UNL     1       4.341   3.624  16.183  0.00  0.00    +0.000 C 
BRANCH  19  20
ATOM     20  CG  UNL     1       5.558   4.321  15.645  0.00  0.00    +0.000 A 
ATOM     21  CD1 UNL     1       6.404   5.168  16.334  0.00  0.00    +0.000 A 
ATOM     22  NE1 UNL     1       7.377   5.605  15.473  0.00  0.00    +0.000 N 
ATOM     23  CE2 UNL     1       7.185   5.059  14.225  0.00  0.00    +0.000 A 
ATOM     24  CZ2 UNL     1       7.913   5.232  13.042  0.00  0.00    +0.000 A 
ATOM     25  CH2 UNL     1       7.487   4.530  11.910  0.00  0.00    +0.000 A 
ATOM     26  CZ3 UNL     1       6.386   3.680  11.967  0.00  0.00    +0.000 A 
ATOM     27  CE3 UNL     1       5.672   3.517  13.158  0.00  0.00    +0.000 A 
ATOM     28  CD2 UNL     1       6.067   4.228  14.308  0.00  0.00    +0.000 A 
ATOM     29  HE1 UNL     1       8.129   6.235  15.712  0.00  0.00    +0.000 HD
ENDBRANCH  19  20
ENDBRANCH   1  19
TORSDOF 7
ENDMDL
MODEL 4
REMARK VINA RESULT:      -7.7      1.826      7.270
REMARK  Name = 
REMARK  7 active torsions:
REMARK  status: ('A' for Active; 'I' for Inactive)
REMARK    1  A    between atoms: C_2  and  CA_18
REMARK    2  A    between atoms: N_3  and  CA_4
REMARK    3  A    between atoms: CA_4  and  CB_5
REMARK    4  A    between atoms: CA_4  and  C_15
REMARK    5  A    between atoms: CB_5  and  CG_6
REMARK    6  A    between atoms: C_15  and  OXT_17
REMARK    7  A    between atoms: C_22  and  C_23
REMARK                            x       y       z     vdW  Elec       q    Type
REMARK                         _______ _______ _______ _____ _____    ______ ____
ROOT
ATOM      1  CA  UNL     1       2.005   5.737  20.267  0.00  0.00    +0.000 C 
ENDROOT
BRANCH   1   4
ATOM      2  O   UNL     1       2.802   4.152  18.141  0.00  0.00    +0.000 OA
ATOM      3  C   UNL     1       3.661   4.859  18.664  0.00  0.00    +0.000 C 
ATOM      4  N   UNL     1       3.391   5.660  19.760  0.00  0.00    +0.000 N 
ATOM      5  H   UNL     1       4.109   6.311  20.066  0.00  0.00    +0.000 HD
BRANCH   3   6
ATOM      6  CA  UNL     1       5.065   4.826  18.175  0.00  0.00    +0.000 A 
ATOM      7  C   UNL     1       6.045   5.309  19.012  0.00  0.00    +0.000 A 
ATOM      8  C   UNL     1       7.298   5.341  18.475  0.00  0.00    +0.000 A 
ATOM      9  N   UNL     1       7.566   4.921  17.227  0.00  0.00    +0.000 NA
ATOM     10  C   UNL     1       6.545   4.454  16.472  0.00  0.00    +0.000 A 
ATOM     11  N   UNL     1       5.269   4.397  16.905  0.00  0.00    +0.000 NA
BRANCH  10  12
ATOM     12  C   UNL     1       6.881   3.989  15.078  0.00  0.00    +0.000 C 
ATOM     13  C   UNL     1       6.998   5.027  13.979  0.00  0.00    +0.000 C 
ATOM     14  C   UNL     1       5.879   4.029  13.948  0.00  0.00    +0.000 C 
ENDBRANCH  10  12
ENDBRANCH   3   6
ENDBRANCH   1   4
BRANCH   1  15
ATOM     15  C   UNL     1       1.600   4.380  20.866  0.00  0.00    +0.000 C 
ATOM     16  O   UNL     1       2.181   3.830  21.791  0.00  0.00    +0.000 OA
BRANCH  15  17
ATOM     17  OXT UNL     1       0.546   3.798  20.237  0.00  0.00    +0.000 OA
ATOM     18  HXT UNL     1       0.624   3.941  19.271  0.00  0.00    +0.000 HD
ENDBRANCH  15  17
ENDBRANCH   1  15
BRANCH   1  19
ATOM     19  CB  UNL     1       1.772   6.844  21.307  0.00  0.00    +0.000 C 
BRANCH  19  20
ATOM     20  CG  UNL     1       1.277   8.130  20.711  0.00  0.00    +0.000 A 
ATOM     21  CD1 UNL     1       1.500   8.592  19.428  0.00  0.00    +0.000 A 
ATOM     22  NE1 UNL     1       0.891   9.814  19.295  0.00  0.00    +0.000 N 
ATOM     23  CE2 UNL     1       0.270  10.164  20.471  0.00  0.00    +0.000 A 
ATOM     24  CZ2 UNL     1      -0.453  11.317  20.802  0.00  0.00    +0.000 A 
ATOM     25  CH2 UNL     1      -0.989  11.398  22.091  0.00  0.00    +0.000 A 
ATOM     26  CZ3 UNL     1      -0.819  10.360  23.004  0.00  0.00    +0.000 A 
ATOM     27  CE3 UNL     1      -0.097   9.215  22.655  0.00  0.00    +0.000 A 
ATOM     28  CD2 UNL     1       0.472   9.117  21.370  0.00  0.00    +0.000 A 
ATOM     29  HE1 UNL     1       0.893  10.379  18.458  0.00  0.00    +0.000 HD
ENDBRANCH  19  20
ENDBRANCH   1  19
TORSDOF 7
ENDMDL
MODEL 5
REMARK VINA RESULT:      -7.6      1.610      6.783
REMARK  Name = 
REMARK  7 active torsions:
REMARK  status: ('A' for Active; 'I' for Inactive)
REMARK    1  A    between atoms: C_2  and  CA_18
REMARK    2  A    between atoms: N_3  and  CA_4
REMARK    3  A    between atoms: CA_4  and  CB_5
REMARK    4  A    between atoms: CA_4  and  C_15
REMARK    5  A    between atoms: CB_5  and  CG_6
REMARK    6  A    between atoms: C_15  and  OXT_17
REMARK    7  A    between atoms: C_22  and  C_23
REMARK                            x       y       z     vdW  Elec       q    Type
REMARK                         _______ _______ _______ _____ _____    ______ ____
ROOT
ATOM      1  CA  UNL     1       1.898   5.694  20.089  0.00  0.00    +0.000 C 
ENDROOT
BRANCH   1   4
ATOM      2  O   UNL     1       2.065   4.648  17.531  0.00  0.00    +0.000 OA
ATOM      3  C   UNL     1       3.109   5.058  18.037  0.00  0.00    +0.000 C 
ATOM      4  N   UNL     1       3.156   5.562  19.325  0.00  0.00    +0.000 N 
ATOM      5  H   UNL     1       4.020   5.998  19.636  0.00  0.00    +0.000 HD
BRANCH   3   6
ATOM      6  CA  UNL     1       4.394   4.960  17.296  0.00  0.00    +0.000 A 
ATOM      7  C   UNL     1       4.585   3.862  16.488  0.00  0.00    +0.000 A 
ATOM      8  C   UNL     1       5.816   3.778  15.909  0.00  0.00    +0.000 A 
ATOM      9  N   UNL     1       6.773   4.703  16.097  0.00  0.00    +0.000 NA
ATOM     10  C   UNL     1       6.501   5.756  16.902  0.00  0.00    +0.000 A 
ATOM     11  N   UNL     1       5.321   5.921  17.532  0.00  0.00    +0.000 NA
BRANCH  10  12
ATOM     12  C   UNL     1       7.597   6.775  17.089  0.00  0.00    +0.000 C 
ATOM     13  C   UNL     1       8.038   7.111  18.500  0.00  0.00    +0.000 C 
ATOM     14  C   UNL     1       7.336   8.144  17.671  0.00  0.00    +0.000 C 
ENDBRANCH  10  12
ENDBRANCH   3   6
ENDBRANCH   1   4
BRANCH   1  15
ATOM     15  C   UNL     1       1.565   4.354  20.766  0.00  0.00    +0.000 C 
ATOM     16  O   UNL     1       2.176   3.887  21.716  0.00  0.00    +0.000 OA
BRANCH  15  17
ATOM     17  OXT UNL     1       0.539   3.686  20.177  0.00  0.00    +0.000 OA
ATOM     18  HXT UNL     1      -0.071   3.353  20.867  0.00  0.00    +0.000 HD
ENDBRANCH  15  17
ENDBRANCH   1  15
BRANCH   1  19
ATOM     19  CB  UNL     1       1.914   6.810  21.145  0.00  0.00    +0.000 C 
BRANCH  19  20
ATOM     20  CG  UNL     1       1.382   8.120  20.640  0.00  0.00    +0.000 A 
ATOM     21  CD1 UNL     1       1.557   8.657  19.379  0.00  0.00    +0.000 A 
ATOM     22  NE1 UNL     1       0.928   9.875  19.335  0.00  0.00    +0.000 N 
ATOM     23  CE2 UNL     1       0.341  10.149  20.548  0.00  0.00    +0.000 A 
ATOM     24  CZ2 UNL     1      -0.386  11.270  20.967  0.00  0.00    +0.000 A 
ATOM     25  CH2 UNL     1      -0.880  11.270  22.275  0.00  0.00    +0.000 A 
ATOM     26  CZ3 UNL     1      -0.668  10.185  23.121  0.00  0.00    +0.000 A 
ATOM     27  CE3 UNL     1       0.058   9.072  22.685  0.00  0.00    +0.000 A 
ATOM     28  CD2 UNL     1       0.586   9.055  21.379  0.00  0.00    +0.000 A 
ATOM     29  HE1 UNL     1       0.895  10.487  18.532  0.00  0.00    +0.000 HD
ENDBRANCH  19  20
ENDBRANCH   1  19
TORSDOF 7
ENDMDL
MODEL 6
REMARK VINA RESULT:      -7.6      1.652      2.442
REMARK  Name = 
REMARK  7 active torsions:
REMARK  status: ('A' for Active; 'I' for Inactive)
REMARK    1  A    between atoms: C_2  and  CA_18
REMARK    2  A    between atoms: N_3  and  CA_4
REMARK    3  A    between atoms: CA_4  and  CB_5
REMARK    4  A    between atoms: CA_4  and  C_15
REMARK    5  A    between atoms: CB_5  and  CG_6
REMARK    6  A    between atoms: C_15  and  OXT_17
REMARK    7  A    between atoms: C_22  and  C_23
REMARK                            x       y       z     vdW  Elec       q    Type
REMARK                         _______ _______ _______ _____ _____    ______ ____
ROOT
ATOM      1  CA  UNL     1       2.184   3.747  18.946  0.00  0.00    +0.000 C 
ENDROOT
BRANCH   1   4
ATOM      2  O   UNL     1       3.030   5.857  20.527  0.00  0.00    +0.000 OA
ATOM      3  C   UNL     1       2.334   6.134  19.552  0.00  0.00    +0.000 C 
ATOM      4  N   UNL     1       1.818   5.161  18.715  0.00  0.00    +0.000 N 
ATOM      5  H   UNL     1       1.357   5.461  17.860  0.00  0.00    +0.000 HD
BRANCH   3   6
ATOM      6  CA  UNL     1       1.956   7.544  19.272  0.00  0.00    +0.000 A 
ATOM      7  C   UNL     1       2.173   8.023  18.000  0.00  0.00    +0.000 A 
ATOM      8  C   UNL     1       1.897   9.347  17.827  0.00  0.00    +0.000 A 
ATOM      9  N   UNL     1       1.432  10.129  18.816  0.00  0.00    +0.000 NA
ATOM     10  C   UNL     1       1.241   9.577  20.037  0.00  0.00    +0.000 A 
ATOM     11  N   UNL     1       1.499   8.283  20.313  0.00  0.00    +0.000 NA
BRANCH  10  12
ATOM     12  C   UNL     1       0.717  10.482  21.123  0.00  0.00    +0.000 C 
ATOM     13  C   UNL     1      -0.757  10.834  21.120  0.00  0.00    +0.000 C 
ATOM     14  C   UNL     1       0.264  11.896  20.848  0.00  0.00    +0.000 C 
ENDBRANCH  10  12
ENDBRANCH   3   6
ENDBRANCH   1   4
BRANCH   1  15
ATOM     15  C   UNL     1       0.910   2.917  19.169  0.00  0.00    +0.000 C 
ATOM     16  O   UNL     1       0.409   2.178  18.334  0.00  0.00    +0.000 OA
BRANCH  15  17
ATOM     17  OXT UNL     1       0.338   3.111  20.387  0.00  0.00    +0.000 OA
ATOM     18  HXT UNL     1      -0.075   2.276  20.689  0.00  0.00    +0.000 HD
ENDBRANCH  15  17
ENDBRANCH   1  15
BRANCH   1  19
ATOM     19  CB  UNL     1       3.014   3.117  17.818  0.00  0.00    +0.000 C 
BRANCH  19  20
ATOM     20  CG  UNL     1       4.435   3.601  17.778  0.00  0.00    +0.000 A 
ATOM     21  CD1 UNL     1       5.285   3.775  18.853  0.00  0.00    +0.000 A 
ATOM     22  NE1 UNL     1       6.484   4.250  18.387  0.00  0.00    +0.000 N 
ATOM     23  CE2 UNL     1       6.437   4.392  17.020  0.00  0.00    +0.000 A 
ATOM     24  CZ2 UNL     1       7.411   4.855  16.127  0.00  0.00    +0.000 A 
ATOM     25  CH2 UNL     1       7.084   4.881  14.768  0.00  0.00    +0.000 A 
ATOM     26  CZ3 UNL     1       5.838   4.447  14.322  0.00  0.00    +0.000 A 
ATOM     27  CE3 UNL     1       4.878   3.985  15.228  0.00  0.00    +0.000 A 
ATOM     28  CD2 UNL     1       5.174   3.968  16.606  0.00  0.00    +0.000 A 
ATOM     29  HE1 UNL     1       7.289   4.465  18.958  0.00  0.00    +0.000 HD
ENDBRANCH  19  20
ENDBRANCH   1  19
TORSDOF 7
ENDMDL
MODEL 7
REMARK VINA RESULT:      -7.6      2.269      4.287
REMARK  Name = 
REMARK  7 active torsions:
REMARK  status: ('A' for Active; 'I' for Inactive)
REMARK    1  A    between atoms: C_2  and  CA_18
REMARK    2  A    between atoms: N_3  and  CA_4
REMARK    3  A    between atoms: CA_4  and  CB_5
REMARK    4  A    between atoms: CA_4  and  C_15
REMARK    5  A    between atoms: CB_5  and  CG_6
REMARK    6  A    between atoms: C_15  and  OXT_17
REMARK    7  A    between atoms: C_22  and  C_23
REMARK                            x       y       z     vdW  Elec       q    Type
REMARK                         _______ _______ _______ _____ _____    ______ ____
ROOT
ATOM      1  CA  UNL     1       4.531   6.232  17.211  0.00  0.00    +0.000 C 
ENDROOT
BRANCH   1   4
ATOM      2  O   UNL     1       1.820   6.365  17.759  0.00  0.00    +0.000 OA
ATOM      3  C   UNL     1       2.508   7.323  18.106  0.00  0.00    +0.000 C 
ATOM      4  N   UNL     1       3.866   7.388  17.848  0.00  0.00    +0.000 N 
ATOM      5  H   UNL     1       4.397   8.146  18.270  0.00  0.00    +0.000 HD
BRANCH   3   6
ATOM      6  CA  UNL     1       1.883   8.500  18.766  0.00  0.00    +0.000 A 
ATOM      7  C   UNL     1       1.715   9.640  18.013  0.00  0.00    +0.000 A 
ATOM      8  C   UNL     1       1.225  10.714  18.694  0.00  0.00    +0.000 A 
ATOM      9  N   UNL     1       0.913  10.667  20.001  0.00  0.00    +0.000 NA
ATOM     10  C   UNL     1       1.103   9.504  20.666  0.00  0.00    +0.000 A 
ATOM     11  N   UNL     1       1.596   8.392  20.086  0.00  0.00    +0.000 NA
BRANCH  10  12
ATOM     12  C   UNL     1       0.741   9.486  22.130  0.00  0.00    +0.000 C 
ATOM     13  C   UNL     1      -0.586   8.877  22.537  0.00  0.00    +0.000 C 
ATOM     14  C   UNL     1      -0.359  10.349  22.701  0.00  0.00    +0.000 C 
ENDBRANCH  10  12
ENDBRANCH   3   6
ENDBRANCH   1   4
BRANCH   1  15
ATOM     15  C   UNL     1       5.671   6.729  16.308  0.00  0.00    +0.000 C 
ATOM     16  O   UNL     1       6.754   7.127  16.714  0.00  0.00    +0.000 OA
BRANCH  15  17
ATOM     17  OXT UNL     1       5.356   6.739  14.986  0.00  0.00    +0.000 OA
ATOM     18  HXT UNL     1       4.435   7.053  14.874  0.00  0.00    +0.000 HD
ENDBRANCH  15  17
ENDBRANCH   1  15
BRANCH   1  19
ATOM     19  CB  UNL     1       5.079   5.194  18.202  0.00  0.00    +0.000 C 
BRANCH  19  20
ATOM     20  CG  UNL     1       4.193   3.992  18.360  0.00  0.00    +0.000 A 
ATOM     21  CD1 UNL     1       4.133   2.888  17.532  0.00  0.00    +0.000 A 
ATOM     22  NE1 UNL     1       3.182   2.029  18.020  0.00  0.00    +0.000 N 
ATOM     23  CE2 UNL     1       2.613   2.551  19.159  0.00  0.00    +0.000 A 
ATOM     24  CZ2 UNL     1       1.600   2.039  19.978  0.00  0.00    +0.000 A 
ATOM     25  CH2 UNL     1       1.225   2.794  21.093  0.00  0.00    +0.000 A 
ATOM     26  CZ3 UNL     1       1.850   4.004  21.382  0.00  0.00    +0.000 A 
ATOM     27  CE3 UNL     1       2.862   4.500  20.554  0.00  0.00    +0.000 A 
ATOM     28  CD2 UNL     1       3.245   3.769  19.412  0.00  0.00    +0.000 A 
ATOM     29  HE1 UNL     1       2.931   1.141  17.610  0.00  0.00    +0.000 HD
ENDBRANCH  19  20
ENDBRANCH   1  19
TORSDOF 7
ENDMDL
MODEL 8
REMARK VINA RESULT:      -7.5      2.303      3.503
REMARK  Name = 
REMARK  7 active torsions:
REMARK  status: ('A' for Active; 'I' for Inactive)
REMARK    1  A    between atoms: C_2  and  CA_18
REMARK    2  A    between atoms: N_3  and  CA_4
REMARK    3  A    between atoms: CA_4  and  CB_5
REMARK    4  A    between atoms: CA_4  and  C_15
REMARK    5  A    between atoms: CB_5  and  CG_6
REMARK    6  A    between atoms: C_15  and  OXT_17
REMARK    7  A    between atoms: C_22  and  C_23
REMARK                            x       y       z     vdW  Elec       q    Type
REMARK                         _______ _______ _______ _____ _____    ______ ____
ROOT
ATOM      1  CA  UNL     1       2.156   5.026  20.306  0.00  0.00    +0.000 C 
ENDROOT
BRANCH   1   4
ATOM      2  O   UNL     1       2.623   7.591  19.373  0.00  0.00    +0.000 OA
ATOM      3  C   UNL     1       1.776   7.463  20.255  0.00  0.00    +0.000 C 
ATOM      4  N   UNL     1       1.489   6.237  20.829  0.00  0.00    +0.000 N 
ATOM      5  H   UNL     1       0.694   6.179  21.461  0.00  0.00    +0.000 HD
BRANCH   3   6
ATOM      6  CA  UNL     1       1.067   8.652  20.798  0.00  0.00    +0.000 A 
ATOM      7  C   UNL     1       1.030   8.805  22.165  0.00  0.00    +0.000 A 
ATOM      8  C   UNL     1       0.288   9.859  22.609  0.00  0.00    +0.000 A 
ATOM      9  N   UNL     1      -0.351  10.699  21.777  0.00  0.00    +0.000 NA
ATOM     10  C   UNL     1      -0.258  10.481  20.445  0.00  0.00    +0.000 A 
ATOM     11  N   UNL     1       0.438   9.458  19.909  0.00  0.00    +0.000 NA
BRANCH  10  12
ATOM     12  C   UNL     1      -0.986  11.444  19.541  0.00  0.00    +0.000 C 
ATOM     13  C   UNL     1      -0.213  12.610  18.958  0.00  0.00    +0.000 C 
ATOM     14  C   UNL     1      -1.301  12.861  19.957  0.00  0.00    +0.000 C 
ENDBRANCH  10  12
ENDBRANCH   3   6
ENDBRANCH   1   4
BRANCH   1  15
ATOM     15  C   UNL     1       1.731   3.805  21.139  0.00  0.00    +0.000 C 
ATOM     16  O   UNL     1       2.327   3.397  22.125  0.00  0.00    +0.000 OA
BRANCH  15  17
ATOM     17  OXT UNL     1       0.635   3.167  20.650  0.00  0.00    +0.000 OA
ATOM     18  HXT UNL     1       0.266   2.579  21.341  0.00  0.00    +0.000 HD
ENDBRANCH  15  17
ENDBRANCH   1  15
BRANCH   1  19
ATOM     19  CB  UNL     1       1.890   4.749  18.819  0.00  0.00    +0.000 C 
BRANCH  19  20
ATOM     20  CG  UNL     1       3.043   4.090  18.117  0.00  0.00    +0.000 A 
ATOM     21  CD1 UNL     1       3.349   2.743  18.106  0.00  0.00    +0.000 A 
ATOM     22  NE1 UNL     1       4.489   2.563  17.366  0.00  0.00    +0.000 N 
ATOM     23  CE2 UNL     1       4.939   3.772  16.888  0.00  0.00    +0.000 A 
ATOM     24  CZ2 UNL     1       6.063   4.073  16.110  0.00  0.00    +0.000 A 
ATOM     25  CH2 UNL     1       6.269   5.411  15.760  0.00  0.00    +0.000 A 
ATOM     26  CZ3 UNL     1       5.377   6.402  16.161  0.00  0.00    +0.000 A 
ATOM     27  CE3 UNL     1       4.259   6.083  16.937  0.00  0.00    +0.000 A 
ATOM     28  CD2 UNL     1       4.039   4.745  17.322  0.00  0.00    +0.000 A 
ATOM     29  HE1 UNL     1       4.938   1.675  17.190  0.00  0.00    +0.000 HD
ENDBRANCH  19  20
ENDBRANCH   1  19
TORSDOF 7
ENDMDL
MODEL 9
REMARK VINA RESULT:      -7.4      1.239      2.103
REMARK  Name = 
REMARK  7 active torsions:
REMARK  status: ('A' for Active; 'I' for Inactive)
REMARK    1  A    between atoms: C_2  and  CA_18
REMARK    2  A    between atoms: N_3  and  CA_4
REMARK    3  A    between atoms: CA_4  and  CB_5
REMARK    4  A    between atoms: CA_4  and  C_15
REMARK    5  A    between atoms: CB_5  and  CG_6
REMARK    6  A    between atoms: C_15  and  OXT_17
REMARK    7  A    between atoms: C_22  and  C_23
REMARK                            x       y       z     vdW  Elec       q    Type
REMARK                         _______ _______ _______ _____ _____    ______ ____
ROOT
ATOM      1  CA  UNL     1       3.192   3.564  19.172  0.00  0.00    +0.000 C 
ENDROOT
BRANCH   1   4
ATOM      2  O   UNL     1       1.990   5.317  20.947  0.00  0.00    +0.000 OA
ATOM      3  C   UNL     1       2.287   5.760  19.840  0.00  0.00    +0.000 C 
ATOM      4  N   UNL     1       2.853   4.968  18.856  0.00  0.00    +0.000 N 
ATOM      5  H   UNL     1       3.188   5.422  18.010  0.00  0.00    +0.000 HD
BRANCH   3   6
ATOM      6  CA  UNL     1       1.980   7.171  19.485  0.00  0.00    +0.000 A 
ATOM      7  C   UNL     1       2.251   7.580  18.199  0.00  0.00    +0.000 A 
ATOM      8  C   UNL     1       2.038   8.905  17.959  0.00  0.00    +0.000 A 
ATOM      9  N   UNL     1       1.584   9.752  18.898  0.00  0.00    +0.000 NA
ATOM     10  C   UNL     1       1.337   9.266  20.136  0.00  0.00    +0.000 A 
ATOM     11  N   UNL     1       1.529   7.976  20.478  0.00  0.00    +0.000 NA
BRANCH  10  12
ATOM     12  C   UNL     1       0.826  10.242  21.166  0.00  0.00    +0.000 C 
ATOM     13  C   UNL     1      -0.390   9.857  21.985  0.00  0.00    +0.000 C 
ATOM     14  C   UNL     1      -0.480  10.983  20.999  0.00  0.00    +0.000 C 
ENDBRANCH  10  12
ENDBRANCH   3   6
ENDBRANCH   1   4
BRANCH   1  15
ATOM     15  C   UNL     1       2.588   2.637  18.104  0.00  0.00    +0.000 C 
ATOM     16  O   UNL     1       2.071   3.021  17.065  0.00  0.00    +0.000 OA
BRANCH  15  17
ATOM     17  OXT UNL     1       2.630   1.320  18.438  0.00  0.00    +0.000 OA
ATOM     18  HXT UNL     1       1.909   1.122  19.070  0.00  0.00    +0.000 HD
ENDBRANCH  15  17
ENDBRANCH   1  15
BRANCH   1  19
ATOM     19  CB  UNL     1       4.698   3.290  19.294  0.00  0.00    +0.000 C 
BRANCH  19  20
ATOM     20  CG  UNL     1       5.551   4.314  18.601  0.00  0.00    +0.000 A 
ATOM     21  CD1 UNL     1       6.207   5.381  19.185  0.00  0.00    +0.000 A 
ATOM     22  NE1 UNL     1       6.857   6.082  18.201  0.00  0.00    +0.000 N 
ATOM     23  CE2 UNL     1       6.639   5.492  16.977  0.00  0.00    +0.000 A 
ATOM     24  CZ2 UNL     1       7.084   5.865  15.703  0.00  0.00    +0.000 A 
ATOM     25  CH2 UNL     1       6.710   5.058  14.624  0.00  0.00    +0.000 A 
ATOM     26  CZ3 UNL     1       5.934   3.918  14.817  0.00  0.00    +0.000 A 
ATOM     27  CE3 UNL     1       5.500   3.560  16.097  0.00  0.00    +0.000 A 
ATOM     28  CD2 UNL     1       5.845   4.366  17.199  0.00  0.00    +0.000 A 
ATOM     29  HE1 UNL     1       7.417   6.910  18.346  0.00  0.00    +0.000 HD
ENDBRANCH  19  20
ENDBRANCH   1  19
TORSDOF 7
ENDMDL
