MODEL 1
REMARK VINA RESULT:      -8.5      0.000      0.000
REMARK  Name = 
REMARK  5 active torsions:
REMARK  status: ('A' for Active; 'I' for Inactive)
REMARK    1  A    between atoms: C_1  and  C_2
REMARK    2  A    between atoms: C_4  and  C_5
REMARK    3  A    between atoms: C_9  and  N_10
REMARK    4  A    between atoms: C_11  and  C_13
REMARK    5  A    between atoms: C_13  and  C_16
REMARK                            x       y       z     vdW  Elec       q    Type
REMARK                         _______ _______ _______ _____ _____    ______ ____
ROOT
ATOM      1  C   UNL     1       1.013   9.089  20.152  0.00  0.00    +0.000 A 
ATOM      2  C   UNL     1       1.044   9.965  19.059  0.00  0.00    +0.000 A 
ATOM      3  C   UNL     1       1.732   9.626  17.898  0.00  0.00    +0.000 A 
ATOM      4  C   UNL     1       2.425   8.419  17.828  0.00  0.00    +0.000 A 
ATOM      5  C   UNL     1       2.436   7.537  18.912  0.00  0.00    +0.000 A 
ATOM      6  C   UNL     1       1.690   7.859  20.058  0.00  0.00    +0.000 A 
ENDROOT
BRANCH   1  10
ATOM      7  C   UNL     1      -1.826  11.663  23.241  0.00  0.00    +0.000 C 
ATOM      8  C   UNL     1      -0.914  10.670  22.643  0.00  0.00    +0.000 A 
ATOM      9  N   UNL     1      -0.555  10.563  21.384  0.00  0.00    +0.000 NA
ATOM     10  C   UNL     1       0.327   9.503  21.373  0.00  0.00    +0.000 A 
ATOM     11  N   UNL     1       0.504   8.938  22.580  0.00  0.00    +0.000 NA
ATOM     12  N   UNL     1      -0.283   9.696  23.359  0.00  0.00    +0.000 N 
ATOM     13  H   UNL     1      -0.330   9.504  24.353  0.00  0.00    +0.000 HD
ENDBRANCH   1  10
BRANCH   5  14
ATOM     14  N   UNL     1       3.183   6.338  18.907  0.00  0.00    +0.000 N 
ATOM     15  C   UNL     1       2.762   5.116  18.374  0.00  0.00    +0.000 C 
ATOM     16  O   UNL     1       1.692   4.935  17.787  0.00  0.00    +0.000 OA
ATOM     17  H   UNL     1       4.150   6.396  19.211  0.00  0.00    +0.000 HD
BRANCH  15  18
ATOM     18  C   UNL     1       3.804   3.974  18.525  0.00  0.00    +0.000 C 
ATOM     19  F   UNL     1       4.221   3.912  19.835  0.00  0.00    +0.000 F 
ATOM     20  F   UNL     1       3.209   2.758  18.302  0.00  0.00    +0.000 F 
BRANCH  18  21
ATOM     21  C   UNL     1       4.983   4.171  17.579  0.00  0.00    +0.000 A 
ATOM     22  C   UNL     1       4.790   4.129  16.189  0.00  0.00    +0.000 A 
ATOM     23  C   UNL     1       5.848   4.383  15.315  0.00  0.00    +0.000 A 
ATOM     24  C   UNL     1       7.113   4.678  15.817  0.00  0.00    +0.000 A 
ATOM     25  C   UNL     1       7.325   4.709  17.194  0.00  0.00    +0.000 A 
ATOM     26  C   UNL     1       6.267   4.460  18.071  0.00  0.00    +0.000 A 
ENDBRANCH  18  21
ENDBRANCH  15  18
ENDBRANCH   5  14
TORSDOF 4
ENDMDL
MODEL 2
REMARK VINA RESULT:      -8.3      0.219      1.007
REMARK  Name = 
REMARK  5 active torsions:
REMARK  status: ('A' for Active; 'I' for Inactive)
REMARK    1  A    between atoms: C_1  and  C_2
REMARK    2  A    between atoms: C_4  and  C_5
REMARK    3  A    between atoms: C_9  and  N_10
REMARK    4  A    between atoms: C_11  and  C_13
REMARK    5  A    between atoms: C_13  and  C_16
REMARK                            x       y       z     vdW  Elec       q    Type
REMARK                         _______ _______ _______ _____ _____    ______ ____
ROOT
ATOM      1  C   UNL     1       0.892   9.208  20.139  0.00  0.00    +0.000 A 
ATOM      2  C   UNL     1       0.905  10.057  19.025  0.00  0.00    +0.000 A 
ATOM      3  C   UNL     1       1.609   9.709  17.877  0.00  0.00    +0.000 A 
ATOM      4  C   UNL     1       2.335   8.520  17.841  0.00  0.00    +0.000 A 
ATOM      5  C   UNL     1       2.363   7.666  18.947  0.00  0.00    +0.000 A 
ATOM      6  C   UNL     1       1.603   7.995  20.080  0.00  0.00    +0.000 A 
ENDROOT
BRANCH   1  10
ATOM      7  C   UNL     1      -1.658  12.001  23.289  0.00  0.00    +0.000 C 
ATOM      8  C   UNL     1      -0.912  10.903  22.649  0.00  0.00    +0.000 A 
ATOM      9  N   UNL     1      -0.460  10.850  21.416  0.00  0.00    +0.000 NA
ATOM     10  C   UNL     1       0.187   9.633  21.346  0.00  0.00    +0.000 A 
ATOM     11  N   UNL     1       0.127   8.926  22.487  0.00  0.00    +0.000 NA
ATOM     12  N   UNL     1      -0.563   9.751  23.290  0.00  0.00    +0.000 N 
ATOM     13  H   UNL     1      -0.745   9.475  24.247  0.00  0.00    +0.000 HD
ENDBRANCH   1  10
BRANCH   5  14
ATOM     14  N   UNL     1       3.143   6.488  18.976  0.00  0.00    +0.000 N 
ATOM     15  C   UNL     1       2.779   5.254  18.427  0.00  0.00    +0.000 C 
ATOM     16  O   UNL     1       1.741   5.043  17.796  0.00  0.00    +0.000 OA
ATOM     17  H   UNL     1       4.094   6.572  19.320  0.00  0.00    +0.000 HD
BRANCH  15  18
ATOM     18  C   UNL     1       3.845   4.141  18.625  0.00  0.00    +0.000 C 
ATOM     19  F   UNL     1       4.294   4.170  19.925  0.00  0.00    +0.000 F 
ATOM     20  F   UNL     1       3.267   2.904  18.496  0.00  0.00    +0.000 F 
BRANCH  18  21
ATOM     21  C   UNL     1       4.997   4.296  17.639  0.00  0.00    +0.000 A 
ATOM     22  C   UNL     1       6.284   4.621  18.098  0.00  0.00    +0.000 A 
ATOM     23  C   UNL     1       7.360   4.690  17.211  0.00  0.00    +0.000 A 
ATOM     24  C   UNL     1       7.165   4.440  15.856  0.00  0.00    +0.000 A 
ATOM     25  C   UNL     1       5.891   4.132  15.381  0.00  0.00    +0.000 A 
ATOM     26  C   UNL     1       4.813   4.057  16.266  0.00  0.00    +0.000 A 
ENDBRANCH  18  21
ENDBRANCH  15  18
ENDBRANCH   5  14
TORSDOF 4
ENDMDL
MODEL 3
REMARK VINA RESULT:      -8.0      2.778      4.582
REMARK  Name = 
REMARK  5 active torsions:
REMARK  status: ('A' for Active; 'I' for Inactive)
REMARK    1  A    between atoms: C_1  and  C_2
REMARK    2  A    between atoms: C_4  and  C_5
REMARK    3  A    between atoms: C_9  and  N_10
REMARK    4  A    between atoms: C_11  and  C_13
REMARK    5  A    between atoms: C_13  and  C_16
REMARK                            x       y       z     vdW  Elec       q    Type
REMARK                         _______ _______ _______ _____ _____    ______ ____
ROOT
ATOM      1  C   UNL     1      -0.198  10.231  19.626  0.00  0.00    +0.000 A 
ATOM      2  C   UNL     1      -0.394  10.661  20.945  0.00  0.00    +0.000 A 
ATOM      3  C   UNL     1       0.271  10.042  21.998  0.00  0.00    +0.000 A 
ATOM      4  C   UNL     1       1.117   8.963  21.748  0.00  0.00    +0.000 A 
ATOM      5  C   UNL     1       1.311   8.494  20.446  0.00  0.00    +0.000 A 
ATOM      6  C   UNL     1       0.683   9.161  19.382  0.00  0.00    +0.000 A 
ENDROOT
BRANCH   1  10
ATOM      7  C   UNL     1      -3.031  10.798  15.641  0.00  0.00    +0.000 C 
ATOM      8  C   UNL     1      -2.181  11.029  16.823  0.00  0.00    +0.000 A 
ATOM      9  N   UNL     1      -1.708  10.133  17.660  0.00  0.00    +0.000 NA
ATOM     10  C   UNL     1      -0.955  10.869  18.553  0.00  0.00    +0.000 A 
ATOM     11  N   UNL     1      -0.970  12.190  18.307  0.00  0.00    +0.000 NA
ATOM     12  N   UNL     1      -1.743  12.261  17.211  0.00  0.00    +0.000 N 
ATOM     13  H   UNL     1      -1.914  13.161  16.782  0.00  0.00    +0.000 HD
ENDBRANCH   1  10
BRANCH   5  14
ATOM     14  N   UNL     1       2.103   7.360  20.158  0.00  0.00    +0.000 N 
ATOM     15  C   UNL     1       2.736   7.093  18.940  0.00  0.00    +0.000 C 
ATOM     16  O   UNL     1       2.725   7.845  17.962  0.00  0.00    +0.000 OA
ATOM     17  H   UNL     1       2.329   6.746  20.935  0.00  0.00    +0.000 HD
BRANCH  15  18
ATOM     18  C   UNL     1       3.533   5.760  18.926  0.00  0.00    +0.000 C 
ATOM     19  F   UNL     1       4.143   5.609  17.703  0.00  0.00    +0.000 F 
ATOM     20  F   UNL     1       4.574   5.823  19.817  0.00  0.00    +0.000 F 
BRANCH  18  21
ATOM     21  C   UNL     1       2.632   4.573  19.244  0.00  0.00    +0.000 A 
ATOM     22  C   UNL     1       2.513   4.107  20.564  0.00  0.00    +0.000 A 
ATOM     23  C   UNL     1       1.633   3.070  20.877  0.00  0.00    +0.000 A 
ATOM     24  C   UNL     1       0.863   2.482  19.877  0.00  0.00    +0.000 A 
ATOM     25  C   UNL     1       0.980   2.922  18.559  0.00  0.00    +0.000 A 
ATOM     26  C   UNL     1       1.856   3.963  18.244  0.00  0.00    +0.000 A 
ENDBRANCH  18  21
ENDBRANCH  15  18
ENDBRANCH   5  14
TORSDOF 4
ENDMDL
MODEL 4
REMARK VINA RESULT:      -7.9      2.478      3.567
REMARK  Name = 
REMARK  5 active torsions:
REMARK  status: ('A' for Active; 'I' for Inactive)
REMARK    1  A    between atoms: C_1  and  C_2
REMARK    2  A    between atoms: C_4  and  C_5
REMARK    3  A    between atoms: C_9  and  N_10
REMARK    4  A    between atoms: C_11  and  C_13
REMARK    5  A    between atoms: C_13  and  C_16
REMARK                            x       y       z     vdW  Elec       q    Type
REMARK                         _______ _______ _______ _____ _____    ______ ____
ROOT
ATOM      1  C   UNL     1       0.240   9.713  19.086  0.00  0.00    +0.000 A 
ATOM      2  C   UNL     1       0.083   9.684  20.478  0.00  0.00    +0.000 A 
ATOM      3  C   UNL     1       0.882   8.861  21.265  0.00  0.00    +0.000 A 
ATOM      4  C   UNL     1       1.828   8.031  20.665  0.00  0.00    +0.000 A 
ATOM      5  C   UNL     1       1.988   8.017  19.277  0.00  0.00    +0.000 A 
ATOM      6  C   UNL     1       1.220   8.894  18.494  0.00  0.00    +0.000 A 
ENDROOT
BRANCH   1  10
ATOM      7  C   UNL     1      -3.087  11.059  15.718  0.00  0.00    +0.000 C 
ATOM      8  C   UNL     1      -2.093  11.048  16.807  0.00  0.00    +0.000 A 
ATOM      9  N   UNL     1      -1.510  10.005  17.352  0.00  0.00    +0.000 NA
ATOM     10  C   UNL     1      -0.653  10.548  18.289  0.00  0.00    +0.000 A 
ATOM     11  N   UNL     1      -0.710  11.889  18.354  0.00  0.00    +0.000 NA
ATOM     12  N   UNL     1      -1.617  12.176  17.408  0.00  0.00    +0.000 N 
ATOM     13  H   UNL     1      -1.849  13.144  17.220  0.00  0.00    +0.000 HD
ENDBRANCH   1  10
BRANCH   5  14
ATOM     14  N   UNL     1       2.885   7.141  18.626  0.00  0.00    +0.000 N 
ATOM     15  C   UNL     1       3.018   5.772  18.880  0.00  0.00    +0.000 C 
ATOM     16  O   UNL     1       2.328   5.134  19.679  0.00  0.00    +0.000 OA
ATOM     17  H   UNL     1       3.393   7.509  17.828  0.00  0.00    +0.000 HD
BRANCH  15  18
ATOM     18  C   UNL     1       4.097   5.075  18.007  0.00  0.00    +0.000 C 
ATOM     19  F   UNL     1       4.130   3.734  18.312  0.00  0.00    +0.000 F 
ATOM     20  F   UNL     1       3.731   5.110  16.685  0.00  0.00    +0.000 F 
BRANCH  18  21
ATOM     21  C   UNL     1       5.465   5.719  18.198  0.00  0.00    +0.000 A 
ATOM     22  C   UNL     1       6.307   5.297  19.240  0.00  0.00    +0.000 A 
ATOM     23  C   UNL     1       7.592   5.828  19.376  0.00  0.00    +0.000 A 
ATOM     24  C   UNL     1       8.050   6.788  18.478  0.00  0.00    +0.000 A 
ATOM     25  C   UNL     1       7.221   7.229  17.447  0.00  0.00    +0.000 A 
ATOM     26  C   UNL     1       5.937   6.696  17.305  0.00  0.00    +0.000 A 
ENDBRANCH  18  21
ENDBRANCH  15  18
ENDBRANCH   5  14
TORSDOF 4
ENDMDL
MODEL 5
REMARK VINA RESULT:      -7.8      3.079      8.131
REMARK  Name = 
REMARK  5 active torsions:
REMARK  status: ('A' for Active; 'I' for Inactive)
REMARK    1  A    between atoms: C_1  and  C_2
REMARK    2  A    between atoms: C_4  and  C_5
REMARK    3  A    between atoms: C_9  and  N_10
REMARK    4  A    between atoms: C_11  and  C_13
REMARK    5  A    between atoms: C_13  and  C_16
REMARK                            x       y       z     vdW  Elec       q    Type
REMARK                         _______ _______ _______ _____ _____    ______ ____
ROOT
ATOM      1  C   UNL     1       6.681   4.812  16.555  0.00  0.00    +0.000 A 
ATOM      2  C   UNL     1       7.878   4.809  17.283  0.00  0.00    +0.000 A 
ATOM      3  C   UNL     1       7.870   5.010  18.660  0.00  0.00    +0.000 A 
ATOM      4  C   UNL     1       6.667   5.249  19.321  0.00  0.00    +0.000 A 
ATOM      5  C   UNL     1       5.460   5.286  18.617  0.00  0.00    +0.000 A 
ATOM      6  C   UNL     1       5.469   5.024  17.238  0.00  0.00    +0.000 A 
ENDROOT
BRANCH   1  10
ATOM      7  C   UNL     1       5.819   3.050  12.041  0.00  0.00    +0.000 C 
ATOM      8  C   UNL     1       6.312   3.831  13.190  0.00  0.00    +0.000 A 
ATOM      9  N   UNL     1       5.950   3.726  14.448  0.00  0.00    +0.000 NA
ATOM     10  C   UNL     1       6.734   4.653  15.105  0.00  0.00    +0.000 A 
ATOM     11  N   UNL     1       7.549   5.341  14.287  0.00  0.00    +0.000 NA
ATOM     12  N   UNL     1       7.267   4.800  13.092  0.00  0.00    +0.000 N 
ATOM     13  H   UNL     1       7.764   5.123  12.271  0.00  0.00    +0.000 HD
ENDBRANCH   1  10
BRANCH   5  14
ATOM     14  N   UNL     1       4.230   5.596  19.238  0.00  0.00    +0.000 N 
ATOM     15  C   UNL     1       3.290   4.667  19.696  0.00  0.00    +0.000 C 
ATOM     16  O   UNL     1       3.436   3.443  19.662  0.00  0.00    +0.000 OA
ATOM     17  H   UNL     1       4.065   6.568  19.477  0.00  0.00    +0.000 HD
BRANCH  15  18
ATOM     18  C   UNL     1       2.027   5.313  20.329  0.00  0.00    +0.000 C 
ATOM     19  F   UNL     1       0.922   4.558  20.009  0.00  0.00    +0.000 F 
ATOM     20  F   UNL     1       2.097   5.245  21.697  0.00  0.00    +0.000 F 
BRANCH  18  21
ATOM     21  C   UNL     1       1.859   6.759  19.875  0.00  0.00    +0.000 A 
ATOM     22  C   UNL     1       2.109   7.116  18.541  0.00  0.00    +0.000 A 
ATOM     23  C   UNL     1       1.884   8.422  18.099  0.00  0.00    +0.000 A 
ATOM     24  C   UNL     1       1.411   9.387  18.984  0.00  0.00    +0.000 A 
ATOM     25  C   UNL     1       1.173   9.052  20.317  0.00  0.00    +0.000 A 
ATOM     26  C   UNL     1       1.392   7.746  20.760  0.00  0.00    +0.000 A 
ENDBRANCH  18  21
ENDBRANCH  15  18
ENDBRANCH   5  14
TORSDOF 4
ENDMDL
MODEL 6
REMARK VINA RESULT:      -7.8      3.053      8.083
REMARK  Name = 
REMARK  5 active torsions:
REMARK  status: ('A' for Active; 'I' for Inactive)
REMARK    1  A    between atoms: C_1  and  C_2
REMARK    2  A    between atoms: C_4  and  C_5
REMARK    3  A    between atoms: C_9  and  N_10
REMARK    4  A    between atoms: C_11  and  C_13
REMARK    5  A    between atoms: C_13  and  C_16
REMARK                            x       y       z     vdW  Elec       q    Type
REMARK                         _______ _______ _______ _____ _____    ______ ____
ROOT
ATOM      1  C   UNL     1       3.819   4.410  19.187  0.00  0.00    +0.000 A 
ATOM      2  C   UNL     1       3.216   3.170  19.434  0.00  0.00    +0.000 A 
ATOM      3  C   UNL     1       2.027   3.091  20.154  0.00  0.00    +0.000 A 
ATOM      4  C   UNL     1       1.445   4.250  20.663  0.00  0.00    +0.000 A 
ATOM      5  C   UNL     1       2.039   5.498  20.457  0.00  0.00    +0.000 A 
ATOM      6  C   UNL     1       3.206   5.576  19.679  0.00  0.00    +0.000 A 
ENDROOT
BRANCH   1  10
ATOM      7  C   UNL     1       7.082   4.568  15.505  0.00  0.00    +0.000 C 
ATOM      8  C   UNL     1       6.437   4.514  16.830  0.00  0.00    +0.000 A 
ATOM      9  N   UNL     1       5.155   4.582  17.104  0.00  0.00    +0.000 NA
ATOM     10  C   UNL     1       5.094   4.448  18.476  0.00  0.00    +0.000 A 
ATOM     11  N   UNL     1       6.300   4.324  19.057  0.00  0.00    +0.000 NA
ATOM     12  N   UNL     1       7.124   4.362  17.999  0.00  0.00    +0.000 N 
ATOM     13  H   UNL     1       8.122   4.268  18.143  0.00  0.00    +0.000 HD
ENDBRANCH   1  10
BRANCH   5  14
ATOM     14  N   UNL     1       1.519   6.687  21.016  0.00  0.00    +0.000 N 
ATOM     15  C   UNL     1       1.517   7.944  20.404  0.00  0.00    +0.000 C 
ATOM     16  O   UNL     1       1.927   8.173  19.263  0.00  0.00    +0.000 OA
ATOM     17  H   UNL     1       1.001   6.600  21.884  0.00  0.00    +0.000 HD
BRANCH  15  18
ATOM     18  C   UNL     1       0.880   9.063  21.273  0.00  0.00    +0.000 C 
ATOM     19  F   UNL     1      -0.163   8.535  21.999  0.00  0.00    +0.000 F 
ATOM     20  F   UNL     1       1.772   9.487  22.225  0.00  0.00    +0.000 F 
BRANCH  18  21
ATOM     21  C   UNL     1       0.419  10.236  20.416  0.00  0.00    +0.000 A 
ATOM     22  C   UNL     1      -0.734  10.123  19.622  0.00  0.00    +0.000 A 
ATOM     23  C   UNL     1      -1.207  11.216  18.893  0.00  0.00    +0.000 A 
ATOM     24  C   UNL     1      -0.533  12.433  18.943  0.00  0.00    +0.000 A 
ATOM     25  C   UNL     1       0.622  12.558  19.713  0.00  0.00    +0.000 A 
ATOM     26  C   UNL     1       1.095  11.468  20.448  0.00  0.00    +0.000 A 
ENDBRANCH  18  21
ENDBRANCH  15  18
ENDBRANCH   5  14
TORSDOF 4
ENDMDL
MODEL 7
REMARK VINA RESULT:      -7.8      2.906      4.252
REMARK  Name = 
REMARK  5 active torsions:
REMARK  status: ('A' for Active; 'I' for Inactive)
REMARK    1  A    between atoms: C_1  and  C_2
REMARK    2  A    between atoms: C_4  and  C_5
REMARK    3  A    between atoms: C_9  and  N_10
REMARK    4  A    between atoms: C_11  and  C_13
REMARK    5  A    between atoms: C_13  and  C_16
REMARK                            x       y       z     vdW  Elec       q    Type
REMARK                         _______ _______ _______ _____ _____    ______ ____
ROOT
ATOM      1  C   UNL     1      -0.523  10.167  18.652  0.00  0.00    +0.000 A 
ATOM      2  C   UNL     1      -0.605  10.515  20.007  0.00  0.00    +0.000 A 
ATOM      3  C   UNL     1       0.339  10.048  20.917  0.00  0.00    +0.000 A 
ATOM      4  C   UNL     1       1.358   9.200  20.487  0.00  0.00    +0.000 A 
ATOM      5  C   UNL     1       1.449   8.813  19.148  0.00  0.00    +0.000 A 
ATOM      6  C   UNL     1       0.529   9.335  18.225  0.00  0.00    +0.000 A 
ENDROOT
BRANCH   1  10
ATOM      7  C   UNL     1      -3.539  10.373  14.768  0.00  0.00    +0.000 C 
ATOM      8  C   UNL     1      -2.827  10.650  16.029  0.00  0.00    +0.000 A 
ATOM      9  N   UNL     1      -1.929   9.899  16.626  0.00  0.00    +0.000 NA
ATOM     10  C   UNL     1      -1.562  10.631  17.737  0.00  0.00    +0.000 A 
ATOM     11  N   UNL     1      -2.223  11.795  17.856  0.00  0.00    +0.000 NA
ATOM     12  N   UNL     1      -3.005  11.784  16.766  0.00  0.00    +0.000 N 
ATOM     13  H   UNL     1      -3.614  12.572  16.583  0.00  0.00    +0.000 HD
ENDBRANCH   1  10
BRANCH   5  14
ATOM     14  N   UNL     1       2.424   7.900  18.687  0.00  0.00    +0.000 N 
ATOM     15  C   UNL     1       2.642   6.614  19.192  0.00  0.00    +0.000 C 
ATOM     16  O   UNL     1       1.973   6.085  20.082  0.00  0.00    +0.000 OA
ATOM     17  H   UNL     1       2.930   8.153  17.844  0.00  0.00    +0.000 HD
BRANCH  15  18
ATOM     18  C   UNL     1       3.794   5.850  18.482  0.00  0.00    +0.000 C 
ATOM     19  F   UNL     1       3.911   6.305  17.190  0.00  0.00    +0.000 F 
ATOM     20  F   UNL     1       4.997   6.165  19.061  0.00  0.00    +0.000 F 
BRANCH  18  21
ATOM     21  C   UNL     1       3.564   4.344  18.519  0.00  0.00    +0.000 A 
ATOM     22  C   UNL     1       2.676   3.741  17.613  0.00  0.00    +0.000 A 
ATOM     23  C   UNL     1       2.517   2.354  17.589  0.00  0.00    +0.000 A 
ATOM     24  C   UNL     1       3.237   1.552  18.470  0.00  0.00    +0.000 A 
ATOM     25  C   UNL     1       4.111   2.136  19.387  0.00  0.00    +0.000 A 
ATOM     26  C   UNL     1       4.277   3.523  19.410  0.00  0.00    +0.000 A 
ENDBRANCH  18  21
ENDBRANCH  15  18
ENDBRANCH   5  14
TORSDOF 4
ENDMDL
MODEL 8
REMARK VINA RESULT:      -7.7      2.744      4.148
REMARK  Name = 
REMARK  5 active torsions:
REMARK  status: ('A' for Active; 'I' for Inactive)
REMARK    1  A    between atoms: C_1  and  C_2
REMARK    2  A    between atoms: C_4  and  C_5
REMARK    3  A    between atoms: C_9  and  N_10
REMARK    4  A    between atoms: C_11  and  C_13
REMARK    5  A    between atoms: C_13  and  C_16
REMARK                            x       y       z     vdW  Elec       q    Type
REMARK                         _______ _______ _______ _____ _____    ______ ____
ROOT
ATOM      1  C   UNL     1      -0.219   9.995  19.107  0.00  0.00    +0.000 A 
ATOM      2  C   UNL     1      -0.528  10.077  20.471  0.00  0.00    +0.000 A 
ATOM      3  C   UNL     1       0.237   9.397  21.413  0.00  0.00    +0.000 A 
ATOM      4  C   UNL     1       1.302   8.599  20.998  0.00  0.00    +0.000 A 
ATOM      5  C   UNL     1       1.616   8.475  19.642  0.00  0.00    +0.000 A 
ATOM      6  C   UNL     1       0.877   9.211  18.703  0.00  0.00    +0.000 A 
ENDROOT
BRANCH   1  10
ATOM      7  C   UNL     1      -3.294  10.745  15.338  0.00  0.00    +0.000 C 
ATOM      8  C   UNL     1      -2.403  10.918  16.499  0.00  0.00    +0.000 A 
ATOM      9  N   UNL     1      -1.820   9.982  17.212  0.00  0.00    +0.000 NA
ATOM     10  C   UNL     1      -1.078  10.678  18.144  0.00  0.00    +0.000 A 
ATOM     11  N   UNL     1      -1.205  12.012  18.043  0.00  0.00    +0.000 NA
ATOM     12  N   UNL     1      -2.038  12.134  16.997  0.00  0.00    +0.000 N 
ATOM     13  H   UNL     1      -2.299  13.058  16.676  0.00  0.00    +0.000 HD
ENDBRANCH   1  10
BRANCH   5  14
ATOM     14  N   UNL     1       2.641   7.622  19.176  0.00  0.00    +0.000 N 
ATOM     15  C   UNL     1       2.819   6.283  19.542  0.00  0.00    +0.000 C 
ATOM     16  O   UNL     1       2.068   5.652  20.289  0.00  0.00    +0.000 OA
ATOM     17  H   UNL     1       3.228   7.973  18.426  0.00  0.00    +0.000 HD
BRANCH  15  18
ATOM     18  C   UNL     1       4.044   5.607  18.867  0.00  0.00    +0.000 C 
ATOM     19  F   UNL     1       4.320   6.249  17.682  0.00  0.00    +0.000 F 
ATOM     20  F   UNL     1       5.170   5.802  19.626  0.00  0.00    +0.000 F 
BRANCH  18  21
ATOM     21  C   UNL     1       3.803   4.118  18.645  0.00  0.00    +0.000 A 
ATOM     22  C   UNL     1       4.433   3.169  19.466  0.00  0.00    +0.000 A 
ATOM     23  C   UNL     1       4.159   1.808  19.320  0.00  0.00    +0.000 A 
ATOM     24  C   UNL     1       3.257   1.377  18.351  0.00  0.00    +0.000 A 
ATOM     25  C   UNL     1       2.634   2.305  17.518  0.00  0.00    +0.000 A 
ATOM     26  C   UNL     1       2.902   3.668  17.665  0.00  0.00    +0.000 A 
ENDBRANCH  18  21
ENDBRANCH  15  18
ENDBRANCH   5  14
TORSDOF 4
ENDMDL
MODEL 9
REMARK VINA RESULT:      -7.7      2.453      3.926
REMARK  Name = 
REMARK  5 active torsions:
REMARK  status: ('A' for Active; 'I' for Inactive)
REMARK    1  A    between atoms: C_1  and  C_2
REMARK    2  A    between atoms: C_4  and  C_5
REMARK    3  A    between atoms: C_9  and  N_10
REMARK    4  A    between atoms: C_11  and  C_13
REMARK    5  A    between atoms: C_13  and  C_16
REMARK                            x       y       z     vdW  Elec       q    Type
REMARK                         _______ _______ _______ _____ _____    ______ ____
ROOT
ATOM      1  C   UNL     1       2.440   6.210  19.894  0.00  0.00    +0.000 A 
ATOM      2  C   UNL     1       1.795   5.037  20.307  0.00  0.00    +0.000 A 
ATOM      3  C   UNL     1       2.348   3.790  20.034  0.00  0.00    +0.000 A 
ATOM      4  C   UNL     1       3.538   3.701  19.315  0.00  0.00    +0.000 A 
ATOM      5  C   UNL     1       4.190   4.852  18.865  0.00  0.00    +0.000 A 
ATOM      6  C   UNL     1       3.658   6.108  19.196  0.00  0.00    +0.000 A 
ENDROOT
BRANCH   1  10
ATOM      7  C   UNL     1      -0.186   9.733  22.113  0.00  0.00    +0.000 C 
ATOM      8  C   UNL     1       0.648   8.963  21.172  0.00  0.00    +0.000 A 
ATOM      9  N   UNL     1       1.129   7.751  21.330  0.00  0.00    +0.000 NA
ATOM     10  C   UNL     1       1.801   7.498  20.151  0.00  0.00    +0.000 A 
ATOM     11  N   UNL     1       1.770   8.524  19.284  0.00  0.00    +0.000 NA
ATOM     12  N   UNL     1       1.034   9.428  19.949  0.00  0.00    +0.000 N 
ATOM     13  H   UNL     1       0.826  10.318  19.512  0.00  0.00    +0.000 HD
ENDBRANCH   1  10
BRANCH   5  14
ATOM     14  N   UNL     1       5.359   4.802  18.074  0.00  0.00    +0.000 N 
ATOM     15  C   UNL     1       5.555   5.471  16.861  0.00  0.00    +0.000 C 
ATOM     16  O   UNL     1       4.741   6.240  16.343  0.00  0.00    +0.000 OA
ATOM     17  H   UNL     1       6.168   4.336  18.474  0.00  0.00    +0.000 HD
BRANCH  15  18
ATOM     18  C   UNL     1       6.946   5.213  16.220  0.00  0.00    +0.000 C 
ATOM     19  F   UNL     1       7.724   6.339  16.357  0.00  0.00    +0.000 F 
ATOM     20  F   UNL     1       7.620   4.249  16.926  0.00  0.00    +0.000 F 
BRANCH  18  21
ATOM     21  C   UNL     1       6.815   4.807  14.757  0.00  0.00    +0.000 A 
ATOM     22  C   UNL     1       7.672   5.356  13.790  0.00  0.00    +0.000 A 
ATOM     23  C   UNL     1       7.610   4.933  12.460  0.00  0.00    +0.000 A 
ATOM     24  C   UNL     1       6.689   3.961  12.079  0.00  0.00    +0.000 A 
ATOM     25  C   UNL     1       5.820   3.417  13.024  0.00  0.00    +0.000 A 
ATOM     26  C   UNL     1       5.883   3.834  14.356  0.00  0.00    +0.000 A 
ENDBRANCH  18  21
ENDBRANCH  15  18
ENDBRANCH   5  14
TORSDOF 4
ENDMDL
