MODEL 1
REMARK VINA RESULT:      -8.1      0.000      0.000
REMARK  Name = 
REMARK  6 active torsions:
REMARK  status: ('A' for Active; 'I' for Inactive)
REMARK    1  A    between atoms: C_1  and  C_2
REMARK    2  A    between atoms: N_5  and  C_6
REMARK    3  A    between atoms: C_10  and  N_11
REMARK    4  A    between atoms: N_11  and  C_12
REMARK    5  A    between atoms: C_12  and  C_13
REMARK    6  A    between atoms: C_15  and  C_16
REMARK                            x       y       z     vdW  Elec       q    Type
REMARK                         _______ _______ _______ _____ _____    ______ ____
ROOT
ATOM      1  N   UNL     1       6.308   4.608  19.125  0.00  0.00    +0.000 N 
ATOM      2  H   UNL     1       6.447   5.108  20.001  0.00  0.00    +0.000 HD
ENDROOT
BRANCH   1   7
ATOM      3  C   UNL     1       2.971   6.140  18.617  0.00  0.00    +0.000 A 
ATOM      4  C   UNL     1       2.276   5.108  17.976  0.00  0.00    +0.000 A 
ATOM      5  C   UNL     1       2.928   3.912  17.684  0.00  0.00    +0.000 A 
ATOM      6  C   UNL     1       4.273   3.740  18.028  0.00  0.00    +0.000 A 
ATOM      7  C   UNL     1       4.992   4.758  18.662  0.00  0.00    +0.000 A 
ATOM      8  C   UNL     1       4.312   5.943  18.981  0.00  0.00    +0.000 A 
BRANCH   3  13
ATOM      9  C   UNL     1       0.688   9.563  21.166  0.00  0.00    +0.000 C 
ATOM     10  C   UNL     1       1.290   8.887  19.992  0.00  0.00    +0.000 A 
ATOM     11  C   UNL     1       1.362   9.364  18.671  0.00  0.00    +0.000 A 
ATOM     12  C   UNL     1       2.036   8.387  17.983  0.00  0.00    +0.000 A 
ATOM     13  N   UNL     1       2.321   7.378  18.879  0.00  0.00    +0.000 N 
ATOM     14  N   UNL     1       1.863   7.686  20.121  0.00  0.00    +0.000 NA
ENDBRANCH   3  13
ENDBRANCH   1   7
BRANCH   1  15
ATOM     15  C   UNL     1       7.400   4.872  18.203  0.00  0.00    +0.000 C 
BRANCH  15  16
ATOM     16  C   UNL     1       7.600   6.323  18.002  0.00  0.00    +0.000 A 
ATOM     17  C   UNL     1       8.278   7.271  18.729  0.00  0.00    +0.000 A 
ATOM     18  C   UNL     1       8.099   8.493  18.030  0.00  0.00    +0.000 A 
ATOM     19  N   UNL     1       7.339   8.309  16.938  0.00  0.00    +0.000 NA
ATOM     20  N   UNL     1       7.077   6.989  16.930  0.00  0.00    +0.000 N 
ATOM     21  H   UNL     1       6.539   6.602  16.159  0.00  0.00    +0.000 HD
BRANCH  18  22
ATOM     22  C   UNL     1       8.622   9.801  18.412  0.00  0.00    +0.000 A 
ATOM     23  C   UNL     1       8.375  10.921  17.612  0.00  0.00    +0.000 A 
ATOM     24  C   UNL     1       8.942  12.129  17.976  0.00  0.00    +0.000 A 
ATOM     25  N   UNL     1       9.722  12.294  19.063  0.00  0.00    +0.000 NA
ATOM     26  C   UNL     1       9.931  11.202  19.831  0.00  0.00    +0.000 A 
ATOM     27  C   UNL     1       9.405   9.953  19.556  0.00  0.00    +0.000 A 
ENDBRANCH  18  22
ENDBRANCH  15  16
ENDBRANCH   1  15
TORSDOF 5
ENDMDL
MODEL 2
REMARK VINA RESULT:      -7.9      3.195      6.896
REMARK  Name = 
REMARK  6 active torsions:
REMARK  status: ('A' for Active; 'I' for Inactive)
REMARK    1  A    between atoms: C_1  and  C_2
REMARK    2  A    between atoms: N_5  and  C_6
REMARK    3  A    between atoms: C_10  and  N_11
REMARK    4  A    between atoms: N_11  and  C_12
REMARK    5  A    between atoms: C_12  and  C_13
REMARK    6  A    between atoms: C_15  and  C_16
REMARK                            x       y       z     vdW  Elec       q    Type
REMARK                         _______ _______ _______ _____ _____    ______ ____
ROOT
ATOM      1  N   UNL     1       5.253   3.522  19.597  0.00  0.00    +0.000 N 
ATOM      2  H   UNL     1       5.704   2.609  19.596  0.00  0.00    +0.000 HD
ENDROOT
BRANCH   1   7
ATOM      3  C   UNL     1       6.773   4.971  16.542  0.00  0.00    +0.000 A 
ATOM      4  C   UNL     1       7.489   6.053  17.064  0.00  0.00    +0.000 A 
ATOM      5  C   UNL     1       7.440   6.321  18.431  0.00  0.00    +0.000 A 
ATOM      6  C   UNL     1       6.679   5.513  19.280  0.00  0.00    +0.000 A 
ATOM      7  C   UNL     1       5.948   4.429  18.783  0.00  0.00    +0.000 A 
ATOM      8  C   UNL     1       6.035   4.152  17.411  0.00  0.00    +0.000 A 
BRANCH   3  13
ATOM      9  C   UNL     1       7.937   5.569  11.882  0.00  0.00    +0.000 C 
ATOM     10  C   UNL     1       7.276   4.991  13.076  0.00  0.00    +0.000 A 
ATOM     11  C   UNL     1       6.368   3.918  13.119  0.00  0.00    +0.000 A 
ATOM     12  C   UNL     1       6.080   3.756  14.451  0.00  0.00    +0.000 A 
ATOM     13  N   UNL     1       6.786   4.719  15.143  0.00  0.00    +0.000 N 
ATOM     14  N   UNL     1       7.527   5.482  14.295  0.00  0.00    +0.000 NA
ENDBRANCH   3  13
ENDBRANCH   1   7
BRANCH   1  15
ATOM     15  C   UNL     1       3.817   3.386  19.411  0.00  0.00    +0.000 C 
BRANCH  15  16
ATOM     16  C   UNL     1       3.112   4.656  19.694  0.00  0.00    +0.000 A 
ATOM     17  C   UNL     1       2.993   5.824  18.981  0.00  0.00    +0.000 A 
ATOM     18  C   UNL     1       2.195   6.683  19.781  0.00  0.00    +0.000 A 
ATOM     19  N   UNL     1       1.855   6.080  20.932  0.00  0.00    +0.000 NA
ATOM     20  N   UNL     1       2.396   4.851  20.840  0.00  0.00    +0.000 N 
ATOM     21  H   UNL     1       2.234   4.188  21.594  0.00  0.00    +0.000 HD
BRANCH  18  22
ATOM     22  C   UNL     1       1.793   8.049  19.460  0.00  0.00    +0.000 A 
ATOM     23  C   UNL     1       2.080   8.591  18.203  0.00  0.00    +0.000 A 
ATOM     24  C   UNL     1       1.738   9.909  17.961  0.00  0.00    +0.000 A 
ATOM     25  N   UNL     1       1.140  10.707  18.868  0.00  0.00    +0.000 NA
ATOM     26  C   UNL     1       0.856  10.156  20.068  0.00  0.00    +0.000 A 
ATOM     27  C   UNL     1       1.151   8.848  20.405  0.00  0.00    +0.000 A 
ENDBRANCH  18  22
ENDBRANCH  15  16
ENDBRANCH   1  15
TORSDOF 5
ENDMDL
MODEL 3
REMARK VINA RESULT:      -7.9      3.609      5.104
REMARK  Name = 
REMARK  6 active torsions:
REMARK  status: ('A' for Active; 'I' for Inactive)
REMARK    1  A    between atoms: C_1  and  C_2
REMARK    2  A    between atoms: N_5  and  C_6
REMARK    3  A    between atoms: C_10  and  N_11
REMARK    4  A    between atoms: N_11  and  C_12
REMARK    5  A    between atoms: C_12  and  C_13
REMARK    6  A    between atoms: C_15  and  C_16
REMARK                            x       y       z     vdW  Elec       q    Type
REMARK                         _______ _______ _______ _____ _____    ______ ____
ROOT
ATOM      1  N   UNL     1       5.231   3.728  19.302  0.00  0.00    +0.000 N 
ATOM      2  H   UNL     1       5.502   2.942  19.890  0.00  0.00    +0.000 HD
ENDROOT
BRANCH   1   7
ATOM      3  C   UNL     1       2.470   6.165  19.724  0.00  0.00    +0.000 A 
ATOM      4  C   UNL     1       1.604   5.472  20.576  0.00  0.00    +0.000 A 
ATOM      5  C   UNL     1       1.923   4.179  20.986  0.00  0.00    +0.000 A 
ATOM      6  C   UNL     1       3.105   3.573  20.548  0.00  0.00    +0.000 A 
ATOM      7  C   UNL     1       3.984   4.240  19.690  0.00  0.00    +0.000 A 
ATOM      8  C   UNL     1       3.666   5.554  19.315  0.00  0.00    +0.000 A 
BRANCH   3  13
ATOM      9  C   UNL     1       0.599  10.627  19.876  0.00  0.00    +0.000 C 
ATOM     10  C   UNL     1       1.282   9.435  19.319  0.00  0.00    +0.000 A 
ATOM     11  C   UNL     1       1.817   9.277  18.028  0.00  0.00    +0.000 A 
ATOM     12  C   UNL     1       2.362   8.017  18.026  0.00  0.00    +0.000 A 
ATOM     13  N   UNL     1       2.128   7.468  19.270  0.00  0.00    +0.000 N 
ATOM     14  N   UNL     1       1.463   8.343  20.071  0.00  0.00    +0.000 NA
ENDBRANCH   3  13
ENDBRANCH   1   7
BRANCH   1  15
ATOM     15  C   UNL     1       6.339   4.655  19.138  0.00  0.00    +0.000 C 
BRANCH  15  16
ATOM     16  C   UNL     1       6.643   4.887  17.709  0.00  0.00    +0.000 A 
ATOM     17  C   UNL     1       6.275   4.219  16.566  0.00  0.00    +0.000 A 
ATOM     18  C   UNL     1       6.890   4.920  15.496  0.00  0.00    +0.000 A 
ATOM     19  N   UNL     1       7.610   5.955  15.958  0.00  0.00    +0.000 NA
ATOM     20  N   UNL     1       7.420   5.929  17.289  0.00  0.00    +0.000 N 
ATOM     21  H   UNL     1       7.845   6.657  17.858  0.00  0.00    +0.000 HD
BRANCH  18  22
ATOM     22  C   UNL     1       6.807   4.590  14.077  0.00  0.00    +0.000 A 
ATOM     23  C   UNL     1       5.873   3.653  13.624  0.00  0.00    +0.000 A 
ATOM     24  C   UNL     1       5.869   3.322  12.281  0.00  0.00    +0.000 A 
ATOM     25  N   UNL     1       6.715   3.853  11.376  0.00  0.00    +0.000 NA
ATOM     26  C   UNL     1       7.596   4.769  11.833  0.00  0.00    +0.000 A 
ATOM     27  C   UNL     1       7.676   5.171  13.154  0.00  0.00    +0.000 A 
ENDBRANCH  18  22
ENDBRANCH  15  16
ENDBRANCH   1  15
TORSDOF 5
ENDMDL
MODEL 4
REMARK VINA RESULT:      -7.9      4.073      7.900
REMARK  Name = 
REMARK  6 active torsions:
REMARK  status: ('A' for Active; 'I' for Inactive)
REMARK    1  A    between atoms: C_1  and  C_2
REMARK    2  A    between atoms: N_5  and  C_6
REMARK    3  A    between atoms: C_10  and  N_11
REMARK    4  A    between atoms: N_11  and  C_12
REMARK    5  A    between atoms: C_12  and  C_13
REMARK    6  A    between atoms: C_15  and  C_16
REMARK                            x       y       z     vdW  Elec       q    Type
REMARK                         _______ _______ _______ _____ _____    ______ ____
ROOT
ATOM      1  N   UNL     1       1.738   5.985  20.731  0.00  0.00    +0.000 N 
ATOM      2  H   UNL     1       0.762   5.721  20.607  0.00  0.00    +0.000 HD
ENDROOT
BRANCH   1   7
ATOM      3  C   UNL     1       4.339   4.020  18.966  0.00  0.00    +0.000 A 
ATOM      4  C   UNL     1       4.224   2.771  19.585  0.00  0.00    +0.000 A 
ATOM      5  C   UNL     1       3.300   2.590  20.613  0.00  0.00    +0.000 A 
ATOM      6  C   UNL     1       2.491   3.652  21.028  0.00  0.00    +0.000 A 
ATOM      7  C   UNL     1       2.592   4.913  20.432  0.00  0.00    +0.000 A 
ATOM      8  C   UNL     1       3.501   5.070  19.375  0.00  0.00    +0.000 A 
BRANCH   3  13
ATOM      9  C   UNL     1       6.220   4.074  14.506  0.00  0.00    +0.000 C 
ATOM     10  C   UNL     1       6.157   4.225  15.980  0.00  0.00    +0.000 A 
ATOM     11  C   UNL     1       7.183   4.646  16.844  0.00  0.00    +0.000 A 
ATOM     12  C   UNL     1       6.612   4.646  18.092  0.00  0.00    +0.000 A 
ATOM     13  N   UNL     1       5.308   4.220  17.945  0.00  0.00    +0.000 N 
ATOM     14  N   UNL     1       5.025   3.961  16.641  0.00  0.00    +0.000 NA
ENDBRANCH   3  13
ENDBRANCH   1   7
BRANCH   1  15
ATOM     15  C   UNL     1       2.005   7.275  20.115  0.00  0.00    +0.000 C 
BRANCH  15  16
ATOM     16  C   UNL     1       1.374   8.377  20.873  0.00  0.00    +0.000 A 
ATOM     17  C   UNL     1       0.399   9.286  20.541  0.00  0.00    +0.000 A 
ATOM     18  C   UNL     1       0.225  10.100  21.690  0.00  0.00    +0.000 A 
ATOM     19  N   UNL     1       1.059   9.722  22.672  0.00  0.00    +0.000 NA
ATOM     20  N   UNL     1       1.718   8.665  22.163  0.00  0.00    +0.000 N 
ATOM     21  H   UNL     1       2.389   8.178  22.752  0.00  0.00    +0.000 HD
BRANCH  18  22
ATOM     22  C   UNL     1      -0.698  11.222  21.832  0.00  0.00    +0.000 A 
ATOM     23  C   UNL     1      -1.449  11.375  23.002  0.00  0.00    +0.000 A 
ATOM     24  C   UNL     1      -2.358  12.415  23.071  0.00  0.00    +0.000 A 
ATOM     25  N   UNL     1      -2.565  13.297  22.072  0.00  0.00    +0.000 NA
ATOM     26  C   UNL     1      -1.816  13.140  20.959  0.00  0.00    +0.000 A 
ATOM     27  C   UNL     1      -0.877  12.138  20.795  0.00  0.00    +0.000 A 
ENDBRANCH  18  22
ENDBRANCH  15  16
ENDBRANCH   1  15
TORSDOF 5
ENDMDL
MODEL 5
REMARK VINA RESULT:      -7.9      3.990      6.693
REMARK  Name = 
REMARK  6 active torsions:
REMARK  status: ('A' for Active; 'I' for Inactive)
REMARK    1  A    between atoms: C_1  and  C_2
REMARK    2  A    between atoms: N_5  and  C_6
REMARK    3  A    between atoms: C_10  and  N_11
REMARK    4  A    between atoms: N_11  and  C_12
REMARK    5  A    between atoms: C_12  and  C_13
REMARK    6  A    between atoms: C_15  and  C_16
REMARK                            x       y       z     vdW  Elec       q    Type
REMARK                         _______ _______ _______ _____ _____    ______ ____
ROOT
ATOM      1  N   UNL     1       6.872   5.947  18.130  0.00  0.00    +0.000 N 
ATOM      2  H   UNL     1       7.386   6.741  17.752  0.00  0.00    +0.000 HD
ENDROOT
BRANCH   1   7
ATOM      3  C   UNL     1       3.244   5.319  18.560  0.00  0.00    +0.000 A 
ATOM      4  C   UNL     1       2.683   6.430  17.921  0.00  0.00    +0.000 A 
ATOM      5  C   UNL     1       3.513   7.406  17.374  0.00  0.00    +0.000 A 
ATOM      6  C   UNL     1       4.903   7.280  17.462  0.00  0.00    +0.000 A 
ATOM      7  C   UNL     1       5.489   6.183  18.102  0.00  0.00    +0.000 A 
ATOM      8  C   UNL     1       4.641   5.192  18.616  0.00  0.00    +0.000 A 
BRANCH   3  13
ATOM      9  C   UNL     1       1.458   2.429  22.008  0.00  0.00    +0.000 C 
ATOM     10  C   UNL     1       1.620   3.042  20.668  0.00  0.00    +0.000 A 
ATOM     11  C   UNL     1       0.888   2.760  19.501  0.00  0.00    +0.000 A 
ATOM     12  C   UNL     1       1.398   3.611  18.553  0.00  0.00    +0.000 A 
ATOM     13  N   UNL     1       2.401   4.342  19.156  0.00  0.00    +0.000 N 
ATOM     14  N   UNL     1       2.538   3.993  20.463  0.00  0.00    +0.000 NA
ENDBRANCH   3  13
ENDBRANCH   1   7
BRANCH   1  15
ATOM     15  C   UNL     1       7.372   4.699  17.577  0.00  0.00    +0.000 C 
BRANCH  15  16
ATOM     16  C   UNL     1       7.092   4.598  16.128  0.00  0.00    +0.000 A 
ATOM     17  C   UNL     1       6.342   3.712  15.393  0.00  0.00    +0.000 A 
ATOM     18  C   UNL     1       6.466   4.132  14.043  0.00  0.00    +0.000 A 
ATOM     19  N   UNL     1       7.260   5.210  13.952  0.00  0.00    +0.000 NA
ATOM     20  N   UNL     1       7.600   5.486  15.224  0.00  0.00    +0.000 N 
ATOM     21  H   UNL     1       8.178   6.302  15.410  0.00  0.00    +0.000 HD
BRANCH  18  22
ATOM     22  C   UNL     1       5.857   3.502  12.875  0.00  0.00    +0.000 A 
ATOM     23  C   UNL     1       4.608   3.930  12.414  0.00  0.00    +0.000 A 
ATOM     24  C   UNL     1       4.038   3.266  11.343  0.00  0.00    +0.000 A 
ATOM     25  N   UNL     1       4.617   2.225  10.713  0.00  0.00    +0.000 NA
ATOM     26  C   UNL     1       5.831   1.841  11.164  0.00  0.00    +0.000 A 
ATOM     27  C   UNL     1       6.486   2.443  12.222  0.00  0.00    +0.000 A 
ENDBRANCH  18  22
ENDBRANCH  15  16
ENDBRANCH   1  15
TORSDOF 5
ENDMDL
MODEL 6
REMARK VINA RESULT:      -7.8      3.425      7.314
REMARK  Name = 
REMARK  6 active torsions:
REMARK  status: ('A' for Active; 'I' for Inactive)
REMARK    1  A    between atoms: C_1  and  C_2
REMARK    2  A    between atoms: N_5  and  C_6
REMARK    3  A    between atoms: C_10  and  N_11
REMARK    4  A    between atoms: N_11  and  C_12
REMARK    5  A    between atoms: C_12  and  C_13
REMARK    6  A    between atoms: C_15  and  C_16
REMARK                            x       y       z     vdW  Elec       q    Type
REMARK                         _______ _______ _______ _____ _____    ______ ____
ROOT
ATOM      1  N   UNL     1       4.066   4.979  19.685  0.00  0.00    +0.000 N 
ATOM      2  H   UNL     1       4.015   4.063  20.128  0.00  0.00    +0.000 HD
ENDROOT
BRANCH   1   7
ATOM      3  C   UNL     1       6.556   4.893  16.940  0.00  0.00    +0.000 A 
ATOM      4  C   UNL     1       7.732   5.247  17.609  0.00  0.00    +0.000 A 
ATOM      5  C   UNL     1       7.692   5.546  18.970  0.00  0.00    +0.000 A 
ATOM      6  C   UNL     1       6.481   5.494  19.667  0.00  0.00    +0.000 A 
ATOM      7  C   UNL     1       5.289   5.150  19.020  0.00  0.00    +0.000 A 
ATOM      8  C   UNL     1       5.352   4.819  17.659  0.00  0.00    +0.000 A 
BRANCH   3  13
ATOM      9  C   UNL     1       7.878   5.363  12.307  0.00  0.00    +0.000 C 
ATOM     10  C   UNL     1       7.146   4.846  13.488  0.00  0.00    +0.000 A 
ATOM     11  C   UNL     1       6.161   3.843  13.516  0.00  0.00    +0.000 A 
ATOM     12  C   UNL     1       5.828   3.715  14.841  0.00  0.00    +0.000 A 
ATOM     13  N   UNL     1       6.585   4.629  15.543  0.00  0.00    +0.000 N 
ATOM     14  N   UNL     1       7.402   5.327  14.710  0.00  0.00    +0.000 NA
ENDBRANCH   3  13
ENDBRANCH   1   7
BRANCH   1  15
ATOM     15  C   UNL     1       2.839   5.269  18.961  0.00  0.00    +0.000 C 
BRANCH  15  16
ATOM     16  C   UNL     1       2.299   6.598  19.321  0.00  0.00    +0.000 A 
ATOM     17  C   UNL     1       1.678   7.065  20.454  0.00  0.00    +0.000 A 
ATOM     18  C   UNL     1       1.384   8.430  20.195  0.00  0.00    +0.000 A 
ATOM     19  N   UNL     1       1.789   8.778  18.964  0.00  0.00    +0.000 NA
ATOM     20  N   UNL     1       2.361   7.665  18.471  0.00  0.00    +0.000 N 
ATOM     21  H   UNL     1       2.784   7.700  17.547  0.00  0.00    +0.000 HD
BRANCH  18  22
ATOM     22  C   UNL     1       0.713   9.362  21.096  0.00  0.00    +0.000 A 
ATOM     23  C   UNL     1       0.621  10.718  20.767  0.00  0.00    +0.000 A 
ATOM     24  C   UNL     1       0.033  11.580  21.676  0.00  0.00    +0.000 A 
ATOM     25  N   UNL     1      -0.460  11.188  22.868  0.00  0.00    +0.000 NA
ATOM     26  C   UNL     1      -0.376   9.871  23.156  0.00  0.00    +0.000 A 
ATOM     27  C   UNL     1       0.186   8.931  22.313  0.00  0.00    +0.000 A 
ENDBRANCH  18  22
ENDBRANCH  15  16
ENDBRANCH   1  15
TORSDOF 5
ENDMDL
MODEL 7
REMARK VINA RESULT:      -7.8      3.582      7.853
REMARK  Name = 
REMARK  6 active torsions:
REMARK  status: ('A' for Active; 'I' for Inactive)
REMARK    1  A    between atoms: C_1  and  C_2
REMARK    2  A    between atoms: N_5  and  C_6
REMARK    3  A    between atoms: C_10  and  N_11
REMARK    4  A    between atoms: N_11  and  C_12
REMARK    5  A    between atoms: C_12  and  C_13
REMARK    6  A    between atoms: C_15  and  C_16
REMARK                            x       y       z     vdW  Elec       q    Type
REMARK                         _______ _______ _______ _____ _____    ______ ____
ROOT
ATOM      1  N   UNL     1       4.231   7.262  17.404  0.00  0.00    +0.000 N 
ATOM      2  H   UNL     1       4.558   8.126  17.833  0.00  0.00    +0.000 HD
ENDROOT
BRANCH   1   7
ATOM      3  C   UNL     1       6.406   4.971  15.465  0.00  0.00    +0.000 A 
ATOM      4  C   UNL     1       7.283   4.506  16.450  0.00  0.00    +0.000 A 
ATOM      5  C   UNL     1       7.171   4.979  17.756  0.00  0.00    +0.000 A 
ATOM      6  C   UNL     1       6.187   5.917  18.084  0.00  0.00    +0.000 A 
ATOM      7  C   UNL     1       5.302   6.404  17.116  0.00  0.00    +0.000 A 
ATOM      8  C   UNL     1       5.405   5.891  15.815  0.00  0.00    +0.000 A 
BRANCH   3  13
ATOM      9  C   UNL     1       5.518   2.356  11.490  0.00  0.00    +0.000 C 
ATOM     10  C   UNL     1       6.174   3.354  12.367  0.00  0.00    +0.000 A 
ATOM     11  C   UNL     1       7.247   4.205  12.046  0.00  0.00    +0.000 A 
ATOM     12  C   UNL     1       7.455   4.949  13.179  0.00  0.00    +0.000 A 
ATOM     13  N   UNL     1       6.544   4.522  14.123  0.00  0.00    +0.000 N 
ATOM     14  N   UNL     1       5.750   3.538  13.622  0.00  0.00    +0.000 NA
ENDBRANCH   3  13
ENDBRANCH   1   7
BRANCH   1  15
ATOM     15  C   UNL     1       3.092   6.726  18.132  0.00  0.00    +0.000 C 
BRANCH  15  16
ATOM     16  C   UNL     1       2.280   7.804  18.737  0.00  0.00    +0.000 A 
ATOM     17  C   UNL     1       1.862   8.033  20.025  0.00  0.00    +0.000 A 
ATOM     18  C   UNL     1       1.102   9.231  19.976  0.00  0.00    +0.000 A 
ATOM     19  N   UNL     1       1.044   9.705  18.721  0.00  0.00    +0.000 NA
ATOM     20  N   UNL     1       1.785   8.843  18.001  0.00  0.00    +0.000 N 
ATOM     21  H   UNL     1       1.920   9.024  17.010  0.00  0.00    +0.000 HD
BRANCH  18  22
ATOM     22  C   UNL     1       0.434   9.886  21.096  0.00  0.00    +0.000 A 
ATOM     23  C   UNL     1       0.095   9.155  22.240  0.00  0.00    +0.000 A 
ATOM     24  C   UNL     1      -0.593   9.798  23.253  0.00  0.00    +0.000 A 
ATOM     25  N   UNL     1      -0.959  11.095  23.204  0.00  0.00    +0.000 NA
ATOM     26  C   UNL     1      -0.605  11.785  22.098  0.00  0.00    +0.000 A 
ATOM     27  C   UNL     1       0.088  11.235  21.035  0.00  0.00    +0.000 A 
ENDBRANCH  18  22
ENDBRANCH  15  16
ENDBRANCH   1  15
TORSDOF 5
ENDMDL
MODEL 8
REMARK VINA RESULT:      -7.8      2.616      3.786
REMARK  Name = 
REMARK  6 active torsions:
REMARK  status: ('A' for Active; 'I' for Inactive)
REMARK    1  A    between atoms: C_1  and  C_2
REMARK    2  A    between atoms: N_5  and  C_6
REMARK    3  A    between atoms: C_10  and  N_11
REMARK    4  A    between atoms: N_11  and  C_12
REMARK    5  A    between atoms: C_12  and  C_13
REMARK    6  A    between atoms: C_15  and  C_16
REMARK                            x       y       z     vdW  Elec       q    Type
REMARK                         _______ _______ _______ _____ _____    ______ ____
ROOT
ATOM      1  N   UNL     1       7.017   7.431  16.885  0.00  0.00    +0.000 N 
ATOM      2  H   UNL     1       7.538   7.723  16.060  0.00  0.00    +0.000 HD
ENDROOT
BRANCH   1   7
ATOM      3  C   UNL     1       4.777   4.543  17.501  0.00  0.00    +0.000 A 
ATOM      4  C   UNL     1       4.791   3.899  16.259  0.00  0.00    +0.000 A 
ATOM      5  C   UNL     1       5.522   4.444  15.205  0.00  0.00    +0.000 A 
ATOM      6  C   UNL     1       6.239   5.631  15.384  0.00  0.00    +0.000 A 
ATOM      7  C   UNL     1       6.236   6.298  16.613  0.00  0.00    +0.000 A 
ATOM      8  C   UNL     1       5.524   5.718  17.674  0.00  0.00    +0.000 A 
BRANCH   3  13
ATOM      9  C   UNL     1       1.063   4.132  20.578  0.00  0.00    +0.000 C 
ATOM     10  C   UNL     1       2.372   3.838  19.947  0.00  0.00    +0.000 A 
ATOM     11  C   UNL     1       3.292   2.837  20.307  0.00  0.00    +0.000 A 
ATOM     12  C   UNL     1       4.316   2.962  19.402  0.00  0.00    +0.000 A 
ATOM     13  N   UNL     1       3.999   4.013  18.566  0.00  0.00    +0.000 N 
ATOM     14  N   UNL     1       2.797   4.554  18.900  0.00  0.00    +0.000 NA
ENDBRANCH   3  13
ENDBRANCH   1   7
BRANCH   1  15
ATOM     15  C   UNL     1       7.877   7.413  18.057  0.00  0.00    +0.000 C 
BRANCH  15  16
ATOM     16  C   UNL     1       8.434   8.754  18.341  0.00  0.00    +0.000 A 
ATOM     17  C   UNL     1       8.517   9.897  17.584  0.00  0.00    +0.000 A 
ATOM     18  C   UNL     1       9.167  10.855  18.405  0.00  0.00    +0.000 A 
ATOM     19  N   UNL     1       9.479  10.324  19.598  0.00  0.00    +0.000 NA
ATOM     20  N   UNL     1       9.001   9.068  19.542  0.00  0.00    +0.000 N 
ATOM     21  H   UNL     1       9.088   8.475  20.364  0.00  0.00    +0.000 HD
BRANCH  18  22
ATOM     22  C   UNL     1       9.498  12.231  18.045  0.00  0.00    +0.000 A 
ATOM     23  C   UNL     1      10.687  12.516  17.367  0.00  0.00    +0.000 A 
ATOM     24  C   UNL     1      10.993  13.838  17.101  0.00  0.00    +0.000 A 
ATOM     25  N   UNL     1      10.209  14.875  17.456  0.00  0.00    +0.000 NA
ATOM     26  C   UNL     1       9.056  14.574  18.094  0.00  0.00    +0.000 A 
ATOM     27  C   UNL     1       8.658  13.286  18.401  0.00  0.00    +0.000 A 
ENDBRANCH  18  22
ENDBRANCH  15  16
ENDBRANCH   1  15
TORSDOF 5
ENDMDL
MODEL 9
REMARK VINA RESULT:      -7.8      2.371      3.773
REMARK  Name = 
REMARK  6 active torsions:
REMARK  status: ('A' for Active; 'I' for Inactive)
REMARK    1  A    between atoms: C_1  and  C_2
REMARK    2  A    between atoms: N_5  and  C_6
REMARK    3  A    between atoms: C_10  and  N_11
REMARK    4  A    between atoms: N_11  and  C_12
REMARK    5  A    between atoms: C_12  and  C_13
REMARK    6  A    between atoms: C_15  and  C_16
REMARK                            x       y       z     vdW  Elec       q    Type
REMARK                         _______ _______ _______ _____ _____    ______ ____
ROOT
ATOM      1  N   UNL     1       6.915   7.697  17.136  0.00  0.00    +0.000 N 
ATOM      2  H   UNL     1       7.167   8.183  16.277  0.00  0.00    +0.000 HD
ENDROOT
BRANCH   1   7
ATOM      3  C   UNL     1       4.493   4.919  17.529  0.00  0.00    +0.000 A 
ATOM      4  C   UNL     1       4.925   4.020  16.548  0.00  0.00    +0.000 A 
ATOM      5  C   UNL     1       6.006   4.353  15.732  0.00  0.00    +0.000 A 
ATOM      6  C   UNL     1       6.656   5.580  15.891  0.00  0.00    +0.000 A 
ATOM      7  C   UNL     1       6.239   6.500  16.859  0.00  0.00    +0.000 A 
ATOM      8  C   UNL     1       5.173   6.135  17.695  0.00  0.00    +0.000 A 
BRANCH   3  13
ATOM      9  C   UNL     1       0.564   2.507  19.006  0.00  0.00    +0.000 C 
ATOM     10  C   UNL     1       1.612   3.555  18.981  0.00  0.00    +0.000 A 
ATOM     11  C   UNL     1       1.757   4.645  19.859  0.00  0.00    +0.000 A 
ATOM     12  C   UNL     1       2.891   5.290  19.432  0.00  0.00    +0.000 A 
ATOM     13  N   UNL     1       3.365   4.601  18.334  0.00  0.00    +0.000 N 
ATOM     14  N   UNL     1       2.577   3.528  18.056  0.00  0.00    +0.000 NA
ENDBRANCH   3  13
ENDBRANCH   1   7
BRANCH   1  15
ATOM     15  C   UNL     1       8.041   7.659  18.055  0.00  0.00    +0.000 C 
BRANCH  15  16
ATOM     16  C   UNL     1       8.538   9.019  18.358  0.00  0.00    +0.000 A 
ATOM     17  C   UNL     1       8.599  10.168  17.607  0.00  0.00    +0.000 A 
ATOM     18  C   UNL     1       9.188  11.147  18.449  0.00  0.00    +0.000 A 
ATOM     19  N   UNL     1       9.487  10.623  19.649  0.00  0.00    +0.000 NA
ATOM     20  N   UNL     1       9.059   9.350  19.576  0.00  0.00    +0.000 N 
ATOM     21  H   UNL     1       9.146   8.757  20.397  0.00  0.00    +0.000 HD
BRANCH  18  22
ATOM     22  C   UNL     1       9.476  12.535  18.103  0.00  0.00    +0.000 A 
ATOM     23  C   UNL     1      10.685  12.872  17.486  0.00  0.00    +0.000 A 
ATOM     24  C   UNL     1      10.946  14.207  17.232  0.00  0.00    +0.000 A 
ATOM     25  N   UNL     1      10.099  15.208  17.544  0.00  0.00    +0.000 NA
ATOM     26  C   UNL     1       8.930  14.857  18.123  0.00  0.00    +0.000 A 
ATOM     27  C   UNL     1       8.574  13.553  18.412  0.00  0.00    +0.000 A 
ENDBRANCH  18  22
ENDBRANCH  15  16
ENDBRANCH   1  15
TORSDOF 5
ENDMDL
