MODEL 1
REMARK VINA RESULT:      -8.8      0.000      0.000
REMARK  Name = 
REMARK  6 active torsions:
REMARK  status: ('A' for Active; 'I' for Inactive)
REMARK    1  A    between atoms: C_1  and  C_2
REMARK    2  A    between atoms: N_9  and  C_10
REMARK    3  A    between atoms: C_14  and  C_15
REMARK    4  A    between atoms: C_15  and  C_16
REMARK    5  A    between atoms: C_16  and  C_17
REMARK    6  A    between atoms: N_21  and  C_22
REMARK                            x       y       z     vdW  Elec       q    Type
REMARK                         _______ _______ _______ _____ _____    ______ ____
ROOT
ATOM      1  C   UNL     1       2.132   8.026  19.242  0.00  0.00    +0.000 A 
ATOM      2  C   UNL     1       2.550   8.468  17.980  0.00  0.00    +0.000 A 
ATOM      3  C   UNL     1       3.236   7.632  17.100  0.00  0.00    +0.000 A 
ATOM      4  C   UNL     1       3.474   6.308  17.451  0.00  0.00    +0.000 A 
ATOM      5  C   UNL     1       3.030   5.786  18.678  0.00  0.00    +0.000 A 
ATOM      6  C   UNL     1       2.422   6.696  19.568  0.00  0.00    +0.000 A 
ENDROOT
BRANCH   1  15
ATOM      7  C   UNL     1      -1.328  12.326  19.784  0.00  0.00    +0.000 C 
ATOM      8  C   UNL     1      -1.006  11.440  20.948  0.00  0.00    +0.000 A 
ATOM      9  N   UNL     1      -1.605  11.695  22.136  0.00  0.00    +0.000 NA
ATOM     10  C   UNL     1      -1.309  10.876  23.183  0.00  0.00    +0.000 A 
ATOM     11  C   UNL     1      -0.442   9.797  23.120  0.00  0.00    +0.000 A 
ATOM     12  C   UNL     1       0.153   9.563  21.899  0.00  0.00    +0.000 A 
ATOM     13  C   UNL     1      -0.126  10.388  20.812  0.00  0.00    +0.000 A 
ATOM     14  C   UNL     1       0.622   9.949  19.603  0.00  0.00    +0.000 C 
ATOM     15  N   UNL     1       1.464   8.858  20.114  0.00  0.00    +0.000 N 
ATOM     16  C   UNL     1       1.098   8.477  21.493  0.00  0.00    +0.000 C 
ENDBRANCH   1  15
BRANCH   5  17
ATOM     17  C   UNL     1       3.101   4.230  19.023  0.00  0.00    +0.000 C 
ATOM     18  C   UNL     1       1.804   3.437  18.676  0.00  0.00    +0.000 C 
ATOM     19  O   UNL     1       1.865   2.727  19.938  0.00  0.00    +0.000 OA
ATOM     20  C   UNL     1       2.727   3.774  20.467  0.00  0.00    +0.000 C 
BRANCH  17  21
ATOM     21  C   UNL     1       4.373   3.563  18.472  0.00  0.00    +0.000 C 
BRANCH  21  22
ATOM     22  C   UNL     1       5.626   4.338  18.727  0.00  0.00    +0.000 A 
ATOM     23  N   UNL     1       6.033   4.792  19.898  0.00  0.00    +0.000 NA
ATOM     24  N   UNL     1       7.245   5.413  19.726  0.00  0.00    +0.000 NA
ATOM     25  C   UNL     1       7.558   5.330  18.456  0.00  0.00    +0.000 A 
ATOM     26  N   UNL     1       6.574   4.668  17.791  0.00  0.00    +0.000 N 
ATOM     27  C   UNL     1       6.576   4.372  16.381  0.00  0.00    +0.000 C 
ENDBRANCH  21  22
ENDBRANCH  17  21
ENDBRANCH   5  17
TORSDOF 4
ENDMDL
MODEL 2
REMARK VINA RESULT:      -8.6      2.391      4.044
REMARK  Name = 
REMARK  6 active torsions:
REMARK  status: ('A' for Active; 'I' for Inactive)
REMARK    1  A    between atoms: C_1  and  C_2
REMARK    2  A    between atoms: N_9  and  C_10
REMARK    3  A    between atoms: C_14  and  C_15
REMARK    4  A    between atoms: C_15  and  C_16
REMARK    5  A    between atoms: C_16  and  C_17
REMARK    6  A    between atoms: N_21  and  C_22
REMARK                            x       y       z     vdW  Elec       q    Type
REMARK                         _______ _______ _______ _____ _____    ______ ____
ROOT
ATOM      1  C   UNL     1       3.083   6.155  19.315  0.00  0.00    +0.000 A 
ATOM      2  C   UNL     1       2.771   4.895  19.842  0.00  0.00    +0.000 A 
ATOM      3  C   UNL     1       3.664   3.828  19.769  0.00  0.00    +0.000 A 
ATOM      4  C   UNL     1       4.921   4.017  19.205  0.00  0.00    +0.000 A 
ATOM      5  C   UNL     1       5.318   5.271  18.710  0.00  0.00    +0.000 A 
ATOM      6  C   UNL     1       4.346   6.292  18.725  0.00  0.00    +0.000 A 
ENDROOT
BRANCH   1  15
ATOM      7  C   UNL     1      -0.052   9.356  22.582  0.00  0.00    +0.000 C 
ATOM      8  C   UNL     1       0.227   9.739  21.161  0.00  0.00    +0.000 A 
ATOM      9  N   UNL     1      -0.282  10.906  20.696  0.00  0.00    +0.000 NA
ATOM     10  C   UNL     1      -0.013  11.245  19.406  0.00  0.00    +0.000 A 
ATOM     11  C   UNL     1       0.748  10.483  18.532  0.00  0.00    +0.000 A 
ATOM     12  C   UNL     1       1.250   9.301  19.032  0.00  0.00    +0.000 A 
ATOM     13  C   UNL     1       0.986   8.926  20.347  0.00  0.00    +0.000 A 
ATOM     14  C   UNL     1       1.628   7.623  20.669  0.00  0.00    +0.000 C 
ATOM     15  N   UNL     1       2.194   7.206  19.378  0.00  0.00    +0.000 N 
ATOM     16  C   UNL     1       2.123   8.282  18.370  0.00  0.00    +0.000 C 
ENDBRANCH   1  15
BRANCH   5  17
ATOM     17  C   UNL     1       6.815   5.575  18.250  0.00  0.00    +0.000 C 
ATOM     18  C   UNL     1       7.777   5.962  19.414  0.00  0.00    +0.000 C 
ATOM     19  O   UNL     1       8.348   7.035  18.625  0.00  0.00    +0.000 OA
ATOM     20  C   UNL     1       7.166   7.020  17.777  0.00  0.00    +0.000 C 
BRANCH  17  21
ATOM     21  C   UNL     1       7.388   4.470  17.345  0.00  0.00    +0.000 C 
BRANCH  21  22
ATOM     22  C   UNL     1       7.005   4.602  15.906  0.00  0.00    +0.000 A 
ATOM     23  N   UNL     1       7.689   5.244  14.977  0.00  0.00    +0.000 NA
ATOM     24  N   UNL     1       7.034   5.102  13.778  0.00  0.00    +0.000 NA
ATOM     25  C   UNL     1       5.963   4.378  13.995  0.00  0.00    +0.000 A 
ATOM     26  N   UNL     1       5.902   4.044  15.312  0.00  0.00    +0.000 N 
ATOM     27  C   UNL     1       4.872   3.240  15.919  0.00  0.00    +0.000 C 
ENDBRANCH  21  22
ENDBRANCH  17  21
ENDBRANCH   5  17
TORSDOF 4
ENDMDL
MODEL 3
REMARK VINA RESULT:      -8.5      2.134      3.867
REMARK  Name = 
REMARK  6 active torsions:
REMARK  status: ('A' for Active; 'I' for Inactive)
REMARK    1  A    between atoms: C_1  and  C_2
REMARK    2  A    between atoms: N_9  and  C_10
REMARK    3  A    between atoms: C_14  and  C_15
REMARK    4  A    between atoms: C_15  and  C_16
REMARK    5  A    between atoms: C_16  and  C_17
REMARK    6  A    between atoms: N_21  and  C_22
REMARK                            x       y       z     vdW  Elec       q    Type
REMARK                         _______ _______ _______ _____ _____    ______ ____
ROOT
ATOM      1  C   UNL     1       2.931   5.805  18.716  0.00  0.00    +0.000 A 
ATOM      2  C   UNL     1       2.802   4.713  19.584  0.00  0.00    +0.000 A 
ATOM      3  C   UNL     1       3.493   3.522  19.371  0.00  0.00    +0.000 A 
ATOM      4  C   UNL     1       4.375   3.417  18.301  0.00  0.00    +0.000 A 
ATOM      5  C   UNL     1       4.594   4.496  17.428  0.00  0.00    +0.000 A 
ATOM      6  C   UNL     1       3.805   5.646  17.633  0.00  0.00    +0.000 A 
ENDROOT
BRANCH   1  15
ATOM      7  C   UNL     1       0.658   9.229  22.440  0.00  0.00    +0.000 C 
ATOM      8  C   UNL     1       0.878   9.662  21.022  0.00  0.00    +0.000 A 
ATOM      9  N   UNL     1       0.534  10.926  20.674  0.00  0.00    +0.000 NA
ATOM     10  C   UNL     1       0.746  11.308  19.385  0.00  0.00    +0.000 A 
ATOM     11  C   UNL     1       1.294  10.498  18.402  0.00  0.00    +0.000 A 
ATOM     12  C   UNL     1       1.632   9.218  18.785  0.00  0.00    +0.000 A 
ATOM     13  C   UNL     1       1.420   8.797  20.096  0.00  0.00    +0.000 A 
ATOM     14  C   UNL     1       1.860   7.389  20.282  0.00  0.00    +0.000 C 
ATOM     15  N   UNL     1       2.239   6.979  18.923  0.00  0.00    +0.000 N 
ATOM     16  C   UNL     1       2.264   8.121  17.988  0.00  0.00    +0.000 C 
ENDBRANCH   1  15
BRANCH   5  17
ATOM     17  C   UNL     1       5.746   4.483  16.323  0.00  0.00    +0.000 C 
ATOM     18  C   UNL     1       5.519   5.483  15.149  0.00  0.00    +0.000 C 
ATOM     19  O   UNL     1       5.920   4.482  14.181  0.00  0.00    +0.000 OA
ATOM     20  C   UNL     1       5.648   3.444  15.163  0.00  0.00    +0.000 C 
BRANCH  17  21
ATOM     21  C   UNL     1       7.152   4.593  16.938  0.00  0.00    +0.000 C 
BRANCH  21  22
ATOM     22  C   UNL     1       7.530   5.980  17.348  0.00  0.00    +0.000 A 
ATOM     23  N   UNL     1       7.576   7.037  16.560  0.00  0.00    +0.000 NA
ATOM     24  N   UNL     1       7.924   8.130  17.314  0.00  0.00    +0.000 NA
ATOM     25  C   UNL     1       8.086   7.723  18.550  0.00  0.00    +0.000 A 
ATOM     26  N   UNL     1       7.853   6.385  18.619  0.00  0.00    +0.000 N 
ATOM     27  C   UNL     1       7.920   5.589  19.818  0.00  0.00    +0.000 C 
ENDBRANCH  21  22
ENDBRANCH  17  21
ENDBRANCH   5  17
TORSDOF 4
ENDMDL
MODEL 4
REMARK VINA RESULT:      -8.4      2.575      3.850
REMARK  Name = 
REMARK  6 active torsions:
REMARK  status: ('A' for Active; 'I' for Inactive)
REMARK    1  A    between atoms: C_1  and  C_2
REMARK    2  A    between atoms: N_9  and  C_10
REMARK    3  A    between atoms: C_14  and  C_15
REMARK    4  A    between atoms: C_15  and  C_16
REMARK    5  A    between atoms: C_16  and  C_17
REMARK    6  A    between atoms: N_21  and  C_22
REMARK                            x       y       z     vdW  Elec       q    Type
REMARK                         _______ _______ _______ _____ _____    ______ ____
ROOT
ATOM      1  C   UNL     1       2.668   6.059  18.639  0.00  0.00    +0.000 A 
ATOM      2  C   UNL     1       1.847   4.943  18.430  0.00  0.00    +0.000 A 
ATOM      3  C   UNL     1       2.256   3.869  17.641  0.00  0.00    +0.000 A 
ATOM      4  C   UNL     1       3.530   3.869  17.083  0.00  0.00    +0.000 A 
ATOM      5  C   UNL     1       4.423   4.931  17.303  0.00  0.00    +0.000 A 
ATOM      6  C   UNL     1       3.929   6.032  18.031  0.00  0.00    +0.000 A 
ENDROOT
BRANCH   1  15
ATOM      7  C   UNL     1       1.035  11.359  18.694  0.00  0.00    +0.000 C 
ATOM      8  C   UNL     1       0.852  10.479  19.893  0.00  0.00    +0.000 A 
ATOM      9  N   UNL     1       0.249  11.002  20.989  0.00  0.00    +0.000 NA
ATOM     10  C   UNL     1       0.082  10.189  22.068  0.00  0.00    +0.000 A 
ATOM     11  C   UNL     1       0.481   8.863  22.126  0.00  0.00    +0.000 A 
ATOM     12  C   UNL     1       1.093   8.360  20.999  0.00  0.00    +0.000 A 
ATOM     13  C   UNL     1       1.283   9.170  19.881  0.00  0.00    +0.000 A 
ATOM     14  C   UNL     1       1.957   8.421  18.787  0.00  0.00    +0.000 C 
ATOM     15  N   UNL     1       2.256   7.124  19.411  0.00  0.00    +0.000 N 
ATOM     16  C   UNL     1       1.605   6.981  20.728  0.00  0.00    +0.000 C 
ENDBRANCH   1  15
BRANCH   5  17
ATOM     17  C   UNL     1       5.954   4.869  16.855  0.00  0.00    +0.000 C 
ATOM     18  C   UNL     1       6.956   4.641  18.027  0.00  0.00    +0.000 C 
ATOM     19  O   UNL     1       7.851   5.650  17.497  0.00  0.00    +0.000 OA
ATOM     20  C   UNL     1       6.745   6.209  16.734  0.00  0.00    +0.000 C 
BRANCH  17  21
ATOM     21  C   UNL     1       6.183   3.906  15.677  0.00  0.00    +0.000 C 
BRANCH  21  22
ATOM     22  C   UNL     1       6.860   4.532  14.501  0.00  0.00    +0.000 A 
ATOM     23  N   UNL     1       7.827   5.430  14.548  0.00  0.00    +0.000 NA
ATOM     24  N   UNL     1       8.211   5.725  13.264  0.00  0.00    +0.000 NA
ATOM     25  C   UNL     1       7.473   5.006  12.454  0.00  0.00    +0.000 A 
ATOM     26  N   UNL     1       6.612   4.246  13.182  0.00  0.00    +0.000 N 
ATOM     27  C   UNL     1       5.656   3.317  12.636  0.00  0.00    +0.000 C 
ENDBRANCH  21  22
ENDBRANCH  17  21
ENDBRANCH   5  17
TORSDOF 4
ENDMDL
MODEL 5
REMARK VINA RESULT:      -8.3      2.215      3.535
REMARK  Name = 
REMARK  6 active torsions:
REMARK  status: ('A' for Active; 'I' for Inactive)
REMARK    1  A    between atoms: C_1  and  C_2
REMARK    2  A    between atoms: N_9  and  C_10
REMARK    3  A    between atoms: C_14  and  C_15
REMARK    4  A    between atoms: C_15  and  C_16
REMARK    5  A    between atoms: C_16  and  C_17
REMARK    6  A    between atoms: N_21  and  C_22
REMARK                            x       y       z     vdW  Elec       q    Type
REMARK                         _______ _______ _______ _____ _____    ______ ____
ROOT
ATOM      1  C   UNL     1       2.667   5.728  18.565  0.00  0.00    +0.000 A 
ATOM      2  C   UNL     1       1.927   4.542  18.658  0.00  0.00    +0.000 A 
ATOM      3  C   UNL     1       2.252   3.414  17.907  0.00  0.00    +0.000 A 
ATOM      4  C   UNL     1       3.369   3.435  17.078  0.00  0.00    +0.000 A 
ATOM      5  C   UNL     1       4.186   4.574  16.984  0.00  0.00    +0.000 A 
ATOM      6  C   UNL     1       3.763   5.716  17.693  0.00  0.00    +0.000 A 
ENDROOT
BRANCH   1  15
ATOM      7  C   UNL     1       1.244  11.086  18.429  0.00  0.00    +0.000 C 
ATOM      8  C   UNL     1       1.088  10.275  19.679  0.00  0.00    +0.000 A 
ATOM      9  N   UNL     1       0.562  10.874  20.775  0.00  0.00    +0.000 NA
ATOM     10  C   UNL     1       0.419  10.123  21.901  0.00  0.00    +0.000 A 
ATOM     11  C   UNL     1       0.770   8.786  22.007  0.00  0.00    +0.000 A 
ATOM     12  C   UNL     1       1.304   8.204  20.878  0.00  0.00    +0.000 A 
ATOM     13  C   UNL     1       1.468   8.950  19.713  0.00  0.00    +0.000 A 
ATOM     14  C   UNL     1       2.056   8.122  18.627  0.00  0.00    +0.000 C 
ATOM     15  N   UNL     1       2.337   6.846  19.300  0.00  0.00    +0.000 N 
ATOM     16  C   UNL     1       1.748   6.793  20.653  0.00  0.00    +0.000 C 
ENDBRANCH   1  15
BRANCH   5  17
ATOM     17  C   UNL     1       5.582   4.564  16.209  0.00  0.00    +0.000 C 
ATOM     18  C   UNL     1       5.691   5.623  15.071  0.00  0.00    +0.000 C 
ATOM     19  O   UNL     1       6.299   4.651  14.185  0.00  0.00    +0.000 OA
ATOM     20  C   UNL     1       5.756   3.582  15.009  0.00  0.00    +0.000 C 
BRANCH  17  21
ATOM     21  C   UNL     1       6.786   4.591  17.167  0.00  0.00    +0.000 C 
BRANCH  21  22
ATOM     22  C   UNL     1       7.307   5.963  17.452  0.00  0.00    +0.000 A 
ATOM     23  N   UNL     1       7.296   6.986  16.618  0.00  0.00    +0.000 NA
ATOM     24  N   UNL     1       7.822   8.079  17.261  0.00  0.00    +0.000 NA
ATOM     25  C   UNL     1       8.146   7.706  18.475  0.00  0.00    +0.000 A 
ATOM     26  N   UNL     1       7.843   6.391  18.640  0.00  0.00    +0.000 N 
ATOM     27  C   UNL     1       8.044   5.636  19.851  0.00  0.00    +0.000 C 
ENDBRANCH  21  22
ENDBRANCH  17  21
ENDBRANCH   5  17
TORSDOF 4
ENDMDL
MODEL 6
REMARK VINA RESULT:      -8.2      2.106      3.383
REMARK  Name = 
REMARK  6 active torsions:
REMARK  status: ('A' for Active; 'I' for Inactive)
REMARK    1  A    between atoms: C_1  and  C_2
REMARK    2  A    between atoms: N_9  and  C_10
REMARK    3  A    between atoms: C_14  and  C_15
REMARK    4  A    between atoms: C_15  and  C_16
REMARK    5  A    between atoms: C_16  and  C_17
REMARK    6  A    between atoms: N_21  and  C_22
REMARK                            x       y       z     vdW  Elec       q    Type
REMARK                         _______ _______ _______ _____ _____    ______ ____
ROOT
ATOM      1  C   UNL     1       2.708   5.753  18.549  0.00  0.00    +0.000 A 
ATOM      2  C   UNL     1       2.096   4.510  18.757  0.00  0.00    +0.000 A 
ATOM      3  C   UNL     1       2.438   3.388  18.003  0.00  0.00    +0.000 A 
ATOM      4  C   UNL     1       3.447   3.479  17.051  0.00  0.00    +0.000 A 
ATOM      5  C   UNL     1       4.140   4.681  16.833  0.00  0.00    +0.000 A 
ATOM      6  C   UNL     1       3.695   5.807  17.557  0.00  0.00    +0.000 A 
ENDROOT
BRANCH   1  15
ATOM      7  C   UNL     1       1.208  11.091  18.431  0.00  0.00    +0.000 C 
ATOM      8  C   UNL     1       1.062  10.272  19.678  0.00  0.00    +0.000 A 
ATOM      9  N   UNL     1       0.525  10.860  20.774  0.00  0.00    +0.000 NA
ATOM     10  C   UNL     1       0.390  10.102  21.897  0.00  0.00    +0.000 A 
ATOM     11  C   UNL     1       0.760   8.770  21.999  0.00  0.00    +0.000 A 
ATOM     12  C   UNL     1       1.305   8.200  20.868  0.00  0.00    +0.000 A 
ATOM     13  C   UNL     1       1.460   8.953  19.707  0.00  0.00    +0.000 A 
ATOM     14  C   UNL     1       2.062   8.137  18.618  0.00  0.00    +0.000 C 
ATOM     15  N   UNL     1       2.360   6.863  19.287  0.00  0.00    +0.000 N 
ATOM     16  C   UNL     1       1.769   6.797  20.639  0.00  0.00    +0.000 C 
ENDBRANCH   1  15
BRANCH   5  17
ATOM     17  C   UNL     1       5.434   4.768  15.904  0.00  0.00    +0.000 C 
ATOM     18  C   UNL     1       5.139   4.637  14.379  0.00  0.00    +0.000 C 
ATOM     19  O   UNL     1       6.267   3.745  14.207  0.00  0.00    +0.000 OA
ATOM     20  C   UNL     1       6.240   3.459  15.633  0.00  0.00    +0.000 C 
BRANCH  17  21
ATOM     21  C   UNL     1       6.319   5.981  16.239  0.00  0.00    +0.000 C 
BRANCH  21  22
ATOM     22  C   UNL     1       7.035   5.870  17.547  0.00  0.00    +0.000 A 
ATOM     23  N   UNL     1       7.168   4.773  18.269  0.00  0.00    +0.000 NA
ATOM     24  N   UNL     1       7.924   5.068  19.376  0.00  0.00    +0.000 NA
ATOM     25  C   UNL     1       8.240   6.339  19.312  0.00  0.00    +0.000 A 
ATOM     26  N   UNL     1       7.704   6.883  18.187  0.00  0.00    +0.000 N 
ATOM     27  C   UNL     1       7.853   8.254  17.773  0.00  0.00    +0.000 C 
ENDBRANCH  21  22
ENDBRANCH  17  21
ENDBRANCH   5  17
TORSDOF 4
ENDMDL
MODEL 7
REMARK VINA RESULT:      -8.2      2.627      4.257
REMARK  Name = 
REMARK  6 active torsions:
REMARK  status: ('A' for Active; 'I' for Inactive)
REMARK    1  A    between atoms: C_1  and  C_2
REMARK    2  A    between atoms: N_9  and  C_10
REMARK    3  A    between atoms: C_14  and  C_15
REMARK    4  A    between atoms: C_15  and  C_16
REMARK    5  A    between atoms: C_16  and  C_17
REMARK    6  A    between atoms: N_21  and  C_22
REMARK                            x       y       z     vdW  Elec       q    Type
REMARK                         _______ _______ _______ _____ _____    ______ ____
ROOT
ATOM      1  C   UNL     1       2.581   6.127  18.168  0.00  0.00    +0.000 A 
ATOM      2  C   UNL     1       1.941   4.885  18.269  0.00  0.00    +0.000 A 
ATOM      3  C   UNL     1       2.548   3.710  17.830  0.00  0.00    +0.000 A 
ATOM      4  C   UNL     1       3.843   3.749  17.323  0.00  0.00    +0.000 A 
ATOM      5  C   UNL     1       4.561   4.954  17.249  0.00  0.00    +0.000 A 
ATOM      6  C   UNL     1       3.870   6.126  17.620  0.00  0.00    +0.000 A 
ENDROOT
BRANCH   1  15
ATOM      7  C   UNL     1       0.890   9.130  22.513  0.00  0.00    +0.000 C 
ATOM      8  C   UNL     1       0.980   9.732  21.143  0.00  0.00    +0.000 A 
ATOM      9  N   UNL     1       0.666  11.042  20.993  0.00  0.00    +0.000 NA
ATOM     10  C   UNL     1       0.761  11.577  19.745  0.00  0.00    +0.000 A 
ATOM     11  C   UNL     1       1.160  10.879  18.616  0.00  0.00    +0.000 A 
ATOM     12  C   UNL     1       1.471   9.549  18.799  0.00  0.00    +0.000 A 
ATOM     13  C   UNL     1       1.378   8.973  20.064  0.00  0.00    +0.000 A 
ATOM     14  C   UNL     1       1.762   7.537  20.026  0.00  0.00    +0.000 C 
ATOM     15  N   UNL     1       1.975   7.290  18.593  0.00  0.00    +0.000 N 
ATOM     16  C   UNL     1       1.959   8.540  17.808  0.00  0.00    +0.000 C 
ENDBRANCH   1  15
BRANCH   5  17
ATOM     17  C   UNL     1       6.111   5.005  16.871  0.00  0.00    +0.000 C 
ATOM     18  C   UNL     1       7.072   4.959  18.098  0.00  0.00    +0.000 C 
ATOM     19  O   UNL     1       7.895   6.007  17.530  0.00  0.00    +0.000 OA
ATOM     20  C   UNL     1       6.781   6.402  16.681  0.00  0.00    +0.000 C 
BRANCH  17  21
ATOM     21  C   UNL     1       6.484   3.986  15.781  0.00  0.00    +0.000 C 
BRANCH  21  22
ATOM     22  C   UNL     1       7.031   4.601  14.533  0.00  0.00    +0.000 A 
ATOM     23  N   UNL     1       7.996   5.499  14.469  0.00  0.00    +0.000 NA
ATOM     24  N   UNL     1       8.241   5.782  13.148  0.00  0.00    +0.000 NA
ATOM     25  C   UNL     1       7.422   5.054  12.428  0.00  0.00    +0.000 A 
ATOM     26  N   UNL     1       6.644   4.301  13.251  0.00  0.00    +0.000 N 
ATOM     27  C   UNL     1       5.637   3.367  12.819  0.00  0.00    +0.000 C 
ENDBRANCH  21  22
ENDBRANCH  17  21
ENDBRANCH   5  17
TORSDOF 4
ENDMDL
MODEL 8
REMARK VINA RESULT:      -8.2      0.945      1.440
REMARK  Name = 
REMARK  6 active torsions:
REMARK  status: ('A' for Active; 'I' for Inactive)
REMARK    1  A    between atoms: C_1  and  C_2
REMARK    2  A    between atoms: N_9  and  C_10
REMARK    3  A    between atoms: C_14  and  C_15
REMARK    4  A    between atoms: C_15  and  C_16
REMARK    5  A    between atoms: C_16  and  C_17
REMARK    6  A    between atoms: N_21  and  C_22
REMARK                            x       y       z     vdW  Elec       q    Type
REMARK                         _______ _______ _______ _____ _____    ______ ____
ROOT
ATOM      1  C   UNL     1       1.752   8.314  19.526  0.00  0.00    +0.000 A 
ATOM      2  C   UNL     1       2.293   8.704  18.294  0.00  0.00    +0.000 A 
ATOM      3  C   UNL     1       2.980   7.806  17.478  0.00  0.00    +0.000 A 
ATOM      4  C   UNL     1       3.095   6.474  17.861  0.00  0.00    +0.000 A 
ATOM      5  C   UNL     1       2.525   6.007  19.058  0.00  0.00    +0.000 A 
ATOM      6  C   UNL     1       1.920   6.972  19.889  0.00  0.00    +0.000 A 
ENDROOT
BRANCH   1  15
ATOM      7  C   UNL     1      -1.514  12.791  19.751  0.00  0.00    +0.000 C 
ATOM      8  C   UNL     1      -1.295  11.930  20.959  0.00  0.00    +0.000 A 
ATOM      9  N   UNL     1      -1.939  12.254  22.106  0.00  0.00    +0.000 NA
ATOM     10  C   UNL     1      -1.736  11.459  23.192  0.00  0.00    +0.000 A 
ATOM     11  C   UNL     1      -0.921  10.338  23.208  0.00  0.00    +0.000 A 
ATOM     12  C   UNL     1      -0.278  10.035  22.028  0.00  0.00    +0.000 A 
ATOM     13  C   UNL     1      -0.462  10.834  20.902  0.00  0.00    +0.000 A 
ATOM     14  C   UNL     1       0.322  10.318  19.748  0.00  0.00    +0.000 C 
ATOM     15  N   UNL     1       1.083   9.207  20.336  0.00  0.00    +0.000 N 
ATOM     16  C   UNL     1       0.631   8.891  21.706  0.00  0.00    +0.000 C 
ENDBRANCH   1  15
BRANCH   5  17
ATOM     17  C   UNL     1       2.457   4.455  19.425  0.00  0.00    +0.000 C 
ATOM     18  C   UNL     1       1.524   3.618  18.498  0.00  0.00    +0.000 C 
ATOM     19  O   UNL     1       0.971   2.917  19.639  0.00  0.00    +0.000 OA
ATOM     20  C   UNL     1       1.428   3.994  20.504  0.00  0.00    +0.000 C 
BRANCH  17  21
ATOM     21  C   UNL     1       3.852   3.829  19.591  0.00  0.00    +0.000 C 
BRANCH  21  22
ATOM     22  C   UNL     1       4.710   3.920  18.371  0.00  0.00    +0.000 A 
ATOM     23  N   UNL     1       4.460   3.360  17.202  0.00  0.00    +0.000 NA
ATOM     24  N   UNL     1       5.459   3.709  16.328  0.00  0.00    +0.000 NA
ATOM     25  C   UNL     1       6.302   4.475  16.976  0.00  0.00    +0.000 A 
ATOM     26  N   UNL     1       5.877   4.633  18.257  0.00  0.00    +0.000 N 
ATOM     27  C   UNL     1       6.540   5.423  19.263  0.00  0.00    +0.000 C 
ENDBRANCH  21  22
ENDBRANCH  17  21
ENDBRANCH   5  17
TORSDOF 4
ENDMDL
MODEL 9
REMARK VINA RESULT:      -8.1      0.624      1.598
REMARK  Name = 
REMARK  6 active torsions:
REMARK  status: ('A' for Active; 'I' for Inactive)
REMARK    1  A    between atoms: C_1  and  C_2
REMARK    2  A    between atoms: N_9  and  C_10
REMARK    3  A    between atoms: C_14  and  C_15
REMARK    4  A    between atoms: C_15  and  C_16
REMARK    5  A    between atoms: C_16  and  C_17
REMARK    6  A    between atoms: N_21  and  C_22
REMARK                            x       y       z     vdW  Elec       q    Type
REMARK                         _______ _______ _______ _____ _____    ______ ____
ROOT
ATOM      1  C   UNL     1       2.108   8.028  18.706  0.00  0.00    +0.000 A 
ATOM      2  C   UNL     1       2.858   8.546  17.642  0.00  0.00    +0.000 A 
ATOM      3  C   UNL     1       3.810   7.779  16.974  0.00  0.00    +0.000 A 
ATOM      4  C   UNL     1       3.996   6.447  17.328  0.00  0.00    +0.000 A 
ATOM      5  C   UNL     1       3.235   5.850  18.348  0.00  0.00    +0.000 A 
ATOM      6  C   UNL     1       2.351   6.693  19.052  0.00  0.00    +0.000 A 
ENDROOT
BRANCH   1  15
ATOM      7  C   UNL     1      -0.004   9.482  23.624  0.00  0.00    +0.000 C 
ATOM      8  C   UNL     1      -0.317  10.264  22.384  0.00  0.00    +0.000 A 
ATOM      9  N   UNL     1      -1.108  11.358  22.496  0.00  0.00    +0.000 NA
ATOM     10  C   UNL     1      -1.378  12.063  21.364  0.00  0.00    +0.000 A 
ATOM     11  C   UNL     1      -0.897  11.745  20.103  0.00  0.00    +0.000 A 
ATOM     12  C   UNL     1      -0.097  10.627  20.020  0.00  0.00    +0.000 A 
ATOM     13  C   UNL     1       0.191   9.882  21.162  0.00  0.00    +0.000 A 
ATOM     14  C   UNL     1       1.071   8.727  20.838  0.00  0.00    +0.000 C 
ATOM     15  N   UNL     1       1.175   8.792  19.373  0.00  0.00    +0.000 N 
ATOM     16  C   UNL     1       0.599  10.039  18.833  0.00  0.00    +0.000 C 
ENDBRANCH   1  15
BRANCH   5  17
ATOM     17  C   UNL     1       3.274   4.282  18.638  0.00  0.00    +0.000 C 
ATOM     18  C   UNL     1       2.027   3.503  18.119  0.00  0.00    +0.000 C 
ATOM     19  O   UNL     1       1.951   2.745  19.351  0.00  0.00    +0.000 OA
ATOM     20  C   UNL     1       2.743   3.770  20.013  0.00  0.00    +0.000 C 
BRANCH  17  21
ATOM     21  C   UNL     1       4.603   3.637  18.208  0.00  0.00    +0.000 C 
BRANCH  21  22
ATOM     22  C   UNL     1       5.816   4.402  18.628  0.00  0.00    +0.000 A 
ATOM     23  N   UNL     1       6.078   4.833  19.849  0.00  0.00    +0.000 NA
ATOM     24  N   UNL     1       7.302   5.453  19.839  0.00  0.00    +0.000 NA
ATOM     25  C   UNL     1       7.767   5.393  18.615  0.00  0.00    +0.000 A 
ATOM     26  N   UNL     1       6.871   4.747  17.822  0.00  0.00    +0.000 N 
ATOM     27  C   UNL     1       7.045   4.477  16.418  0.00  0.00    +0.000 C 
ENDBRANCH  21  22
ENDBRANCH  17  21
ENDBRANCH   5  17
TORSDOF 4
ENDMDL
