MODEL 1
REMARK VINA RESULT:      -8.0      0.000      0.000
REMARK  Name = 
REMARK  5 active torsions:
REMARK  status: ('A' for Active; 'I' for Inactive)
REMARK    1  A    between atoms: C_1  and  C_2
REMARK    2  A    between atoms: C_4  and  N_5
REMARK    3  A    between atoms: C_8  and  N_9
REMARK    4  A    between atoms: C_10  and  C_12
REMARK    5  A    between atoms: C_24  and  C_25
REMARK                            x       y       z     vdW  Elec       q    Type
REMARK                         _______ _______ _______ _____ _____    ______ ____
ROOT
ATOM      1  N   UNL     1       5.711   4.960  15.890  0.00  0.00    +0.000 N 
ATOM      2  C   UNL     1       6.223   6.095  16.656  0.00  0.00    +0.000 C 
ATOM      3  C   UNL     1       6.196   5.702  18.134  0.00  0.00    +0.000 C 
ATOM      4  C   UNL     1       4.818   5.196  18.582  0.00  0.00    +0.000 C 
ATOM      5  C   UNL     1       4.232   4.161  17.614  0.00  0.00    +0.000 C 
ATOM      6  C   UNL     1       4.318   4.618  16.161  0.00  0.00    +0.000 C 
ENDROOT
BRANCH   1  10
ATOM      7  C   UNL     1       5.879   2.374  11.741  0.00  0.00    +0.000 C 
ATOM      8  C   UNL     1       6.312   3.520  12.602  0.00  0.00    +0.000 A 
ATOM      9  C   UNL     1       5.687   3.778  13.806  0.00  0.00    +0.000 A 
ATOM     10  C   UNL     1       6.210   4.781  14.604  0.00  0.00    +0.000 A 
ATOM     11  N   UNL     1       7.276   5.492  14.204  0.00  0.00    +0.000 NA
ATOM     12  C   UNL     1       7.818   5.193  13.012  0.00  0.00    +0.000 A 
ATOM     13  C   UNL     1       9.046   5.938  12.598  0.00  0.00    +0.000 C 
ATOM     14  N   UNL     1       7.376   4.228  12.183  0.00  0.00    +0.000 NA
ENDBRANCH   1  10
BRANCH   4  15
ATOM     15  N   UNL     1       3.880   6.298  18.791  0.00  0.00    +0.000 N 
ATOM     16  C   UNL     1       2.858   6.205  19.716  0.00  0.00    +0.000 C 
ATOM     17  O   UNL     1       2.647   5.206  20.393  0.00  0.00    +0.000 OA
ATOM     18  H   UNL     1       4.141   7.217  18.464  0.00  0.00    +0.000 HD
BRANCH  16  19
ATOM     19  C   UNL     1       2.016   7.423  19.889  0.00  0.00    +0.000 A 
ATOM     20  C   UNL     1       1.324   7.573  21.095  0.00  0.00    +0.000 A 
ATOM     21  C   UNL     1       0.515   8.692  21.324  0.00  0.00    +0.000 A 
ATOM     22  C   UNL     1       0.383   9.664  20.316  0.00  0.00    +0.000 A 
ATOM     23  C   UNL     1      -0.341  10.884  20.210  0.00  0.00    +0.000 A 
ATOM     24  C   UNL     1      -0.109  11.402  18.957  0.00  0.00    +0.000 A 
ATOM     25  N   UNL     1       0.741  10.551  18.301  0.00  0.00    +0.000 N 
ATOM     26  C   UNL     1       1.064   9.484  19.111  0.00  0.00    +0.000 A 
ATOM     27  C   UNL     1       1.889   8.377  18.865  0.00  0.00    +0.000 A 
ATOM     28  H   UNL     1       1.076  10.680  17.358  0.00  0.00    +0.000 HD
ENDBRANCH  16  19
ENDBRANCH   4  15
TORSDOF 3
ENDMDL
MODEL 2
REMARK VINA RESULT:      -7.9      0.574      1.643
REMARK  Name = 
REMARK  5 active torsions:
REMARK  status: ('A' for Active; 'I' for Inactive)
REMARK    1  A    between atoms: C_1  and  C_2
REMARK    2  A    between atoms: C_4  and  N_5
REMARK    3  A    between atoms: C_8  and  N_9
REMARK    4  A    between atoms: C_10  and  C_12
REMARK    5  A    between atoms: C_24  and  C_25
REMARK                            x       y       z     vdW  Elec       q    Type
REMARK                         _______ _______ _______ _____ _____    ______ ____
ROOT
ATOM      1  N   UNL     1       5.736   4.678  16.068  0.00  0.00    +0.000 N 
ATOM      2  C   UNL     1       6.282   5.782  16.856  0.00  0.00    +0.000 C 
ATOM      3  C   UNL     1       6.155   5.400  18.332  0.00  0.00    +0.000 C 
ATOM      4  C   UNL     1       4.725   4.989  18.711  0.00  0.00    +0.000 C 
ATOM      5  C   UNL     1       4.122   3.988  17.717  0.00  0.00    +0.000 C 
ATOM      6  C   UNL     1       4.312   4.430  16.269  0.00  0.00    +0.000 C 
ENDROOT
BRANCH   1  10
ATOM      7  C   UNL     1       8.808   6.017  12.505  0.00  0.00    +0.000 C 
ATOM      8  C   UNL     1       7.755   5.115  13.073  0.00  0.00    +0.000 A 
ATOM      9  C   UNL     1       7.340   5.247  14.384  0.00  0.00    +0.000 A 
ATOM     10  C   UNL     1       6.286   4.458  14.811  0.00  0.00    +0.000 A 
ATOM     11  N   UNL     1       5.706   3.578  13.979  0.00  0.00    +0.000 NA
ATOM     12  C   UNL     1       6.178   3.496  12.724  0.00  0.00    +0.000 A 
ATOM     13  C   UNL     1       5.487   2.566  11.779  0.00  0.00    +0.000 C 
ATOM     14  N   UNL     1       7.190   4.234  12.230  0.00  0.00    +0.000 NA
ENDBRANCH   1  10
BRANCH   4  15
ATOM     15  N   UNL     1       3.853   6.151  18.869  0.00  0.00    +0.000 N 
ATOM     16  C   UNL     1       2.793   6.139  19.756  0.00  0.00    +0.000 C 
ATOM     17  O   UNL     1       2.494   5.167  20.439  0.00  0.00    +0.000 OA
ATOM     18  H   UNL     1       4.183   7.046  18.538  0.00  0.00    +0.000 HD
BRANCH  16  19
ATOM     19  C   UNL     1       2.026   7.410  19.879  0.00  0.00    +0.000 A 
ATOM     20  C   UNL     1       1.358   7.656  21.084  0.00  0.00    +0.000 A 
ATOM     21  C   UNL     1       0.618   8.830  21.268  0.00  0.00    +0.000 A 
ATOM     22  C   UNL     1       0.530   9.760  20.216  0.00  0.00    +0.000 A 
ATOM     23  C   UNL     1      -0.124  11.013  20.060  0.00  0.00    +0.000 A 
ATOM     24  C   UNL     1       0.121  11.458  18.781  0.00  0.00    +0.000 A 
ATOM     25  N   UNL     1       0.912  10.530  18.158  0.00  0.00    +0.000 N 
ATOM     26  C   UNL     1       1.183   9.485  19.014  0.00  0.00    +0.000 A 
ATOM     27  C   UNL     1       1.940   8.322  18.812  0.00  0.00    +0.000 A 
ATOM     28  H   UNL     1       1.242  10.595  17.206  0.00  0.00    +0.000 HD
ENDBRANCH  16  19
ENDBRANCH   4  15
TORSDOF 3
ENDMDL
MODEL 3
REMARK VINA RESULT:      -7.9      0.946      1.438
REMARK  Name = 
REMARK  5 active torsions:
REMARK  status: ('A' for Active; 'I' for Inactive)
REMARK    1  A    between atoms: C_1  and  C_2
REMARK    2  A    between atoms: C_4  and  N_5
REMARK    3  A    between atoms: C_8  and  N_9
REMARK    4  A    between atoms: C_10  and  C_12
REMARK    5  A    between atoms: C_24  and  C_25
REMARK                            x       y       z     vdW  Elec       q    Type
REMARK                         _______ _______ _______ _____ _____    ______ ____
ROOT
ATOM      1  N   UNL     1       5.764   4.976  15.971  0.00  0.00    +0.000 N 
ATOM      2  C   UNL     1       6.302   6.091  16.749  0.00  0.00    +0.000 C 
ATOM      3  C   UNL     1       6.292   5.672  18.220  0.00  0.00    +0.000 C 
ATOM      4  C   UNL     1       4.914   5.176  18.680  0.00  0.00    +0.000 C 
ATOM      5  C   UNL     1       4.301   4.166  17.703  0.00  0.00    +0.000 C 
ATOM      6  C   UNL     1       4.371   4.648  16.257  0.00  0.00    +0.000 C 
ENDROOT
BRANCH   1  10
ATOM      7  C   UNL     1       5.783   2.502  11.751  0.00  0.00    +0.000 C 
ATOM      8  C   UNL     1       6.271   3.606  12.638  0.00  0.00    +0.000 A 
ATOM      9  C   UNL     1       5.670   3.855  13.856  0.00  0.00    +0.000 A 
ATOM     10  C   UNL     1       6.241   4.814  14.675  0.00  0.00    +0.000 A 
ATOM     11  N   UNL     1       7.330   5.493  14.282  0.00  0.00    +0.000 NA
ATOM     12  C   UNL     1       7.847   5.206  13.075  0.00  0.00    +0.000 A 
ATOM     13  C   UNL     1       9.099   5.913  12.667  0.00  0.00    +0.000 C 
ATOM     14  N   UNL     1       7.358   4.283  12.226  0.00  0.00    +0.000 NA
ENDBRANCH   1  10
BRANCH   4  15
ATOM     15  N   UNL     1       3.994   6.286  18.923  0.00  0.00    +0.000 N 
ATOM     16  C   UNL     1       2.864   6.124  19.700  0.00  0.00    +0.000 C 
ATOM     17  O   UNL     1       2.538   5.058  20.209  0.00  0.00    +0.000 OA
ATOM     18  H   UNL     1       4.323   7.225  18.754  0.00  0.00    +0.000 HD
BRANCH  16  19
ATOM     19  C   UNL     1       2.047   7.349  19.934  0.00  0.00    +0.000 A 
ATOM     20  C   UNL     1       1.942   8.274  18.889  0.00  0.00    +0.000 A 
ATOM     21  C   UNL     1       1.192   9.445  19.040  0.00  0.00    +0.000 A 
ATOM     22  C   UNL     1       0.556   9.702  20.269  0.00  0.00    +0.000 A 
ATOM     23  C   UNL     1      -0.254  10.765  20.757  0.00  0.00    +0.000 A 
ATOM     24  C   UNL     1      -0.569  10.484  22.066  0.00  0.00    +0.000 A 
ATOM     25  N   UNL     1       0.005   9.282  22.388  0.00  0.00    +0.000 N 
ATOM     26  C   UNL     1       0.692   8.779  21.306  0.00  0.00    +0.000 A 
ATOM     27  C   UNL     1       1.428   7.593  21.172  0.00  0.00    +0.000 A 
ATOM     28  H   UNL     1      -0.059   8.833  23.290  0.00  0.00    +0.000 HD
ENDBRANCH  16  19
ENDBRANCH   4  15
TORSDOF 3
ENDMDL
MODEL 4
REMARK VINA RESULT:      -7.8      1.065      2.154
REMARK  Name = 
REMARK  5 active torsions:
REMARK  status: ('A' for Active; 'I' for Inactive)
REMARK    1  A    between atoms: C_1  and  C_2
REMARK    2  A    between atoms: C_4  and  N_5
REMARK    3  A    between atoms: C_8  and  N_9
REMARK    4  A    between atoms: C_10  and  C_12
REMARK    5  A    between atoms: C_24  and  C_25
REMARK                            x       y       z     vdW  Elec       q    Type
REMARK                         _______ _______ _______ _____ _____    ______ ____
ROOT
ATOM      1  N   UNL     1       5.761   4.622  16.041  0.00  0.00    +0.000 N 
ATOM      2  C   UNL     1       6.307   5.728  16.825  0.00  0.00    +0.000 C 
ATOM      3  C   UNL     1       6.216   5.335  18.301  0.00  0.00    +0.000 C 
ATOM      4  C   UNL     1       4.800   4.902  18.706  0.00  0.00    +0.000 C 
ATOM      5  C   UNL     1       4.191   3.899  17.718  0.00  0.00    +0.000 C 
ATOM      6  C   UNL     1       4.345   4.353  16.269  0.00  0.00    +0.000 C 
ENDROOT
BRANCH   1  10
ATOM      7  C   UNL     1       8.736   6.033  12.423  0.00  0.00    +0.000 C 
ATOM      8  C   UNL     1       7.710   5.110  13.007  0.00  0.00    +0.000 A 
ATOM      9  C   UNL     1       7.320   5.228  14.327  0.00  0.00    +0.000 A 
ATOM     10  C   UNL     1       6.289   4.419  14.771  0.00  0.00    +0.000 A 
ATOM     11  N   UNL     1       5.706   3.533  13.947  0.00  0.00    +0.000 NA
ATOM     12  C   UNL     1       6.154   3.466  12.682  0.00  0.00    +0.000 A 
ATOM     13  C   UNL     1       5.459   2.529  11.747  0.00  0.00    +0.000 C 
ATOM     14  N   UNL     1       7.143   4.223  12.171  0.00  0.00    +0.000 NA
ENDBRANCH   1  10
BRANCH   4  15
ATOM     15  N   UNL     1       3.915   6.050  18.889  0.00  0.00    +0.000 N 
ATOM     16  C   UNL     1       2.847   6.001  19.764  0.00  0.00    +0.000 C 
ATOM     17  O   UNL     1       2.550   5.007  20.415  0.00  0.00    +0.000 OA
ATOM     18  H   UNL     1       4.240   6.958  18.589  0.00  0.00    +0.000 HD
BRANCH  16  19
ATOM     19  C   UNL     1       2.065   7.261  19.918  0.00  0.00    +0.000 A 
ATOM     20  C   UNL     1       2.036   8.148  18.836  0.00  0.00    +0.000 A 
ATOM     21  C   UNL     1       1.322   9.349  18.911  0.00  0.00    +0.000 A 
ATOM     22  C   UNL     1       0.646   9.675  20.102  0.00  0.00    +0.000 A 
ATOM     23  C   UNL     1      -0.144  10.782  20.516  0.00  0.00    +0.000 A 
ATOM     24  C   UNL     1      -0.524  10.562  21.820  0.00  0.00    +0.000 A 
ATOM     25  N   UNL     1      -0.006   9.355  22.211  0.00  0.00    +0.000 N 
ATOM     26  C   UNL     1       0.707   8.787  21.177  0.00  0.00    +0.000 A 
ATOM     27  C   UNL     1       1.405   7.573  21.119  0.00  0.00    +0.000 A 
ATOM     28  H   UNL     1      -0.122   8.943  23.125  0.00  0.00    +0.000 HD
ENDBRANCH  16  19
ENDBRANCH   4  15
TORSDOF 3
ENDMDL
MODEL 5
REMARK VINA RESULT:      -7.7      3.939      7.317
REMARK  Name = 
REMARK  5 active torsions:
REMARK  status: ('A' for Active; 'I' for Inactive)
REMARK    1  A    between atoms: C_1  and  C_2
REMARK    2  A    between atoms: C_4  and  N_5
REMARK    3  A    between atoms: C_8  and  N_9
REMARK    4  A    between atoms: C_10  and  C_12
REMARK    5  A    between atoms: C_24  and  C_25
REMARK                            x       y       z     vdW  Elec       q    Type
REMARK                         _______ _______ _______ _____ _____    ______ ____
ROOT
ATOM      1  N   UNL     1       1.750   8.179  19.663  0.00  0.00    +0.000 N 
ATOM      2  C   UNL     1       1.335   8.749  18.383  0.00  0.00    +0.000 C 
ATOM      3  C   UNL     1       1.459  10.270  18.495  0.00  0.00    +0.000 C 
ATOM      4  C   UNL     1       0.716  10.831  19.716  0.00  0.00    +0.000 C 
ATOM      5  C   UNL     1       1.026  10.048  20.998  0.00  0.00    +0.000 C 
ATOM      6  C   UNL     1       0.904   8.540  20.796  0.00  0.00    +0.000 C 
ENDROOT
BRANCH   1  10
ATOM      7  C   UNL     1       4.474   4.830  17.362  0.00  0.00    +0.000 C 
ATOM      8  C   UNL     1       3.641   5.288  18.520  0.00  0.00    +0.000 A 
ATOM      9  C   UNL     1       3.200   6.594  18.604  0.00  0.00    +0.000 A 
ATOM     10  C   UNL     1       2.342   6.921  19.640  0.00  0.00    +0.000 A 
ATOM     11  N   UNL     1       1.972   6.000  20.543  0.00  0.00    +0.000 NA
ATOM     12  C   UNL     1       2.457   4.755  20.403  0.00  0.00    +0.000 A 
ATOM     13  C   UNL     1       1.991   3.712  21.369  0.00  0.00    +0.000 C 
ATOM     14  N   UNL     1       3.286   4.355  19.420  0.00  0.00    +0.000 NA
ENDBRANCH   1  10
BRANCH   4  15
ATOM     15  N   UNL     1      -0.726  10.899  19.487  0.00  0.00    +0.000 N 
ATOM     16  C   UNL     1      -1.282  11.891  18.703  0.00  0.00    +0.000 C 
ATOM     17  O   UNL     1      -0.629  12.784  18.177  0.00  0.00    +0.000 OA
ATOM     18  H   UNL     1      -1.279  10.075  19.672  0.00  0.00    +0.000 HD
BRANCH  16  19
ATOM     19  C   UNL     1      -2.754  11.808  18.485  0.00  0.00    +0.000 A 
ATOM     20  C   UNL     1      -3.206  11.356  17.240  0.00  0.00    +0.000 A 
ATOM     21  C   UNL     1      -4.574  11.253  16.967  0.00  0.00    +0.000 A 
ATOM     22  C   UNL     1      -5.504  11.632  17.953  0.00  0.00    +0.000 A 
ATOM     23  C   UNL     1      -6.924  11.664  18.009  0.00  0.00    +0.000 A 
ATOM     24  C   UNL     1      -7.284  12.166  19.239  0.00  0.00    +0.000 A 
ATOM     25  N   UNL     1      -6.136  12.427  19.939  0.00  0.00    +0.000 N 
ATOM     26  C   UNL     1      -5.033  12.102  19.180  0.00  0.00    +0.000 A 
ATOM     27  C   UNL     1      -3.666  12.201  19.479  0.00  0.00    +0.000 A 
ATOM     28  H   UNL     1      -6.100  12.809  20.873  0.00  0.00    +0.000 HD
ENDBRANCH  16  19
ENDBRANCH   4  15
TORSDOF 3
ENDMDL
MODEL 6
REMARK VINA RESULT:      -7.6      4.142      7.143
REMARK  Name = 
REMARK  5 active torsions:
REMARK  status: ('A' for Active; 'I' for Inactive)
REMARK    1  A    between atoms: C_1  and  C_2
REMARK    2  A    between atoms: C_4  and  N_5
REMARK    3  A    between atoms: C_8  and  N_9
REMARK    4  A    between atoms: C_10  and  C_12
REMARK    5  A    between atoms: C_24  and  C_25
REMARK                            x       y       z     vdW  Elec       q    Type
REMARK                         _______ _______ _______ _____ _____    ______ ____
ROOT
ATOM      1  N   UNL     1       1.871   7.830  19.713  0.00  0.00    +0.000 N 
ATOM      2  C   UNL     1       1.515   8.375  18.404  0.00  0.00    +0.000 C 
ATOM      3  C   UNL     1       1.688   9.893  18.476  0.00  0.00    +0.000 C 
ATOM      4  C   UNL     1       0.930  10.516  19.657  0.00  0.00    +0.000 C 
ATOM      5  C   UNL     1       1.174   9.761  20.971  0.00  0.00    +0.000 C 
ATOM      6  C   UNL     1       1.005   8.253  20.808  0.00  0.00    +0.000 C 
ENDROOT
BRANCH   1  10
ATOM      7  C   UNL     1       1.946   3.304  21.570  0.00  0.00    +0.000 C 
ATOM      8  C   UNL     1       2.474   4.367  20.655  0.00  0.00    +0.000 A 
ATOM      9  C   UNL     1       1.817   5.574  20.516  0.00  0.00    +0.000 A 
ATOM     10  C   UNL     1       2.419   6.552  19.743  0.00  0.00    +0.000 A 
ATOM     11  N   UNL     1       3.592   6.321  19.133  0.00  0.00    +0.000 NA
ATOM     12  C   UNL     1       4.160   5.115  19.302  0.00  0.00    +0.000 A 
ATOM     13  C   UNL     1       5.499   4.882  18.678  0.00  0.00    +0.000 C 
ATOM     14  N   UNL     1       3.645   4.117  20.044  0.00  0.00    +0.000 NA
ENDBRANCH   1  10
BRANCH   4  15
ATOM     15  N   UNL     1      -0.501  10.626  19.383  0.00  0.00    +0.000 N 
ATOM     16  C   UNL     1      -1.029  11.742  18.763  0.00  0.00    +0.000 C 
ATOM     17  O   UNL     1      -0.359  12.713  18.431  0.00  0.00    +0.000 OA
ATOM     18  H   UNL     1      -1.057   9.784  19.395  0.00  0.00    +0.000 HD
BRANCH  16  19
ATOM     19  C   UNL     1      -2.490  11.702  18.470  0.00  0.00    +0.000 A 
ATOM     20  C   UNL     1      -2.891  11.266  17.203  0.00  0.00    +0.000 A 
ATOM     21  C   UNL     1      -4.247  11.203  16.861  0.00  0.00    +0.000 A 
ATOM     22  C   UNL     1      -5.213  11.607  17.800  0.00  0.00    +0.000 A 
ATOM     23  C   UNL     1      -6.633  11.679  17.785  0.00  0.00    +0.000 A 
ATOM     24  C   UNL     1      -7.040  12.188  18.997  0.00  0.00    +0.000 A 
ATOM     25  N   UNL     1      -5.922  12.414  19.755  0.00  0.00    +0.000 N 
ATOM     26  C   UNL     1      -4.792  12.060  19.051  0.00  0.00    +0.000 A 
ATOM     27  C   UNL     1      -3.440  12.119  19.419  0.00  0.00    +0.000 A 
ATOM     28  H   UNL     1      -5.923  12.792  20.691  0.00  0.00    +0.000 HD
ENDBRANCH  16  19
ENDBRANCH   4  15
TORSDOF 3
ENDMDL
MODEL 7
REMARK VINA RESULT:      -7.5      3.254      5.765
REMARK  Name = 
REMARK  5 active torsions:
REMARK  status: ('A' for Active; 'I' for Inactive)
REMARK    1  A    between atoms: C_1  and  C_2
REMARK    2  A    between atoms: C_4  and  N_5
REMARK    3  A    between atoms: C_8  and  N_9
REMARK    4  A    between atoms: C_10  and  C_12
REMARK    5  A    between atoms: C_24  and  C_25
REMARK                            x       y       z     vdW  Elec       q    Type
REMARK                         _______ _______ _______ _____ _____    ______ ____
ROOT
ATOM      1  N   UNL     1       2.583   7.075  18.545  0.00  0.00    +0.000 N 
ATOM      2  C   UNL     1       2.262   8.122  17.577  0.00  0.00    +0.000 C 
ATOM      3  C   UNL     1       2.363   9.466  18.301  0.00  0.00    +0.000 C 
ATOM      4  C   UNL     1       1.524   9.504  19.587  0.00  0.00    +0.000 C 
ATOM      5  C   UNL     1       1.742   8.264  20.463  0.00  0.00    +0.000 C 
ATOM      6  C   UNL     1       1.649   6.969  19.662  0.00  0.00    +0.000 C 
ENDROOT
BRANCH   1  10
ATOM      7  C   UNL     1       5.911   4.930  15.673  0.00  0.00    +0.000 C 
ATOM      8  C   UNL     1       4.780   4.876  16.654  0.00  0.00    +0.000 A 
ATOM      9  C   UNL     1       4.304   6.027  17.252  0.00  0.00    +0.000 A 
ATOM     10  C   UNL     1       3.185   5.921  18.060  0.00  0.00    +0.000 A 
ATOM     11  N   UNL     1       2.600   4.731  18.271  0.00  0.00    +0.000 NA
ATOM     12  C   UNL     1       3.133   3.655  17.668  0.00  0.00    +0.000 A 
ATOM     13  C   UNL     1       2.441   2.342  17.848  0.00  0.00    +0.000 C 
ATOM     14  N   UNL     1       4.211   3.676  16.861  0.00  0.00    +0.000 NA
ENDBRANCH   1  10
BRANCH   4  15
ATOM     15  N   UNL     1       0.103   9.691  19.299  0.00  0.00    +0.000 N 
ATOM     16  C   UNL     1      -0.427  10.950  19.089  0.00  0.00    +0.000 C 
ATOM     17  O   UNL     1       0.231  11.981  19.154  0.00  0.00    +0.000 OA
ATOM     18  H   UNL     1      -0.431   8.894  18.986  0.00  0.00    +0.000 HD
BRANCH  16  19
ATOM     19  C   UNL     1      -1.873  11.002  18.730  0.00  0.00    +0.000 A 
ATOM     20  C   UNL     1      -2.374  10.001  17.890  0.00  0.00    +0.000 A 
ATOM     21  C   UNL     1      -3.722   9.989  17.513  0.00  0.00    +0.000 A 
ATOM     22  C   UNL     1      -4.574  11.012  17.970  0.00  0.00    +0.000 A 
ATOM     23  C   UNL     1      -5.952  11.305  17.780  0.00  0.00    +0.000 A 
ATOM     24  C   UNL     1      -6.230  12.472  18.455  0.00  0.00    +0.000 A 
ATOM     25  N   UNL     1      -5.075  12.891  19.061  0.00  0.00    +0.000 N 
ATOM     26  C   UNL     1      -4.049  12.014  18.787  0.00  0.00    +0.000 A 
ATOM     27  C   UNL     1      -2.705  12.038  19.187  0.00  0.00    +0.000 A 
ATOM     28  H   UNL     1      -4.985  13.727  19.621  0.00  0.00    +0.000 HD
ENDBRANCH  16  19
ENDBRANCH   4  15
TORSDOF 3
ENDMDL
MODEL 8
REMARK VINA RESULT:      -7.4      4.124     10.721
REMARK  Name = 
REMARK  5 active torsions:
REMARK  status: ('A' for Active; 'I' for Inactive)
REMARK    1  A    between atoms: C_1  and  C_2
REMARK    2  A    between atoms: C_4  and  N_5
REMARK    3  A    between atoms: C_8  and  N_9
REMARK    4  A    between atoms: C_10  and  C_12
REMARK    5  A    between atoms: C_24  and  C_25
REMARK                            x       y       z     vdW  Elec       q    Type
REMARK                         _______ _______ _______ _____ _____    ______ ____
ROOT
ATOM      1  N   UNL     1      -1.303  11.755  20.416  0.00  0.00    +0.000 N 
ATOM      2  C   UNL     1      -0.163  11.450  21.280  0.00  0.00    +0.000 C 
ATOM      3  C   UNL     1       1.105  11.597  20.438  0.00  0.00    +0.000 C 
ATOM      4  C   UNL     1       1.047  10.777  19.141  0.00  0.00    +0.000 C 
ATOM      5  C   UNL     1      -0.273  10.972  18.385  0.00  0.00    +0.000 C 
ATOM      6  C   UNL     1      -1.487  10.834  19.300  0.00  0.00    +0.000 C 
ENDROOT
BRANCH   1  10
ATOM      7  C   UNL     1      -4.027  12.534  24.404  0.00  0.00    +0.000 C 
ATOM      8  C   UNL     1      -3.758  12.681  22.938  0.00  0.00    +0.000 A 
ATOM      9  C   UNL     1      -2.562  12.259  22.391  0.00  0.00    +0.000 A 
ATOM     10  C   UNL     1      -2.423  12.320  21.015  0.00  0.00    +0.000 A 
ATOM     11  N   UNL     1      -3.415  12.796  20.244  0.00  0.00    +0.000 NA
ATOM     12  C   UNL     1      -4.541  13.203  20.853  0.00  0.00    +0.000 A 
ATOM     13  C   UNL     1      -5.670  13.668  19.990  0.00  0.00    +0.000 C 
ATOM     14  N   UNL     1      -4.757  13.167  22.182  0.00  0.00    +0.000 NA
ENDBRANCH   1  10
BRANCH   4  15
ATOM     15  N   UNL     1       1.296   9.358  19.388  0.00  0.00    +0.000 N 
ATOM     16  C   UNL     1       1.977   8.578  18.472  0.00  0.00    +0.000 C 
ATOM     17  O   UNL     1       2.387   9.000  17.398  0.00  0.00    +0.000 OA
ATOM     18  H   UNL     1       1.216   9.015  20.334  0.00  0.00    +0.000 HD
BRANCH  16  19
ATOM     19  C   UNL     1       2.233   7.166  18.874  0.00  0.00    +0.000 A 
ATOM     20  C   UNL     1       1.873   6.779  20.169  0.00  0.00    +0.000 A 
ATOM     21  C   UNL     1       2.086   5.469  20.612  0.00  0.00    +0.000 A 
ATOM     22  C   UNL     1       2.690   4.539  19.746  0.00  0.00    +0.000 A 
ATOM     23  C   UNL     1       3.052   3.169  19.868  0.00  0.00    +0.000 A 
ATOM     24  C   UNL     1       3.649   2.787  18.689  0.00  0.00    +0.000 A 
ATOM     25  N   UNL     1       3.649   3.868  17.848  0.00  0.00    +0.000 N 
ATOM     26  C   UNL     1       3.063   4.951  18.466  0.00  0.00    +0.000 A 
ATOM     27  C   UNL     1       2.848   6.255  17.998  0.00  0.00    +0.000 A 
ATOM     28  H   UNL     1       4.031   3.876  16.913  0.00  0.00    +0.000 HD
ENDBRANCH  16  19
ENDBRANCH   4  15
TORSDOF 3
ENDMDL
MODEL 9
REMARK VINA RESULT:      -7.3      4.911     10.567
REMARK  Name = 
REMARK  5 active torsions:
REMARK  status: ('A' for Active; 'I' for Inactive)
REMARK    1  A    between atoms: C_1  and  C_2
REMARK    2  A    between atoms: C_4  and  N_5
REMARK    3  A    between atoms: C_8  and  N_9
REMARK    4  A    between atoms: C_10  and  C_12
REMARK    5  A    between atoms: C_24  and  C_25
REMARK                            x       y       z     vdW  Elec       q    Type
REMARK                         _______ _______ _______ _____ _____    ______ ____
ROOT
ATOM      1  N   UNL     1      -1.054  11.425  20.408  0.00  0.00    +0.000 N 
ATOM      2  C   UNL     1      -0.064  10.918  21.356  0.00  0.00    +0.000 C 
ATOM      3  C   UNL     1       1.301  10.973  20.670  0.00  0.00    +0.000 C 
ATOM      4  C   UNL     1       1.302  10.268  19.306  0.00  0.00    +0.000 C 
ATOM      5  C   UNL     1       0.109  10.680  18.435  0.00  0.00    +0.000 C 
ATOM      6  C   UNL     1      -1.210  10.621  19.200  0.00  0.00    +0.000 C 
ENDROOT
BRANCH   1  10
ATOM      7  C   UNL     1      -3.701  12.821  24.277  0.00  0.00    +0.000 C 
ATOM      8  C   UNL     1      -3.463  12.733  22.801  0.00  0.00    +0.000 A 
ATOM      9  C   UNL     1      -2.276  12.233  22.302  0.00  0.00    +0.000 A 
ATOM     10  C   UNL     1      -2.166  12.074  20.932  0.00  0.00    +0.000 A 
ATOM     11  N   UNL     1      -3.175  12.419  20.117  0.00  0.00    +0.000 NA
ATOM     12  C   UNL     1      -4.292  12.915  20.677  0.00  0.00    +0.000 A 
ATOM     13  C   UNL     1      -5.441  13.234  19.774  0.00  0.00    +0.000 C 
ATOM     14  N   UNL     1      -4.480  13.090  21.998  0.00  0.00    +0.000 NA
ENDBRANCH   1  10
BRANCH   4  15
ATOM     15  N   UNL     1       1.360   8.814  19.450  0.00  0.00    +0.000 N 
ATOM     16  C   UNL     1       2.223   8.051  18.688  0.00  0.00    +0.000 C 
ATOM     17  O   UNL     1       2.967   8.520  17.834  0.00  0.00    +0.000 OA
ATOM     18  H   UNL     1       0.975   8.400  20.286  0.00  0.00    +0.000 HD
BRANCH  16  19
ATOM     19  C   UNL     1       2.242   6.590  18.981  0.00  0.00    +0.000 A 
ATOM     20  C   UNL     1       2.242   5.706  17.897  0.00  0.00    +0.000 A 
ATOM     21  C   UNL     1       2.258   4.321  18.100  0.00  0.00    +0.000 A 
ATOM     22  C   UNL     1       2.252   3.818  19.414  0.00  0.00    +0.000 A 
ATOM     23  C   UNL     1       2.256   2.508  19.969  0.00  0.00    +0.000 A 
ATOM     24  C   UNL     1       2.213   2.632  21.338  0.00  0.00    +0.000 A 
ATOM     25  N   UNL     1       2.198   3.969  21.638  0.00  0.00    +0.000 N 
ATOM     26  C   UNL     1       2.229   4.716  20.482  0.00  0.00    +0.000 A 
ATOM     27  C   UNL     1       2.225   6.107  20.301  0.00  0.00    +0.000 A 
ATOM     28  H   UNL     1       2.161   4.353  22.572  0.00  0.00    +0.000 HD
ENDBRANCH  16  19
ENDBRANCH   4  15
TORSDOF 3
ENDMDL
