MODEL 1
REMARK VINA RESULT:      -8.7      0.000      0.000
REMARK  Name = 
REMARK  2 active torsions:
REMARK  status: ('A' for Active; 'I' for Inactive)
REMARK    1  A    between atoms: N_3  and  C_4
REMARK    2  A    between atoms: N_14  and  C_15
REMARK                            x       y       z     vdW  Elec       q    Type
REMARK                         _______ _______ _______ _____ _____    ______ ____
ROOT
ATOM      1  O   UNL     1       7.616   9.098  17.624  0.00  0.00    +0.000 OA
ATOM      2  C   UNL     1       8.356   8.556  18.434  0.00  0.00    +0.000 C 
ATOM      3  N   UNL     1       8.308   7.207  18.740  0.00  0.00    +0.000 N 
ATOM      4  N   UNL     1       9.313   9.225  19.177  0.00  0.00    +0.000 N 
ATOM      5  H   UNL     1       8.815   6.900  19.556  0.00  0.00    +0.000 HD
ATOM      6  H   UNL     1       9.982   8.668  19.685  0.00  0.00    +0.000 HD
ENDROOT
BRANCH   3   7
ATOM      7  C   UNL     1       7.374   6.294  18.192  0.00  0.00    +0.000 A 
ATOM      8  C   UNL     1       7.162   6.097  16.831  0.00  0.00    +0.000 A 
ATOM      9  N   UNL     1       6.214   5.279  16.309  0.00  0.00    +0.000 NA
ATOM     10  C   UNL     1       5.415   4.624  17.160  0.00  0.00    +0.000 A 
ATOM     11  C   UNL     1       4.399   3.831  16.649  0.00  0.00    +0.000 A 
ATOM     12  C   UNL     1       3.521   3.137  17.485  0.00  0.00    +0.000 A 
ATOM     13  C   UNL     1       3.668   3.228  18.865  0.00  0.00    +0.000 A 
ATOM     14  C   UNL     1       4.687   4.013  19.404  0.00  0.00    +0.000 A 
ATOM     15  C   UNL     1       5.561   4.721  18.559  0.00  0.00    +0.000 A 
ATOM     16  C   UNL     1       6.575   5.554  19.064  0.00  0.00    +0.000 A 
ENDBRANCH   3   7
BRANCH   4  17
ATOM     17  C   UNL     1       9.515  10.627  19.178  0.00  0.00    +0.000 A 
ATOM     18  C   UNL     1       9.098  11.491  20.185  0.00  0.00    +0.000 A 
ATOM     19  N   UNL     1       9.278  12.835  20.171  0.00  0.00    +0.000 NA
ATOM     20  C   UNL     1       9.905  13.377  19.119  0.00  0.00    +0.000 A 
ATOM     21  C   UNL     1      10.073  14.752  19.074  0.00  0.00    +0.000 A 
ATOM     22  C   UNL     1      10.716  15.373  18.002  0.00  0.00    +0.000 A 
ATOM     23  C   UNL     1      11.212  14.605  16.957  0.00  0.00    +0.000 A 
ATOM     24  C   UNL     1      11.056  13.219  16.980  0.00  0.00    +0.000 A 
ATOM     25  C   UNL     1      10.395  12.594  18.053  0.00  0.00    +0.000 A 
ATOM     26  C   UNL     1      10.193  11.202  18.102  0.00  0.00    +0.000 A 
ENDBRANCH   4  17
TORSDOF 2
ENDMDL
MODEL 2
REMARK VINA RESULT:      -8.4      1.755      9.569
REMARK  Name = 
REMARK  2 active torsions:
REMARK  status: ('A' for Active; 'I' for Inactive)
REMARK    1  A    between atoms: N_3  and  C_4
REMARK    2  A    between atoms: N_14  and  C_15
REMARK                            x       y       z     vdW  Elec       q    Type
REMARK                         _______ _______ _______ _____ _____    ______ ____
ROOT
ATOM      1  O   UNL     1       8.017   7.328  18.643  0.00  0.00    +0.000 OA
ATOM      2  C   UNL     1       7.529   8.006  17.750  0.00  0.00    +0.000 C 
ATOM      3  N   UNL     1       7.905   9.310  17.478  0.00  0.00    +0.000 N 
ATOM      4  N   UNL     1       6.513   7.573  16.916  0.00  0.00    +0.000 N 
ATOM      5  H   UNL     1       7.312   9.844  16.862  0.00  0.00    +0.000 HD
ATOM      6  H   UNL     1       6.301   8.137  16.108  0.00  0.00    +0.000 HD
ENDROOT
BRANCH   3   7
ATOM      7  C   UNL     1       8.865  10.039  18.223  0.00  0.00    +0.000 A 
ATOM      8  C   UNL     1       8.984  10.008  19.609  0.00  0.00    +0.000 A 
ATOM      9  N   UNL     1       9.852  10.765  20.324  0.00  0.00    +0.000 NA
ATOM     10  C   UNL     1      10.644  11.612  19.655  0.00  0.00    +0.000 A 
ATOM     11  C   UNL     1      11.496  12.440  20.370  0.00  0.00    +0.000 A 
ATOM     12  C   UNL     1      12.333  13.357  19.730  0.00  0.00    +0.000 A 
ATOM     13  C   UNL     1      12.328  13.443  18.342  0.00  0.00    +0.000 A 
ATOM     14  C   UNL     1      11.486  12.615  17.600  0.00  0.00    +0.000 A 
ATOM     15  C   UNL     1      10.634  11.702  18.248  0.00  0.00    +0.000 A 
ATOM     16  C   UNL     1       9.742  10.879  17.537  0.00  0.00    +0.000 A 
ENDBRANCH   3   7
BRANCH   4  17
ATOM     17  C   UNL     1       5.835   6.334  17.028  0.00  0.00    +0.000 A 
ATOM     18  C   UNL     1       6.378   5.097  16.696  0.00  0.00    +0.000 A 
ATOM     19  N   UNL     1       5.718   3.916  16.788  0.00  0.00    +0.000 NA
ATOM     20  C   UNL     1       4.455   3.932  17.232  0.00  0.00    +0.000 A 
ATOM     21  C   UNL     1       3.755   2.738  17.305  0.00  0.00    +0.000 A 
ATOM     22  C   UNL     1       2.435   2.693  17.757  0.00  0.00    +0.000 A 
ATOM     23  C   UNL     1       1.802   3.864  18.155  0.00  0.00    +0.000 A 
ATOM     24  C   UNL     1       2.486   5.078  18.091  0.00  0.00    +0.000 A 
ATOM     25  C   UNL     1       3.812   5.126  17.622  0.00  0.00    +0.000 A 
ATOM     26  C   UNL     1       4.529   6.332  17.516  0.00  0.00    +0.000 A 
ENDBRANCH   4  17
TORSDOF 2
ENDMDL
MODEL 3
REMARK VINA RESULT:      -8.4      5.990      7.889
REMARK  Name = 
REMARK  2 active torsions:
REMARK  status: ('A' for Active; 'I' for Inactive)
REMARK    1  A    between atoms: N_3  and  C_4
REMARK    2  A    between atoms: N_14  and  C_15
REMARK                            x       y       z     vdW  Elec       q    Type
REMARK                         _______ _______ _______ _____ _____    ______ ____
ROOT
ATOM      1  O   UNL     1       3.973   7.800  17.301  0.00  0.00    +0.000 OA
ATOM      2  C   UNL     1       3.754   6.789  17.954  0.00  0.00    +0.000 C 
ATOM      3  N   UNL     1       4.338   5.562  17.694  0.00  0.00    +0.000 N 
ATOM      4  N   UNL     1       2.867   6.730  19.015  0.00  0.00    +0.000 N 
ATOM      5  H   UNL     1       3.946   4.756  18.156  0.00  0.00    +0.000 HD
ATOM      6  H   UNL     1       2.886   5.904  19.592  0.00  0.00    +0.000 HD
ENDROOT
BRANCH   3   7
ATOM      7  C   UNL     1       5.225   5.308  16.619  0.00  0.00    +0.000 A 
ATOM      8  C   UNL     1       6.514   5.821  16.516  0.00  0.00    +0.000 A 
ATOM      9  N   UNL     1       7.333   5.640  15.451  0.00  0.00    +0.000 NA
ATOM     10  C   UNL     1       6.867   4.929  14.416  0.00  0.00    +0.000 A 
ATOM     11  C   UNL     1       7.663   4.783  13.290  0.00  0.00    +0.000 A 
ATOM     12  C   UNL     1       7.226   4.069  12.173  0.00  0.00    +0.000 A 
ATOM     13  C   UNL     1       5.968   3.476  12.183  0.00  0.00    +0.000 A 
ATOM     14  C   UNL     1       5.151   3.601  13.306  0.00  0.00    +0.000 A 
ATOM     15  C   UNL     1       5.589   4.333  14.426  0.00  0.00    +0.000 A 
ATOM     16  C   UNL     1       4.780   4.516  15.561  0.00  0.00    +0.000 A 
ENDBRANCH   3   7
BRANCH   4  17
ATOM     17  C   UNL     1       2.028   7.789  19.439  0.00  0.00    +0.000 A 
ATOM     18  C   UNL     1       1.579   8.824  18.625  0.00  0.00    +0.000 A 
ATOM     19  N   UNL     1       0.790   9.846  19.042  0.00  0.00    +0.000 NA
ATOM     20  C   UNL     1       0.409   9.865  20.325  0.00  0.00    +0.000 A 
ATOM     21  C   UNL     1      -0.374  10.916  20.776  0.00  0.00    +0.000 A 
ATOM     22  C   UNL     1      -0.800  10.992  22.103  0.00  0.00    +0.000 A 
ATOM     23  C   UNL     1      -0.446   9.991  22.999  0.00  0.00    +0.000 A 
ATOM     24  C   UNL     1       0.340   8.922  22.569  0.00  0.00    +0.000 A 
ATOM     25  C   UNL     1       0.781   8.853  21.234  0.00  0.00    +0.000 A 
ATOM     26  C   UNL     1       1.598   7.807  20.766  0.00  0.00    +0.000 A 
ENDBRANCH   4  17
TORSDOF 2
ENDMDL
MODEL 4
REMARK VINA RESULT:      -8.3      0.999      1.830
REMARK  Name = 
REMARK  2 active torsions:
REMARK  status: ('A' for Active; 'I' for Inactive)
REMARK    1  A    between atoms: N_3  and  C_4
REMARK    2  A    between atoms: N_14  and  C_15
REMARK                            x       y       z     vdW  Elec       q    Type
REMARK                         _______ _______ _______ _____ _____    ______ ____
ROOT
ATOM      1  O   UNL     1       7.562   9.061  17.691  0.00  0.00    +0.000 OA
ATOM      2  C   UNL     1       8.323   8.498  18.467  0.00  0.00    +0.000 C 
ATOM      3  N   UNL     1       8.284   7.140  18.736  0.00  0.00    +0.000 N 
ATOM      4  N   UNL     1       9.298   9.147  19.203  0.00  0.00    +0.000 N 
ATOM      5  H   UNL     1       8.812   6.811  19.529  0.00  0.00    +0.000 HD
ATOM      6  H   UNL     1       9.980   8.576  19.678  0.00  0.00    +0.000 HD
ENDROOT
BRANCH   3   7
ATOM      7  C   UNL     1       7.336   6.242  18.187  0.00  0.00    +0.000 A 
ATOM      8  C   UNL     1       7.171   5.996  16.828  0.00  0.00    +0.000 A 
ATOM      9  N   UNL     1       6.213   5.194  16.301  0.00  0.00    +0.000 NA
ATOM     10  C   UNL     1       5.354   4.606  17.143  0.00  0.00    +0.000 A 
ATOM     11  C   UNL     1       4.328   3.832  16.623  0.00  0.00    +0.000 A 
ATOM     12  C   UNL     1       3.391   3.209  17.449  0.00  0.00    +0.000 A 
ATOM     13  C   UNL     1       3.485   3.352  18.829  0.00  0.00    +0.000 A 
ATOM     14  C   UNL     1       4.513   4.119  19.378  0.00  0.00    +0.000 A 
ATOM     15  C   UNL     1       5.448   4.757  18.542  0.00  0.00    +0.000 A 
ATOM     16  C   UNL     1       6.474   5.571  19.054  0.00  0.00    +0.000 A 
ENDBRANCH   3   7
BRANCH   4  17
ATOM     17  C   UNL     1       9.500  10.548  19.237  0.00  0.00    +0.000 A 
ATOM     18  C   UNL     1       9.755  11.343  18.124  0.00  0.00    +0.000 A 
ATOM     19  N   UNL     1       9.966  12.682  18.165  0.00  0.00    +0.000 NA
ATOM     20  C   UNL     1       9.924  13.291  19.357  0.00  0.00    +0.000 A 
ATOM     21  C   UNL     1      10.165  14.654  19.422  0.00  0.00    +0.000 A 
ATOM     22  C   UNL     1      10.137  15.343  20.636  0.00  0.00    +0.000 A 
ATOM     23  C   UNL     1       9.851  14.659  21.810  0.00  0.00    +0.000 A 
ATOM     24  C   UNL     1       9.604  13.287  21.771  0.00  0.00    +0.000 A 
ATOM     25  C   UNL     1       9.646  12.589  20.549  0.00  0.00    +0.000 A 
ATOM     26  C   UNL     1       9.430  11.201  20.468  0.00  0.00    +0.000 A 
ENDBRANCH   4  17
TORSDOF 2
ENDMDL
MODEL 5
REMARK VINA RESULT:      -8.2      0.513      9.443
REMARK  Name = 
REMARK  2 active torsions:
REMARK  status: ('A' for Active; 'I' for Inactive)
REMARK    1  A    between atoms: N_3  and  C_4
REMARK    2  A    between atoms: N_14  and  C_15
REMARK                            x       y       z     vdW  Elec       q    Type
REMARK                         _______ _______ _______ _____ _____    ______ ____
ROOT
ATOM      1  O   UNL     1       7.613   9.584  17.886  0.00  0.00    +0.000 OA
ATOM      2  C   UNL     1       8.422   8.976  18.574  0.00  0.00    +0.000 C 
ATOM      3  N   UNL     1       9.479   9.578  19.235  0.00  0.00    +0.000 N 
ATOM      4  N   UNL     1       8.408   7.604  18.756  0.00  0.00    +0.000 N 
ATOM      5  H   UNL     1      10.196   8.974  19.606  0.00  0.00    +0.000 HD
ATOM      6  H   UNL     1       9.005   7.223  19.472  0.00  0.00    +0.000 HD
ENDROOT
BRANCH   3   7
ATOM      7  C   UNL     1       9.786  10.959  19.164  0.00  0.00    +0.000 A 
ATOM      8  C   UNL     1       9.403  11.907  20.107  0.00  0.00    +0.000 A 
ATOM      9  N   UNL     1       9.631  13.239  19.998  0.00  0.00    +0.000 NA
ATOM     10  C   UNL     1      10.258  13.679  18.900  0.00  0.00    +0.000 A 
ATOM     11  C   UNL     1      10.447  15.043  18.738  0.00  0.00    +0.000 A 
ATOM     12  C   UNL     1      11.077  15.565  17.606  0.00  0.00    +0.000 A 
ATOM     13  C   UNL     1      11.541  14.704  16.617  0.00  0.00    +0.000 A 
ATOM     14  C   UNL     1      11.370  13.327  16.760  0.00  0.00    +0.000 A 
ATOM     15  C   UNL     1      10.722  12.805  17.895  0.00  0.00    +0.000 A 
ATOM     16  C   UNL     1      10.495  11.427  18.057  0.00  0.00    +0.000 A 
ENDBRANCH   3   7
BRANCH   4  17
ATOM     17  C   UNL     1       7.526   6.703  18.110  0.00  0.00    +0.000 A 
ATOM     18  C   UNL     1       7.362   6.599  16.733  0.00  0.00    +0.000 A 
ATOM     19  N   UNL     1       6.502   5.747  16.121  0.00  0.00    +0.000 NA
ATOM     20  C   UNL     1       5.757   4.942  16.890  0.00  0.00    +0.000 A 
ATOM     21  C   UNL     1       4.853   4.085  16.284  0.00  0.00    +0.000 A 
ATOM     22  C   UNL     1       4.048   3.225  17.033  0.00  0.00    +0.000 A 
ATOM     23  C   UNL     1       4.155   3.213  18.418  0.00  0.00    +0.000 A 
ATOM     24  C   UNL     1       5.059   4.066  19.051  0.00  0.00    +0.000 A 
ATOM     25  C   UNL     1       5.860   4.943  18.297  0.00  0.00    +0.000 A 
ATOM     26  C   UNL     1       6.765   5.838  18.897  0.00  0.00    +0.000 A 
ENDBRANCH   4  17
TORSDOF 2
ENDMDL
MODEL 6
REMARK VINA RESULT:      -8.2      8.042      9.294
REMARK  Name = 
REMARK  2 active torsions:
REMARK  status: ('A' for Active; 'I' for Inactive)
REMARK    1  A    between atoms: N_3  and  C_4
REMARK    2  A    between atoms: N_14  and  C_15
REMARK                            x       y       z     vdW  Elec       q    Type
REMARK                         _______ _______ _______ _____ _____    ______ ____
ROOT
ATOM      1  O   UNL     1       0.484   9.248  19.787  0.00  0.00    +0.000 OA
ATOM      2  C   UNL     1       0.985   9.049  20.885  0.00  0.00    +0.000 C 
ATOM      3  N   UNL     1       1.754   7.940  21.192  0.00  0.00    +0.000 N 
ATOM      4  N   UNL     1       0.821   9.886  21.975  0.00  0.00    +0.000 N 
ATOM      5  H   UNL     1       1.950   7.769  22.166  0.00  0.00    +0.000 HD
ATOM      6  H   UNL     1       1.409   9.727  22.777  0.00  0.00    +0.000 HD
ENDROOT
BRANCH   3   7
ATOM      7  C   UNL     1       2.022   6.877  20.294  0.00  0.00    +0.000 A 
ATOM      8  C   UNL     1       2.623   7.024  19.048  0.00  0.00    +0.000 A 
ATOM      9  N   UNL     1       2.808   6.017  18.159  0.00  0.00    +0.000 NA
ATOM     10  C   UNL     1       2.371   4.797  18.494  0.00  0.00    +0.000 A 
ATOM     11  C   UNL     1       2.494   3.765  17.575  0.00  0.00    +0.000 A 
ATOM     12  C   UNL     1       2.040   2.475  17.859  0.00  0.00    +0.000 A 
ATOM     13  C   UNL     1       1.460   2.205  19.093  0.00  0.00    +0.000 A 
ATOM     14  C   UNL     1       1.332   3.223  20.038  0.00  0.00    +0.000 A 
ATOM     15  C   UNL     1       1.778   4.525  19.744  0.00  0.00    +0.000 A 
ATOM     16  C   UNL     1       1.631   5.587  20.653  0.00  0.00    +0.000 A 
ENDBRANCH   3   7
BRANCH   4  17
ATOM     17  C   UNL     1      -0.012  11.032  22.007  0.00  0.00    +0.000 A 
ATOM     18  C   UNL     1       0.213  12.199  21.284  0.00  0.00    +0.000 A 
ATOM     19  N   UNL     1      -0.578  13.301  21.334  0.00  0.00    +0.000 NA
ATOM     20  C   UNL     1      -1.654  13.269  22.129  0.00  0.00    +0.000 A 
ATOM     21  C   UNL     1      -2.458  14.395  22.214  0.00  0.00    +0.000 A 
ATOM     22  C   UNL     1      -3.591  14.423  23.028  0.00  0.00    +0.000 A 
ATOM     23  C   UNL     1      -3.937  13.298  23.766  0.00  0.00    +0.000 A 
ATOM     24  C   UNL     1      -3.145  12.152  23.696  0.00  0.00    +0.000 A 
ATOM     25  C   UNL     1      -1.994  12.129  22.887  0.00  0.00    +0.000 A 
ATOM     26  C   UNL     1      -1.153  11.003  22.809  0.00  0.00    +0.000 A 
ENDBRANCH   4  17
TORSDOF 2
ENDMDL
MODEL 7
REMARK VINA RESULT:      -8.2      6.509      8.210
REMARK  Name = 
REMARK  2 active torsions:
REMARK  status: ('A' for Active; 'I' for Inactive)
REMARK    1  A    between atoms: N_3  and  C_4
REMARK    2  A    between atoms: N_14  and  C_15
REMARK                            x       y       z     vdW  Elec       q    Type
REMARK                         _______ _______ _______ _____ _____    ______ ____
ROOT
ATOM      1  O   UNL     1       2.111   8.162  18.994  0.00  0.00    +0.000 OA
ATOM      2  C   UNL     1       2.179   7.412  19.959  0.00  0.00    +0.000 C 
ATOM      3  N   UNL     1       2.785   6.168  19.926  0.00  0.00    +0.000 N 
ATOM      4  N   UNL     1       1.631   7.692  21.198  0.00  0.00    +0.000 N 
ATOM      5  H   UNL     1       2.615   5.551  20.705  0.00  0.00    +0.000 HD
ATOM      6  H   UNL     1       1.888   7.094  21.967  0.00  0.00    +0.000 HD
ENDROOT
BRANCH   3   7
ATOM      7  C   UNL     1       3.360   5.586  18.770  0.00  0.00    +0.000 A 
ATOM      8  C   UNL     1       2.850   4.476  18.103  0.00  0.00    +0.000 A 
ATOM      9  N   UNL     1       3.444   3.875  17.043  0.00  0.00    +0.000 NA
ATOM     10  C   UNL     1       4.609   4.373  16.612  0.00  0.00    +0.000 A 
ATOM     11  C   UNL     1       5.266   3.737  15.569  0.00  0.00    +0.000 A 
ATOM     12  C   UNL     1       6.493   4.197  15.087  0.00  0.00    +0.000 A 
ATOM     13  C   UNL     1       7.075   5.327  15.652  0.00  0.00    +0.000 A 
ATOM     14  C   UNL     1       6.431   5.989  16.697  0.00  0.00    +0.000 A 
ATOM     15  C   UNL     1       5.201   5.515  17.189  0.00  0.00    +0.000 A 
ATOM     16  C   UNL     1       4.541   6.131  18.267  0.00  0.00    +0.000 A 
ENDBRANCH   3   7
BRANCH   4  17
ATOM     17  C   UNL     1       0.844   8.829  21.506  0.00  0.00    +0.000 A 
ATOM     18  C   UNL     1       0.651   9.341  22.785  0.00  0.00    +0.000 A 
ATOM     19  N   UNL     1      -0.120  10.419  23.076  0.00  0.00    +0.000 NA
ATOM     20  C   UNL     1      -0.738  11.043  22.066  0.00  0.00    +0.000 A 
ATOM     21  C   UNL     1      -1.552  12.129  22.347  0.00  0.00    +0.000 A 
ATOM     22  C   UNL     1      -2.224  12.818  21.336  0.00  0.00    +0.000 A 
ATOM     23  C   UNL     1      -2.073  12.421  20.013  0.00  0.00    +0.000 A 
ATOM     24  C   UNL     1      -1.259  11.332  19.705  0.00  0.00    +0.000 A 
ATOM     25  C   UNL     1      -0.592  10.628  20.725  0.00  0.00    +0.000 A 
ATOM     26  C   UNL     1       0.217   9.507  20.460  0.00  0.00    +0.000 A 
ENDBRANCH   4  17
TORSDOF 2
ENDMDL
MODEL 8
REMARK VINA RESULT:      -8.1      5.887      8.676
REMARK  Name = 
REMARK  2 active torsions:
REMARK  status: ('A' for Active; 'I' for Inactive)
REMARK    1  A    between atoms: N_3  and  C_4
REMARK    2  A    between atoms: N_14  and  C_15
REMARK                            x       y       z     vdW  Elec       q    Type
REMARK                         _______ _______ _______ _____ _____    ______ ____
ROOT
ATOM      1  O   UNL     1       3.292   7.643  16.990  0.00  0.00    +0.000 OA
ATOM      2  C   UNL     1       3.496   6.835  17.885  0.00  0.00    +0.000 C 
ATOM      3  N   UNL     1       2.889   6.891  19.128  0.00  0.00    +0.000 N 
ATOM      4  N   UNL     1       4.386   5.779  17.788  0.00  0.00    +0.000 N 
ATOM      5  H   UNL     1       3.269   6.305  19.855  0.00  0.00    +0.000 HD
ATOM      6  H   UNL     1       4.355   5.076  18.509  0.00  0.00    +0.000 HD
ENDROOT
BRANCH   3   7
ATOM      7  C   UNL     1       1.993   7.910  19.537  0.00  0.00    +0.000 A 
ATOM      8  C   UNL     1       1.600   8.984  18.746  0.00  0.00    +0.000 A 
ATOM      9  N   UNL     1       0.804   9.999  19.165  0.00  0.00    +0.000 NA
ATOM     10  C   UNL     1       0.374   9.976  20.432  0.00  0.00    +0.000 A 
ATOM     11  C   UNL     1      -0.390  11.034  20.901  0.00  0.00    +0.000 A 
ATOM     12  C   UNL     1      -0.851  11.076  22.218  0.00  0.00    +0.000 A 
ATOM     13  C   UNL     1      -0.553  10.031  23.087  0.00  0.00    +0.000 A 
ATOM     14  C   UNL     1       0.207   8.951  22.638  0.00  0.00    +0.000 A 
ATOM     15  C   UNL     1       0.682   8.918  21.314  0.00  0.00    +0.000 A 
ATOM     16  C   UNL     1       1.485   7.868  20.835  0.00  0.00    +0.000 A 
ENDBRANCH   3   7
BRANCH   4  17
ATOM     17  C   UNL     1       5.246   5.533  16.689  0.00  0.00    +0.000 A 
ATOM     18  C   UNL     1       6.539   6.030  16.564  0.00  0.00    +0.000 A 
ATOM     19  N   UNL     1       7.351   5.807  15.501  0.00  0.00    +0.000 NA
ATOM     20  C   UNL     1       6.884   5.052  14.498  0.00  0.00    +0.000 A 
ATOM     21  C   UNL     1       7.689   4.836  13.391  0.00  0.00    +0.000 A 
ATOM     22  C   UNL     1       7.256   4.061  12.314  0.00  0.00    +0.000 A 
ATOM     23  C   UNL     1       5.995   3.479  12.346  0.00  0.00    +0.000 A 
ATOM     24  C   UNL     1       5.167   3.681  13.450  0.00  0.00    +0.000 A 
ATOM     25  C   UNL     1       5.598   4.474  14.530  0.00  0.00    +0.000 A 
ATOM     26  C   UNL     1       4.784   4.725  15.650  0.00  0.00    +0.000 A 
ENDBRANCH   4  17
TORSDOF 2
ENDMDL
MODEL 9
REMARK VINA RESULT:      -8.1      8.168     11.626
REMARK  Name = 
REMARK  2 active torsions:
REMARK  status: ('A' for Active; 'I' for Inactive)
REMARK    1  A    between atoms: N_3  and  C_4
REMARK    2  A    between atoms: N_14  and  C_15
REMARK                            x       y       z     vdW  Elec       q    Type
REMARK                         _______ _______ _______ _____ _____    ______ ____
ROOT
ATOM      1  O   UNL     1      -0.217   8.976  20.191  0.00  0.00    +0.000 OA
ATOM      2  C   UNL     1       0.660   9.024  21.042  0.00  0.00    +0.000 C 
ATOM      3  N   UNL     1       0.768  10.034  21.982  0.00  0.00    +0.000 N 
ATOM      4  N   UNL     1       1.680   8.096  21.156  0.00  0.00    +0.000 N 
ATOM      5  H   UNL     1       1.630  10.090  22.504  0.00  0.00    +0.000 HD
ATOM      6  H   UNL     1       2.248   8.127  21.988  0.00  0.00    +0.000 HD
ENDROOT
BRANCH   3   7
ATOM      7  C   UNL     1      -0.090  11.159  22.052  0.00  0.00    +0.000 A 
ATOM      8  C   UNL     1       0.155  12.384  21.439  0.00  0.00    +0.000 A 
ATOM      9  N   UNL     1      -0.629  13.482  21.570  0.00  0.00    +0.000 NA
ATOM     10  C   UNL     1      -1.709  13.390  22.355  0.00  0.00    +0.000 A 
ATOM     11  C   UNL     1      -2.492  14.518  22.554  0.00  0.00    +0.000 A 
ATOM     12  C   UNL     1      -3.620  14.490  23.377  0.00  0.00    +0.000 A 
ATOM     13  C   UNL     1      -3.984  13.305  24.008  0.00  0.00    +0.000 A 
ATOM     14  C   UNL     1      -3.218  12.155  23.818  0.00  0.00    +0.000 A 
ATOM     15  C   UNL     1      -2.074  12.189  22.999  0.00  0.00    +0.000 A 
ATOM     16  C   UNL     1      -1.254  11.062  22.815  0.00  0.00    +0.000 A 
ENDBRANCH   3   7
BRANCH   4  17
ATOM     17  C   UNL     1       1.909   7.019  20.264  0.00  0.00    +0.000 A 
ATOM     18  C   UNL     1       2.518   7.133  19.019  0.00  0.00    +0.000 A 
ATOM     19  N   UNL     1       2.719   6.102  18.161  0.00  0.00    +0.000 NA
ATOM     20  C   UNL     1       2.307   4.883  18.533  0.00  0.00    +0.000 A 
ATOM     21  C   UNL     1       2.477   3.823  17.658  0.00  0.00    +0.000 A 
ATOM     22  C   UNL     1       2.066   2.530  17.989  0.00  0.00    +0.000 A 
ATOM     23  C   UNL     1       1.481   2.289  19.225  0.00  0.00    +0.000 A 
ATOM     24  C   UNL     1       1.300   3.340  20.124  0.00  0.00    +0.000 A 
ATOM     25  C   UNL     1       1.701   4.645  19.785  0.00  0.00    +0.000 A 
ATOM     26  C   UNL     1       1.512   5.739  20.650  0.00  0.00    +0.000 A 
ENDBRANCH   4  17
TORSDOF 2
ENDMDL
