MODEL 1
REMARK VINA RESULT:      -8.5      0.000      0.000
REMARK  Name = 
REMARK  8 active torsions:
REMARK  status: ('A' for Active; 'I' for Inactive)
REMARK    1  A    between atoms: C_1  and  C_2
REMARK    2  A    between atoms: N_4  and  S_5
REMARK    3  A    between atoms: S_5  and  C_8
REMARK    4  A    between atoms: C_12  and  C_13
REMARK    5  A    between atoms: C_13  and  O_15
REMARK    6  A    between atoms: O_15  and  C_16
REMARK    7  A    between atoms: C_16  and  C_17
REMARK    8  A    between atoms: C_28  and  C_29
REMARK                            x       y       z     vdW  Elec       q    Type
REMARK                         _______ _______ _______ _____ _____    ______ ____
ROOT
ATOM      1  C   UNL     1       2.293   7.084  19.040  0.00  0.00    +0.000 A 
ATOM      2  C   UNL     1       2.250   7.799  17.838  0.00  0.00    +0.000 A 
ATOM      3  C   UNL     1       1.798   9.119  17.828  0.00  0.00    +0.000 A 
ATOM      4  C   UNL     1       1.346   9.711  19.004  0.00  0.00    +0.000 A 
ATOM      5  C   UNL     1       1.347   8.991  20.207  0.00  0.00    +0.000 A 
ATOM      6  C   UNL     1       1.830   7.672  20.231  0.00  0.00    +0.000 A 
ENDROOT
BRANCH   1   7
ATOM      7  S   UNL     1       2.741   5.350  19.009  0.00  0.00    +0.000 S 
ATOM      8  O   UNL     1       1.773   4.683  18.164  0.00  0.00    +0.000 OA
ATOM      9  O   UNL     1       2.933   4.938  20.387  0.00  0.00    +0.000 OA
BRANCH   7  13
ATOM     10  C   UNL     1       5.764   5.298  15.399  0.00  0.00    +0.000 C 
ATOM     11  C   UNL     1       5.786   4.259  16.519  0.00  0.00    +0.000 C 
ATOM     12  C   UNL     1       4.457   4.137  17.291  0.00  0.00    +0.000 C 
ATOM     13  N   UNL     1       4.258   5.271  18.237  0.00  0.00    +0.000 NA
ATOM     14  C   UNL     1       5.451   5.523  19.089  0.00  0.00    +0.000 C 
ATOM     15  C   UNL     1       6.728   5.632  18.236  0.00  0.00    +0.000 C 
ATOM     16  C   UNL     1       7.960   5.728  19.130  0.00  0.00    +0.000 C 
ATOM     17  O   UNL     1       6.896   4.471  17.408  0.00  0.00    +0.000 OA
ENDBRANCH   7  13
ENDBRANCH   1   7
BRANCH   5  18
ATOM     18  C   UNL     1       0.783   9.681  21.399  0.00  0.00    +0.000 C 
ATOM     19  O   UNL     1       1.177   9.486  22.537  0.00  0.00    +0.000 OA
BRANCH  18  20
ATOM     20  O   UNL     1      -0.232  10.496  21.032  0.00  0.00    +0.000 OA
BRANCH  20  21
ATOM     21  C   UNL     1      -0.213  11.773  21.689  0.00  0.00    +0.000 C 
BRANCH  21  22
ATOM     22  C   UNL     1      -1.607  12.123  22.130  0.00  0.00    +0.000 A 
ATOM     23  N   UNL     1      -2.087  12.035  23.357  0.00  0.00    +0.000 NA
ATOM     24  C   UNL     1      -3.431  12.389  23.367  0.00  0.00    +0.000 A 
ATOM     25  C   UNL     1      -4.288  12.405  24.489  0.00  0.00    +0.000 A 
ATOM     26  C   UNL     1      -5.640  12.726  24.326  0.00  0.00    +0.000 A 
ATOM     27  C   UNL     1      -6.146  13.046  23.071  0.00  0.00    +0.000 A 
ATOM     28  C   UNL     1      -5.311  13.072  21.952  0.00  0.00    +0.000 A 
ATOM     29  C   UNL     1      -3.959  12.739  22.124  0.00  0.00    +0.000 A 
ATOM     30  S   UNL     1      -2.716  12.675  20.940  0.00  0.00    +0.000 S 
ENDBRANCH  21  22
ENDBRANCH  20  21
ENDBRANCH  18  20
ENDBRANCH   5  18
TORSDOF 6
ENDMDL
MODEL 2
REMARK VINA RESULT:      -8.4      3.257      4.132
REMARK  Name = 
REMARK  8 active torsions:
REMARK  status: ('A' for Active; 'I' for Inactive)
REMARK    1  A    between atoms: C_1  and  C_2
REMARK    2  A    between atoms: N_4  and  S_5
REMARK    3  A    between atoms: S_5  and  C_8
REMARK    4  A    between atoms: C_12  and  C_13
REMARK    5  A    between atoms: C_13  and  O_15
REMARK    6  A    between atoms: O_15  and  C_16
REMARK    7  A    between atoms: C_16  and  C_17
REMARK    8  A    between atoms: C_28  and  C_29
REMARK                            x       y       z     vdW  Elec       q    Type
REMARK                         _______ _______ _______ _____ _____    ______ ____
ROOT
ATOM      1  C   UNL     1       3.066   4.295  19.321  0.00  0.00    +0.000 A 
ATOM      2  C   UNL     1       2.036   3.491  19.824  0.00  0.00    +0.000 A 
ATOM      3  C   UNL     1       0.931   4.079  20.439  0.00  0.00    +0.000 A 
ATOM      4  C   UNL     1       0.871   5.461  20.595  0.00  0.00    +0.000 A 
ATOM      5  C   UNL     1       1.915   6.273  20.131  0.00  0.00    +0.000 A 
ATOM      6  C   UNL     1       3.017   5.691  19.483  0.00  0.00    +0.000 A 
ENDROOT
BRANCH   1   7
ATOM      7  S   UNL     1       4.540   3.517  18.664  0.00  0.00    +0.000 S 
ATOM      8  O   UNL     1       4.097   2.512  17.721  0.00  0.00    +0.000 OA
ATOM      9  O   UNL     1       5.370   3.157  19.798  0.00  0.00    +0.000 OA
BRANCH   7  13
ATOM     10  C   UNL     1       5.252   6.648  15.218  0.00  0.00    +0.000 C 
ATOM     11  C   UNL     1       6.302   5.621  15.642  0.00  0.00    +0.000 C 
ATOM     12  C   UNL     1       5.725   4.401  16.388  0.00  0.00    +0.000 C 
ATOM     13  N   UNL     1       5.362   4.730  17.794  0.00  0.00    +0.000 NA
ATOM     14  C   UNL     1       6.452   5.443  18.516  0.00  0.00    +0.000 C 
ATOM     15  C   UNL     1       6.963   6.644  17.700  0.00  0.00    +0.000 C 
ATOM     16  C   UNL     1       8.182   7.266  18.373  0.00  0.00    +0.000 C 
ATOM     17  O   UNL     1       7.368   6.238  16.384  0.00  0.00    +0.000 OA
ENDBRANCH   7  13
ENDBRANCH   1   7
BRANCH   5  18
ATOM     18  C   UNL     1       1.798   7.732  20.401  0.00  0.00    +0.000 C 
ATOM     19  O   UNL     1       1.855   8.214  21.520  0.00  0.00    +0.000 OA
BRANCH  18  20
ATOM     20  O   UNL     1       1.581   8.406  19.248  0.00  0.00    +0.000 OA
BRANCH  20  21
ATOM     21  C   UNL     1       1.286   9.798  19.440  0.00  0.00    +0.000 C 
BRANCH  21  22
ATOM     22  C   UNL     1      -0.054  10.108  18.834  0.00  0.00    +0.000 A 
ATOM     23  N   UNL     1      -0.516   9.661  17.681  0.00  0.00    +0.000 NA
ATOM     24  C   UNL     1      -1.768  10.209  17.426  0.00  0.00    +0.000 A 
ATOM     25  C   UNL     1      -2.570   9.980  16.287  0.00  0.00    +0.000 A 
ATOM     26  C   UNL     1      -3.785  10.659  16.146  0.00  0.00    +0.000 A 
ATOM     27  C   UNL     1      -4.219  11.546  17.125  0.00  0.00    +0.000 A 
ATOM     28  C   UNL     1      -3.460  11.763  18.276  0.00  0.00    +0.000 A 
ATOM     29  C   UNL     1      -2.238  11.085  18.405  0.00  0.00    +0.000 A 
ATOM     30  S   UNL     1      -1.103  11.164  19.691  0.00  0.00    +0.000 S 
ENDBRANCH  21  22
ENDBRANCH  20  21
ENDBRANCH  18  20
ENDBRANCH   5  18
TORSDOF 6
ENDMDL
MODEL 3
REMARK VINA RESULT:      -8.3      3.273      9.919
REMARK  Name = 
REMARK  8 active torsions:
REMARK  status: ('A' for Active; 'I' for Inactive)
REMARK    1  A    between atoms: C_1  and  C_2
REMARK    2  A    between atoms: N_4  and  S_5
REMARK    3  A    between atoms: S_5  and  C_8
REMARK    4  A    between atoms: C_12  and  C_13
REMARK    5  A    between atoms: C_13  and  O_15
REMARK    6  A    between atoms: O_15  and  C_16
REMARK    7  A    between atoms: C_16  and  C_17
REMARK    8  A    between atoms: C_28  and  C_29
REMARK                            x       y       z     vdW  Elec       q    Type
REMARK                         _______ _______ _______ _____ _____    ______ ____
ROOT
ATOM      1  C   UNL     1       1.297   7.947  20.540  0.00  0.00    +0.000 A 
ATOM      2  C   UNL     1       2.004   8.291  19.383  0.00  0.00    +0.000 A 
ATOM      3  C   UNL     1       2.557   7.291  18.582  0.00  0.00    +0.000 A 
ATOM      4  C   UNL     1       2.446   5.955  18.956  0.00  0.00    +0.000 A 
ATOM      5  C   UNL     1       1.774   5.602  20.135  0.00  0.00    +0.000 A 
ATOM      6  C   UNL     1       1.188   6.600  20.930  0.00  0.00    +0.000 A 
ENDROOT
BRANCH   1   7
ATOM      7  S   UNL     1       0.718   9.247  21.629  0.00  0.00    +0.000 S 
ATOM      8  O   UNL     1       1.817   9.573  22.513  0.00  0.00    +0.000 OA
ATOM      9  O   UNL     1      -0.560   8.816  22.161  0.00  0.00    +0.000 OA
BRANCH   7  13
ATOM     10  C   UNL     1       1.687  13.300  19.433  0.00  0.00    +0.000 C 
ATOM     11  C   UNL     1       0.422  13.083  20.263  0.00  0.00    +0.000 C 
ATOM     12  C   UNL     1       0.528  11.933  21.284  0.00  0.00    +0.000 C 
ATOM     13  N   UNL     1       0.426  10.598  20.631  0.00  0.00    +0.000 NA
ATOM     14  C   UNL     1      -0.733  10.501  19.703  0.00  0.00    +0.000 C 
ATOM     15  C   UNL     1      -0.758  11.686  18.721  0.00  0.00    +0.000 C 
ATOM     16  C   UNL     1      -2.033  11.661  17.886  0.00  0.00    +0.000 C 
ATOM     17  O   UNL     1      -0.736  12.938  19.423  0.00  0.00    +0.000 OA
ENDBRANCH   7  13
ENDBRANCH   1   7
BRANCH   5  18
ATOM     18  C   UNL     1       1.764   4.157  20.491  0.00  0.00    +0.000 C 
ATOM     19  O   UNL     1       0.792   3.436  20.342  0.00  0.00    +0.000 OA
BRANCH  18  20
ATOM     20  O   UNL     1       2.952   3.799  21.029  0.00  0.00    +0.000 OA
BRANCH  20  21
ATOM     21  C   UNL     1       3.594   2.714  20.342  0.00  0.00    +0.000 C 
BRANCH  21  22
ATOM     22  C   UNL     1       4.369   3.256  19.174  0.00  0.00    +0.000 A 
ATOM     23  N   UNL     1       5.462   3.994  19.233  0.00  0.00    +0.000 NA
ATOM     24  C   UNL     1       5.859   4.356  17.951  0.00  0.00    +0.000 A 
ATOM     25  C   UNL     1       6.973   5.154  17.610  0.00  0.00    +0.000 A 
ATOM     26  C   UNL     1       7.207   5.485  16.271  0.00  0.00    +0.000 A 
ATOM     27  C   UNL     1       6.361   5.021  15.269  0.00  0.00    +0.000 A 
ATOM     28  C   UNL     1       5.274   4.202  15.578  0.00  0.00    +0.000 A 
ATOM     29  C   UNL     1       5.041   3.884  16.924  0.00  0.00    +0.000 A 
ATOM     30  S   UNL     1       3.788   2.918  17.593  0.00  0.00    +0.000 S 
ENDBRANCH  21  22
ENDBRANCH  20  21
ENDBRANCH  18  20
ENDBRANCH   5  18
TORSDOF 6
ENDMDL
MODEL 4
REMARK VINA RESULT:      -8.3      1.858      2.678
REMARK  Name = 
REMARK  8 active torsions:
REMARK  status: ('A' for Active; 'I' for Inactive)
REMARK    1  A    between atoms: C_1  and  C_2
REMARK    2  A    between atoms: N_4  and  S_5
REMARK    3  A    between atoms: S_5  and  C_8
REMARK    4  A    between atoms: C_12  and  C_13
REMARK    5  A    between atoms: C_13  and  O_15
REMARK    6  A    between atoms: O_15  and  C_16
REMARK    7  A    between atoms: C_16  and  C_17
REMARK    8  A    between atoms: C_28  and  C_29
REMARK                            x       y       z     vdW  Elec       q    Type
REMARK                         _______ _______ _______ _____ _____    ______ ____
ROOT
ATOM      1  C   UNL     1       2.735   4.960  18.699  0.00  0.00    +0.000 A 
ATOM      2  C   UNL     1       2.494   4.742  20.060  0.00  0.00    +0.000 A 
ATOM      3  C   UNL     1       2.005   5.780  20.854  0.00  0.00    +0.000 A 
ATOM      4  C   UNL     1       1.800   7.043  20.306  0.00  0.00    +0.000 A 
ATOM      5  C   UNL     1       2.076   7.282  18.953  0.00  0.00    +0.000 A 
ATOM      6  C   UNL     1       2.539   6.235  18.139  0.00  0.00    +0.000 A 
ENDROOT
BRANCH   1   7
ATOM      7  S   UNL     1       3.496   3.660  17.728  0.00  0.00    +0.000 S 
ATOM      8  O   UNL     1       2.555   3.312  16.685  0.00  0.00    +0.000 OA
ATOM      9  O   UNL     1       3.973   2.658  18.663  0.00  0.00    +0.000 OA
BRANCH   7  13
ATOM     10  C   UNL     1       6.308   4.987  14.191  0.00  0.00    +0.000 C 
ATOM     11  C   UNL     1       6.812   4.221  15.414  0.00  0.00    +0.000 C 
ATOM     12  C   UNL     1       5.711   3.453  16.173  0.00  0.00    +0.000 C 
ATOM     13  N   UNL     1       4.863   4.363  16.992  0.00  0.00    +0.000 NA
ATOM     14  C   UNL     1       5.665   5.294  17.832  0.00  0.00    +0.000 C 
ATOM     15  C   UNL     1       6.734   6.016  16.993  0.00  0.00    +0.000 C 
ATOM     16  C   UNL     1       7.650   6.841  17.891  0.00  0.00    +0.000 C 
ATOM     17  O   UNL     1       7.563   5.075  16.294  0.00  0.00    +0.000 OA
ENDBRANCH   7  13
ENDBRANCH   1   7
BRANCH   5  18
ATOM     18  C   UNL     1       1.892   8.677  18.469  0.00  0.00    +0.000 C 
ATOM     19  O   UNL     1       2.294   9.072  17.388  0.00  0.00    +0.000 OA
BRANCH  18  20
ATOM     20  O   UNL     1       1.267   9.421  19.411  0.00  0.00    +0.000 OA
BRANCH  20  21
ATOM     21  C   UNL     1       0.966  10.758  18.986  0.00  0.00    +0.000 C 
BRANCH  21  22
ATOM     22  C   UNL     1      -0.129  11.319  19.849  0.00  0.00    +0.000 A 
ATOM     23  N   UNL     1      -0.175  11.300  21.169  0.00  0.00    +0.000 NA
ATOM     24  C   UNL     1      -1.369  11.859  21.610  0.00  0.00    +0.000 A 
ATOM     25  C   UNL     1      -1.786  12.001  22.952  0.00  0.00    +0.000 A 
ATOM     26  C   UNL     1      -3.049  12.529  23.234  0.00  0.00    +0.000 A 
ATOM     27  C   UNL     1      -3.895  12.931  22.206  0.00  0.00    +0.000 A 
ATOM     28  C   UNL     1      -3.492  12.833  20.873  0.00  0.00    +0.000 A 
ATOM     29  C   UNL     1      -2.227  12.293  20.599  0.00  0.00    +0.000 A 
ATOM     30  S   UNL     1      -1.479  12.043  19.073  0.00  0.00    +0.000 S 
ENDBRANCH  21  22
ENDBRANCH  20  21
ENDBRANCH  18  20
ENDBRANCH   5  18
TORSDOF 6
ENDMDL
MODEL 5
REMARK VINA RESULT:      -8.3      3.044      4.156
REMARK  Name = 
REMARK  8 active torsions:
REMARK  status: ('A' for Active; 'I' for Inactive)
REMARK    1  A    between atoms: C_1  and  C_2
REMARK    2  A    between atoms: N_4  and  S_5
REMARK    3  A    between atoms: S_5  and  C_8
REMARK    4  A    between atoms: C_12  and  C_13
REMARK    5  A    between atoms: C_13  and  O_15
REMARK    6  A    between atoms: O_15  and  C_16
REMARK    7  A    between atoms: C_16  and  C_17
REMARK    8  A    between atoms: C_28  and  C_29
REMARK                            x       y       z     vdW  Elec       q    Type
REMARK                         _______ _______ _______ _____ _____    ______ ____
ROOT
ATOM      1  C   UNL     1       2.741   4.668  18.685  0.00  0.00    +0.000 A 
ATOM      2  C   UNL     1       2.498   4.449  20.045  0.00  0.00    +0.000 A 
ATOM      3  C   UNL     1       2.028   5.491  20.845  0.00  0.00    +0.000 A 
ATOM      4  C   UNL     1       1.842   6.760  20.302  0.00  0.00    +0.000 A 
ATOM      5  C   UNL     1       2.120   7.000  18.949  0.00  0.00    +0.000 A 
ATOM      6  C   UNL     1       2.564   5.949  18.130  0.00  0.00    +0.000 A 
ENDROOT
BRANCH   1   7
ATOM      7  S   UNL     1       3.478   3.360  17.707  0.00  0.00    +0.000 S 
ATOM      8  O   UNL     1       2.632   3.176  16.547  0.00  0.00    +0.000 OA
ATOM      9  O   UNL     1       3.749   2.258  18.611  0.00  0.00    +0.000 OA
BRANCH   7  13
ATOM     10  C   UNL     1       8.020   4.566  18.021  0.00  0.00    +0.000 C 
ATOM     11  C   UNL     1       6.946   5.499  17.462  0.00  0.00    +0.000 C 
ATOM     12  C   UNL     1       5.512   5.146  17.905  0.00  0.00    +0.000 C 
ATOM     13  N   UNL     1       4.980   3.963  17.173  0.00  0.00    +0.000 NA
ATOM     14  C   UNL     1       5.168   4.067  15.700  0.00  0.00    +0.000 C 
ATOM     15  C   UNL     1       6.625   4.420  15.352  0.00  0.00    +0.000 C 
ATOM     16  C   UNL     1       6.768   4.681  13.856  0.00  0.00    +0.000 C 
ATOM     17  O   UNL     1       7.044   5.613  16.032  0.00  0.00    +0.000 OA
ENDBRANCH   7  13
ENDBRANCH   1   7
BRANCH   5  18
ATOM     18  C   UNL     1       1.958   8.400  18.472  0.00  0.00    +0.000 C 
ATOM     19  O   UNL     1       2.365   8.793  17.391  0.00  0.00    +0.000 OA
BRANCH  18  20
ATOM     20  O   UNL     1       1.348   9.150  19.418  0.00  0.00    +0.000 OA
BRANCH  20  21
ATOM     21  C   UNL     1       1.122  10.511  19.020  0.00  0.00    +0.000 C 
BRANCH  21  22
ATOM     22  C   UNL     1      -0.327  10.686  18.658  0.00  0.00    +0.000 A 
ATOM     23  N   UNL     1      -0.938  10.183  17.601  0.00  0.00    +0.000 NA
ATOM     24  C   UNL     1      -2.261  10.608  17.571  0.00  0.00    +0.000 A 
ATOM     25  C   UNL     1      -3.224  10.291  16.588  0.00  0.00    +0.000 A 
ATOM     26  C   UNL     1      -4.504  10.850  16.664  0.00  0.00    +0.000 A 
ATOM     27  C   UNL     1      -4.843  11.705  17.707  0.00  0.00    +0.000 A 
ATOM     28  C   UNL     1      -3.919  12.006  18.709  0.00  0.00    +0.000 A 
ATOM     29  C   UNL     1      -2.635  11.448  18.620  0.00  0.00    +0.000 A 
ATOM     30  S   UNL     1      -1.306  11.649  19.689  0.00  0.00    +0.000 S 
ENDBRANCH  21  22
ENDBRANCH  20  21
ENDBRANCH  18  20
ENDBRANCH   5  18
TORSDOF 6
ENDMDL
MODEL 6
REMARK VINA RESULT:      -8.3      2.302      3.011
REMARK  Name = 
REMARK  8 active torsions:
REMARK  status: ('A' for Active; 'I' for Inactive)
REMARK    1  A    between atoms: C_1  and  C_2
REMARK    2  A    between atoms: N_4  and  S_5
REMARK    3  A    between atoms: S_5  and  C_8
REMARK    4  A    between atoms: C_12  and  C_13
REMARK    5  A    between atoms: C_13  and  O_15
REMARK    6  A    between atoms: O_15  and  C_16
REMARK    7  A    between atoms: C_16  and  C_17
REMARK    8  A    between atoms: C_28  and  C_29
REMARK                            x       y       z     vdW  Elec       q    Type
REMARK                         _______ _______ _______ _____ _____    ______ ____
ROOT
ATOM      1  C   UNL     1       2.578   5.231  18.814  0.00  0.00    +0.000 A 
ATOM      2  C   UNL     1       2.307   5.083  20.179  0.00  0.00    +0.000 A 
ATOM      3  C   UNL     1       1.833   6.169  20.915  0.00  0.00    +0.000 A 
ATOM      4  C   UNL     1       1.673   7.410  20.307  0.00  0.00    +0.000 A 
ATOM      5  C   UNL     1       1.979   7.579  18.949  0.00  0.00    +0.000 A 
ATOM      6  C   UNL     1       2.427   6.484  18.193  0.00  0.00    +0.000 A 
ENDROOT
BRANCH   1   7
ATOM      7  S   UNL     1       3.319   3.868  17.918  0.00  0.00    +0.000 S 
ATOM      8  O   UNL     1       2.439   3.568  16.808  0.00  0.00    +0.000 OA
ATOM      9  O   UNL     1       3.654   2.851  18.896  0.00  0.00    +0.000 OA
BRANCH   7  13
ATOM     10  C   UNL     1       6.387   5.155  14.584  0.00  0.00    +0.000 C 
ATOM     11  C   UNL     1       6.756   4.232  15.745  0.00  0.00    +0.000 C 
ATOM     12  C   UNL     1       5.548   3.536  16.404  0.00  0.00    +0.000 C 
ATOM     13  N   UNL     1       4.783   4.465  17.282  0.00  0.00    +0.000 NA
ATOM     14  C   UNL     1       5.658   5.218  18.222  0.00  0.00    +0.000 C 
ATOM     15  C   UNL     1       6.833   5.879  17.477  0.00  0.00    +0.000 C 
ATOM     16  C   UNL     1       7.806   6.508  18.468  0.00  0.00    +0.000 C 
ATOM     17  O   UNL     1       7.570   4.910  16.716  0.00  0.00    +0.000 OA
ENDBRANCH   7  13
ENDBRANCH   1   7
BRANCH   5  18
ATOM     18  C   UNL     1       1.842   8.956  18.399  0.00  0.00    +0.000 C 
ATOM     19  O   UNL     1       2.296   9.295  17.320  0.00  0.00    +0.000 OA
BRANCH  18  20
ATOM     20  O   UNL     1       1.195   9.750  19.282  0.00  0.00    +0.000 OA
BRANCH  20  21
ATOM     21  C   UNL     1       1.016  11.098  18.822  0.00  0.00    +0.000 C 
BRANCH  21  22
ATOM     22  C   UNL     1      -0.435  11.473  18.936  0.00  0.00    +0.000 A 
ATOM     23  N   UNL     1      -0.970  12.277  19.837  0.00  0.00    +0.000 NA
ATOM     24  C   UNL     1      -2.348  12.335  19.662  0.00  0.00    +0.000 A 
ATOM     25  C   UNL     1      -3.263  13.077  20.441  0.00  0.00    +0.000 A 
ATOM     26  C   UNL     1      -4.633  12.983  20.179  0.00  0.00    +0.000 A 
ATOM     27  C   UNL     1      -5.104  12.177  19.147  0.00  0.00    +0.000 A 
ATOM     28  C   UNL     1      -4.216  11.461  18.342  0.00  0.00    +0.000 A 
ATOM     29  C   UNL     1      -2.844  11.554  18.619  0.00  0.00    +0.000 A 
ATOM     30  S   UNL     1      -1.537  10.786  17.812  0.00  0.00    +0.000 S 
ENDBRANCH  21  22
ENDBRANCH  20  21
ENDBRANCH  18  20
ENDBRANCH   5  18
TORSDOF 6
ENDMDL
MODEL 7
REMARK VINA RESULT:      -8.2      3.732      4.457
REMARK  Name = 
REMARK  8 active torsions:
REMARK  status: ('A' for Active; 'I' for Inactive)
REMARK    1  A    between atoms: C_1  and  C_2
REMARK    2  A    between atoms: N_4  and  S_5
REMARK    3  A    between atoms: S_5  and  C_8
REMARK    4  A    between atoms: C_12  and  C_13
REMARK    5  A    between atoms: C_13  and  O_15
REMARK    6  A    between atoms: O_15  and  C_16
REMARK    7  A    between atoms: C_16  and  C_17
REMARK    8  A    between atoms: C_28  and  C_29
REMARK                            x       y       z     vdW  Elec       q    Type
REMARK                         _______ _______ _______ _____ _____    ______ ____
ROOT
ATOM      1  C   UNL     1       2.689   5.084  18.744  0.00  0.00    +0.000 A 
ATOM      2  C   UNL     1       2.411   4.912  20.105  0.00  0.00    +0.000 A 
ATOM      3  C   UNL     1       1.916   5.980  20.854  0.00  0.00    +0.000 A 
ATOM      4  C   UNL     1       1.742   7.228  20.262  0.00  0.00    +0.000 A 
ATOM      5  C   UNL     1       2.056   7.421  18.909  0.00  0.00    +0.000 A 
ATOM      6  C   UNL     1       2.525   6.344  18.140  0.00  0.00    +0.000 A 
ENDROOT
BRANCH   1   7
ATOM      7  S   UNL     1       3.457   3.744  17.834  0.00  0.00    +0.000 S 
ATOM      8  O   UNL     1       2.520   3.348  16.804  0.00  0.00    +0.000 OA
ATOM      9  O   UNL     1       3.934   2.787  18.813  0.00  0.00    +0.000 OA
BRANCH   7  13
ATOM     10  C   UNL     1       6.241   4.985  14.244  0.00  0.00    +0.000 C 
ATOM     11  C   UNL     1       6.750   4.228  15.471  0.00  0.00    +0.000 C 
ATOM     12  C   UNL     1       5.648   3.486  16.254  0.00  0.00    +0.000 C 
ATOM     13  N   UNL     1       4.824   4.419  17.071  0.00  0.00    +0.000 NA
ATOM     14  C   UNL     1       5.650   5.348  17.889  0.00  0.00    +0.000 C 
ATOM     15  C   UNL     1       6.718   6.044  17.027  0.00  0.00    +0.000 C 
ATOM     16  C   UNL     1       7.657   6.868  17.902  0.00  0.00    +0.000 C 
ATOM     17  O   UNL     1       7.525   5.083  16.329  0.00  0.00    +0.000 OA
ENDBRANCH   7  13
ENDBRANCH   1   7
BRANCH   5  18
ATOM     18  C   UNL     1       1.904   8.803  18.378  0.00  0.00    +0.000 C 
ATOM     19  O   UNL     1       2.268   9.139  17.264  0.00  0.00    +0.000 OA
BRANCH  18  20
ATOM     20  O   UNL     1       1.356   9.608  19.318  0.00  0.00    +0.000 OA
BRANCH  20  21
ATOM     21  C   UNL     1       0.152  10.262  18.887  0.00  0.00    +0.000 C 
BRANCH  21  22
ATOM     22  C   UNL     1       0.406  11.739  18.769  0.00  0.00    +0.000 A 
ATOM     23  N   UNL     1       1.580  12.323  18.613  0.00  0.00    +0.000 NA
ATOM     24  C   UNL     1       1.425  13.704  18.603  0.00  0.00    +0.000 A 
ATOM     25  C   UNL     1       2.451  14.665  18.471  0.00  0.00    +0.000 A 
ATOM     26  C   UNL     1       2.142  16.027  18.543  0.00  0.00    +0.000 A 
ATOM     27  C   UNL     1       0.828  16.446  18.726  0.00  0.00    +0.000 A 
ATOM     28  C   UNL     1      -0.209  15.516  18.824  0.00  0.00    +0.000 A 
ATOM     29  C   UNL     1       0.113  14.152  18.761  0.00  0.00    +0.000 A 
ATOM     30  S   UNL     1      -0.941  12.800  18.863  0.00  0.00    +0.000 S 
ENDBRANCH  21  22
ENDBRANCH  20  21
ENDBRANCH  18  20
ENDBRANCH   5  18
TORSDOF 6
ENDMDL
MODEL 8
REMARK VINA RESULT:      -8.1      2.854      4.423
REMARK  Name = 
REMARK  8 active torsions:
REMARK  status: ('A' for Active; 'I' for Inactive)
REMARK    1  A    between atoms: C_1  and  C_2
REMARK    2  A    between atoms: N_4  and  S_5
REMARK    3  A    between atoms: S_5  and  C_8
REMARK    4  A    between atoms: C_12  and  C_13
REMARK    5  A    between atoms: C_13  and  O_15
REMARK    6  A    between atoms: O_15  and  C_16
REMARK    7  A    between atoms: C_16  and  C_17
REMARK    8  A    between atoms: C_28  and  C_29
REMARK                            x       y       z     vdW  Elec       q    Type
REMARK                         _______ _______ _______ _____ _____    ______ ____
ROOT
ATOM      1  C   UNL     1       2.274   7.117  19.061  0.00  0.00    +0.000 A 
ATOM      2  C   UNL     1       2.285   7.787  17.832  0.00  0.00    +0.000 A 
ATOM      3  C   UNL     1       1.806   9.095  17.748  0.00  0.00    +0.000 A 
ATOM      4  C   UNL     1       1.276   9.719  18.873  0.00  0.00    +0.000 A 
ATOM      5  C   UNL     1       1.223   9.043  20.101  0.00  0.00    +0.000 A 
ATOM      6  C   UNL     1       1.732   7.737  20.201  0.00  0.00    +0.000 A 
ENDROOT
BRANCH   1   7
ATOM      7  S   UNL     1       2.760   5.394  19.120  0.00  0.00    +0.000 S 
ATOM      8  O   UNL     1       1.784   4.657  18.344  0.00  0.00    +0.000 OA
ATOM      9  O   UNL     1       2.999   5.069  20.513  0.00  0.00    +0.000 OA
BRANCH   7  13
ATOM     10  C   UNL     1       5.697   5.365  15.439  0.00  0.00    +0.000 C 
ATOM     11  C   UNL     1       5.720   4.297  16.533  0.00  0.00    +0.000 C 
ATOM     12  C   UNL     1       4.407   4.186  17.333  0.00  0.00    +0.000 C 
ATOM     13  N   UNL     1       4.256   5.300  18.310  0.00  0.00    +0.000 NA
ATOM     14  C   UNL     1       5.475   5.504  19.140  0.00  0.00    +0.000 C 
ATOM     15  C   UNL     1       6.734   5.605  18.260  0.00  0.00    +0.000 C 
ATOM     16  C   UNL     1       7.988   5.652  19.126  0.00  0.00    +0.000 C 
ATOM     17  O   UNL     1       6.855   4.462  17.400  0.00  0.00    +0.000 OA
ENDBRANCH   7  13
ENDBRANCH   1   7
BRANCH   5  18
ATOM     18  C   UNL     1       0.577   9.761  21.233  0.00  0.00    +0.000 C 
ATOM     19  O   UNL     1      -0.375   9.319  21.853  0.00  0.00    +0.000 OA
BRANCH  18  20
ATOM     20  O   UNL     1       1.170  10.962  21.424  0.00  0.00    +0.000 OA
BRANCH  20  21
ATOM     21  C   UNL     1       0.276  12.077  21.284  0.00  0.00    +0.000 C 
BRANCH  21  22
ATOM     22  C   UNL     1       0.897  13.099  20.373  0.00  0.00    +0.000 A 
ATOM     23  N   UNL     1       2.041  12.980  19.724  0.00  0.00    +0.000 NA
ATOM     24  C   UNL     1       2.316  14.152  19.030  0.00  0.00    +0.000 A 
ATOM     25  C   UNL     1       3.453  14.410  18.234  0.00  0.00    +0.000 A 
ATOM     26  C   UNL     1       3.618  15.668  17.646  0.00  0.00    +0.000 A 
ATOM     27  C   UNL     1       2.665  16.665  17.825  0.00  0.00    +0.000 A 
ATOM     28  C   UNL     1       1.515  16.423  18.579  0.00  0.00    +0.000 A 
ATOM     29  C   UNL     1       1.362  15.161  19.173  0.00  0.00    +0.000 A 
ATOM     30  S   UNL     1       0.072  14.590  20.152  0.00  0.00    +0.000 S 
ENDBRANCH  21  22
ENDBRANCH  20  21
ENDBRANCH  18  20
ENDBRANCH   5  18
TORSDOF 6
ENDMDL
MODEL 9
REMARK VINA RESULT:      -8.1      3.612      4.686
REMARK  Name = 
REMARK  8 active torsions:
REMARK  status: ('A' for Active; 'I' for Inactive)
REMARK    1  A    between atoms: C_1  and  C_2
REMARK    2  A    between atoms: N_4  and  S_5
REMARK    3  A    between atoms: S_5  and  C_8
REMARK    4  A    between atoms: C_12  and  C_13
REMARK    5  A    between atoms: C_13  and  O_15
REMARK    6  A    between atoms: O_15  and  C_16
REMARK    7  A    between atoms: C_16  and  C_17
REMARK    8  A    between atoms: C_28  and  C_29
REMARK                            x       y       z     vdW  Elec       q    Type
REMARK                         _______ _______ _______ _____ _____    ______ ____
ROOT
ATOM      1  C   UNL     1       3.037   4.079  19.298  0.00  0.00    +0.000 A 
ATOM      2  C   UNL     1       2.037   3.305  19.898  0.00  0.00    +0.000 A 
ATOM      3  C   UNL     1       0.968   3.929  20.542  0.00  0.00    +0.000 A 
ATOM      4  C   UNL     1       0.917   5.317  20.629  0.00  0.00    +0.000 A 
ATOM      5  C   UNL     1       1.935   6.100  20.066  0.00  0.00    +0.000 A 
ATOM      6  C   UNL     1       2.998   5.482  19.388  0.00  0.00    +0.000 A 
ENDROOT
BRANCH   1   7
ATOM      7  S   UNL     1       4.472   3.263  18.602  0.00  0.00    +0.000 S 
ATOM      8  O   UNL     1       3.980   2.302  17.637  0.00  0.00    +0.000 OA
ATOM      9  O   UNL     1       5.301   2.840  19.715  0.00  0.00    +0.000 OA
BRANCH   7  13
ATOM     10  C   UNL     1       5.351   6.328  15.135  0.00  0.00    +0.000 C 
ATOM     11  C   UNL     1       6.385   5.322  15.641  0.00  0.00    +0.000 C 
ATOM     12  C   UNL     1       5.778   4.112  16.379  0.00  0.00    +0.000 C 
ATOM     13  N   UNL     1       5.331   4.467  17.754  0.00  0.00    +0.000 NA
ATOM     14  C   UNL     1       6.370   5.207  18.522  0.00  0.00    +0.000 C 
ATOM     15  C   UNL     1       6.916   6.396  17.712  0.00  0.00    +0.000 C 
ATOM     16  C   UNL     1       8.087   7.046  18.440  0.00  0.00    +0.000 C 
ATOM     17  O   UNL     1       7.400   5.967  16.430  0.00  0.00    +0.000 OA
ENDBRANCH   7  13
ENDBRANCH   1   7
BRANCH   5  18
ATOM     18  C   UNL     1       1.833   7.572  20.265  0.00  0.00    +0.000 C 
ATOM     19  O   UNL     1       1.249   8.083  21.205  0.00  0.00    +0.000 OA
BRANCH  18  20
ATOM     20  O   UNL     1       2.436   8.225  19.245  0.00  0.00    +0.000 OA
BRANCH  20  21
ATOM     21  C   UNL     1       1.520   8.735  18.265  0.00  0.00    +0.000 C 
BRANCH  21  22
ATOM     22  C   UNL     1       1.409  10.226  18.418  0.00  0.00    +0.000 A 
ATOM     23  N   UNL     1       2.306  11.122  18.047  0.00  0.00    +0.000 NA
ATOM     24  C   UNL     1       1.880  12.396  18.404  0.00  0.00    +0.000 A 
ATOM     25  C   UNL     1       2.575  13.606  18.187  0.00  0.00    +0.000 A 
ATOM     26  C   UNL     1       2.042  14.808  18.663  0.00  0.00    +0.000 A 
ATOM     27  C   UNL     1       0.824  14.826  19.335  0.00  0.00    +0.000 A 
ATOM     28  C   UNL     1       0.102  13.647  19.531  0.00  0.00    +0.000 A 
ATOM     29  C   UNL     1       0.649  12.445  19.059  0.00  0.00    +0.000 A 
ATOM     30  S   UNL     1      -0.002  10.859  19.166  0.00  0.00    +0.000 S 
ENDBRANCH  21  22
ENDBRANCH  20  21
ENDBRANCH  18  20
ENDBRANCH   5  18
TORSDOF 6
ENDMDL
