MODEL 1
REMARK VINA RESULT:      -9.9      0.000      0.000
REMARK  Name = 
REMARK  5 active torsions:
REMARK  status: ('A' for Active; 'I' for Inactive)
REMARK    1  A    between atoms: C_1  and  C_2
REMARK    2  A    between atoms: C_14  and  C_15
REMARK    3  A    between atoms: C_15  and  C_16
REMARK    4  A    between atoms: C_16  and  C_17
REMARK    5  A    between atoms: N_19  and  C_20
REMARK                            x       y       z     vdW  Elec       q    Type
REMARK                         _______ _______ _______ _____ _____    ______ ____
ROOT
ATOM      1  C   UNL     1       8.233   7.453  18.702  0.00  0.00    +0.000 C 
ENDROOT
BRANCH   1   2
ATOM      2  C   UNL     1       8.338   8.917  18.341  0.00  0.00    +0.000 C 
ATOM      3  O   UNL     1       7.607   9.422  17.494  0.00  0.00    +0.000 OA
ATOM      4  N   UNL     1       9.327   9.567  19.063  0.00  0.00    +0.000 N 
ATOM      5  H   UNL     1       9.978   8.988  19.583  0.00  0.00    +0.000 HD
BRANCH   4   6
ATOM      6  C   UNL     1       9.585  10.955  19.045  0.00  0.00    +0.000 A 
ATOM      7  C   UNL     1       9.414  11.763  20.199  0.00  0.00    +0.000 A 
ATOM      8  C   UNL     1       9.682  13.132  20.189  0.00  0.00    +0.000 A 
ATOM      9  C   UNL     1      10.123  13.659  19.007  0.00  0.00    +0.000 A 
ATOM     10  N   UNL     1      10.470  14.967  18.700  0.00  0.00    +0.000 N 
ATOM     11  C   UNL     1      10.858  15.024  17.356  0.00  0.00    +0.000 A 
ATOM     12  O   UNL     1      11.224  16.014  16.747  0.00  0.00    +0.000 OA
ATOM     13  N   UNL     1      10.747  13.722  16.848  0.00  0.00    +0.000 N 
ATOM     14  C   UNL     1      10.300  12.882  17.864  0.00  0.00    +0.000 A 
ATOM     15  C   UNL     1      10.049  11.527  17.847  0.00  0.00    +0.000 A 
ATOM     16  H   UNL     1      10.454  15.760  19.320  0.00  0.00    +0.000 HD
ATOM     17  H   UNL     1      10.961  13.478  15.896  0.00  0.00    +0.000 HD
ENDBRANCH   4   6
ENDBRANCH   1   2
BRANCH   1  18
ATOM     18  C   UNL     1       7.642   6.635  17.545  0.00  0.00    +0.000 C 
BRANCH  18  32
ATOM     19  C   UNL     1       5.091   6.591  15.763  0.00  0.00    +0.000 C 
ATOM     20  C   UNL     1       5.195   5.966  17.130  0.00  0.00    +0.000 A 
ATOM     21  N   UNL     1       4.035   5.336  17.521  0.00  0.00    +0.000 NA
ATOM     22  C   UNL     1       3.956   4.824  18.710  0.00  0.00    +0.000 A 
ATOM     23  N   UNL     1       2.832   4.170  19.165  0.00  0.00    +0.000 N 
ATOM     24  C   UNL     1       2.372   4.298  20.559  0.00  0.00    +0.000 C 
ATOM     25  C   UNL     1       1.535   3.077  20.949  0.00  0.00    +0.000 C 
ATOM     26  O   UNL     1       0.426   2.896  20.058  0.00  0.00    +0.000 OA
ATOM     27  C   UNL     1       0.899   2.712  18.714  0.00  0.00    +0.000 C 
ATOM     28  C   UNL     1       1.711   3.924  18.233  0.00  0.00    +0.000 C 
ATOM     29  N   UNL     1       5.018   4.881  19.559  0.00  0.00    +0.000 N 
ATOM     30  C   UNL     1       6.236   5.343  19.202  0.00  0.00    +0.000 A 
ATOM     31  O   UNL     1       7.203   5.217  19.945  0.00  0.00    +0.000 OA
ATOM     32  C   UNL     1       6.312   6.018  17.885  0.00  0.00    +0.000 A 
ATOM     33  H   UNL     1       4.997   4.387  20.433  0.00  0.00    +0.000 HD
ENDBRANCH  18  32
ENDBRANCH   1  18
TORSDOF 4
ENDMDL
MODEL 2
REMARK VINA RESULT:      -9.5      1.063      1.192
REMARK  Name = 
REMARK  5 active torsions:
REMARK  status: ('A' for Active; 'I' for Inactive)
REMARK    1  A    between atoms: C_1  and  C_2
REMARK    2  A    between atoms: C_14  and  C_15
REMARK    3  A    between atoms: C_15  and  C_16
REMARK    4  A    between atoms: C_16  and  C_17
REMARK    5  A    between atoms: N_19  and  C_20
REMARK                            x       y       z     vdW  Elec       q    Type
REMARK                         _______ _______ _______ _____ _____    ______ ____
ROOT
ATOM      1  C   UNL     1       7.434   8.387  17.362  0.00  0.00    +0.000 C 
ENDROOT
BRANCH   1   2
ATOM      2  C   UNL     1       8.396   9.170  18.226  0.00  0.00    +0.000 C 
ATOM      3  O   UNL     1       8.961   8.654  19.186  0.00  0.00    +0.000 OA
ATOM      4  N   UNL     1       8.536  10.482  17.801  0.00  0.00    +0.000 N 
ATOM      5  H   UNL     1       7.867  10.823  17.118  0.00  0.00    +0.000 HD
BRANCH   4   6
ATOM      6  C   UNL     1       9.450  11.425  18.320  0.00  0.00    +0.000 A 
ATOM      7  C   UNL     1      10.491  11.047  19.208  0.00  0.00    +0.000 A 
ATOM      8  C   UNL     1      11.405  11.973  19.711  0.00  0.00    +0.000 A 
ATOM      9  C   UNL     1      11.250  13.268  19.301  0.00  0.00    +0.000 A 
ATOM     10  N   UNL     1      11.999  14.391  19.626  0.00  0.00    +0.000 N 
ATOM     11  C   UNL     1      11.454  15.499  18.966  0.00  0.00    +0.000 A 
ATOM     12  O   UNL     1      11.855  16.647  19.022  0.00  0.00    +0.000 OA
ATOM     13  N   UNL     1      10.359  15.029  18.225  0.00  0.00    +0.000 N 
ATOM     14  C   UNL     1      10.236  13.658  18.428  0.00  0.00    +0.000 A 
ATOM     15  C   UNL     1       9.324  12.764  17.911  0.00  0.00    +0.000 A 
ATOM     16  H   UNL     1      12.802  14.429  20.230  0.00  0.00    +0.000 HD
ATOM     17  H   UNL     1       9.779  15.624  17.657  0.00  0.00    +0.000 HD
ENDBRANCH   4   6
ENDBRANCH   1   2
BRANCH   1  18
ATOM     18  C   UNL     1       7.614   6.875  17.557  0.00  0.00    +0.000 C 
BRANCH  18  32
ATOM     19  C   UNL     1       5.132   6.587  15.702  0.00  0.00    +0.000 C 
ATOM     20  C   UNL     1       5.239   6.011  17.090  0.00  0.00    +0.000 A 
ATOM     21  N   UNL     1       4.118   5.305  17.465  0.00  0.00    +0.000 NA
ATOM     22  C   UNL     1       4.040   4.821  18.666  0.00  0.00    +0.000 A 
ATOM     23  N   UNL     1       2.955   4.096  19.107  0.00  0.00    +0.000 N 
ATOM     24  C   UNL     1       2.443   4.227  20.483  0.00  0.00    +0.000 C 
ATOM     25  C   UNL     1       1.689   2.957  20.884  0.00  0.00    +0.000 C 
ATOM     26  O   UNL     1       0.625   2.668  19.967  0.00  0.00    +0.000 OA
ATOM     27  C   UNL     1       1.153   2.484  18.643  0.00  0.00    +0.000 C 
ATOM     28  C   UNL     1       1.886   3.740  18.151  0.00  0.00    +0.000 C 
ATOM     29  N   UNL     1       5.068   4.982  19.544  0.00  0.00    +0.000 N 
ATOM     30  C   UNL     1       6.259   5.526  19.209  0.00  0.00    +0.000 A 
ATOM     31  O   UNL     1       7.209   5.494  19.984  0.00  0.00    +0.000 OA
ATOM     32  C   UNL     1       6.325   6.168  17.876  0.00  0.00    +0.000 A 
ATOM     33  H   UNL     1       5.057   4.513  20.432  0.00  0.00    +0.000 HD
ENDBRANCH  18  32
ENDBRANCH   1  18
TORSDOF 4
ENDMDL
MODEL 3
REMARK VINA RESULT:      -9.2      1.242      1.776
REMARK  Name = 
REMARK  5 active torsions:
REMARK  status: ('A' for Active; 'I' for Inactive)
REMARK    1  A    between atoms: C_1  and  C_2
REMARK    2  A    between atoms: C_14  and  C_15
REMARK    3  A    between atoms: C_15  and  C_16
REMARK    4  A    between atoms: C_16  and  C_17
REMARK    5  A    between atoms: N_19  and  C_20
REMARK                            x       y       z     vdW  Elec       q    Type
REMARK                         _______ _______ _______ _____ _____    ______ ____
ROOT
ATOM      1  C   UNL     1       8.215   7.386  18.663  0.00  0.00    +0.000 C 
ENDROOT
BRANCH   1   2
ATOM      2  C   UNL     1       8.383   8.866  18.405  0.00  0.00    +0.000 C 
ATOM      3  O   UNL     1       7.687   9.456  17.583  0.00  0.00    +0.000 OA
ATOM      4  N   UNL     1       9.381   9.426  19.187  0.00  0.00    +0.000 N 
ATOM      5  H   UNL     1      10.000   8.788  19.676  0.00  0.00    +0.000 HD
BRANCH   4   6
ATOM      6  C   UNL     1       9.691  10.801  19.268  0.00  0.00    +0.000 A 
ATOM      7  C   UNL     1      10.071  11.551  18.125  0.00  0.00    +0.000 A 
ATOM      8  C   UNL     1      10.363  12.913  18.198  0.00  0.00    +0.000 A 
ATOM      9  C   UNL     1      10.263  13.493  19.433  0.00  0.00    +0.000 A 
ATOM     10  N   UNL     1      10.484  14.811  19.808  0.00  0.00    +0.000 N 
ATOM     11  C   UNL     1      10.261  14.928  21.185  0.00  0.00    +0.000 A 
ATOM     12  O   UNL     1      10.364  15.941  21.854  0.00  0.00    +0.000 OA
ATOM     13  N   UNL     1       9.892  13.655  21.644  0.00  0.00    +0.000 N 
ATOM     14  C   UNL     1       9.889  12.774  20.566  0.00  0.00    +0.000 A 
ATOM     15  C   UNL     1       9.588  11.430  20.522  0.00  0.00    +0.000 A 
ATOM     16  H   UNL     1      10.759  15.573  19.211  0.00  0.00    +0.000 HD
ATOM     17  H   UNL     1       9.679  13.453  22.606  0.00  0.00    +0.000 HD
ENDBRANCH   4   6
ENDBRANCH   1   2
BRANCH   1  18
ATOM     18  C   UNL     1       7.556   6.683  17.468  0.00  0.00    +0.000 C 
BRANCH  18  32
ATOM     19  C   UNL     1       4.998   6.583  15.698  0.00  0.00    +0.000 C 
ATOM     20  C   UNL     1       5.120   5.969  17.068  0.00  0.00    +0.000 A 
ATOM     21  N   UNL     1       3.973   5.321  17.468  0.00  0.00    +0.000 NA
ATOM     22  C   UNL     1       3.908   4.815  18.661  0.00  0.00    +0.000 A 
ATOM     23  N   UNL     1       2.798   4.144  19.125  0.00  0.00    +0.000 N 
ATOM     24  C   UNL     1       2.342   4.272  20.521  0.00  0.00    +0.000 C 
ATOM     25  C   UNL     1       1.529   3.040  20.922  0.00  0.00    +0.000 C 
ATOM     26  O   UNL     1       0.419   2.834  20.038  0.00  0.00    +0.000 OA
ATOM     27  C   UNL     1       0.889   2.650  18.693  0.00  0.00    +0.000 C 
ATOM     28  C   UNL     1       1.677   3.873  18.201  0.00  0.00    +0.000 C 
ATOM     29  N   UNL     1       4.973   4.896  19.505  0.00  0.00    +0.000 N 
ATOM     30  C   UNL     1       6.182   5.377  19.139  0.00  0.00    +0.000 A 
ATOM     31  O   UNL     1       7.154   5.273  19.878  0.00  0.00    +0.000 OA
ATOM     32  C   UNL     1       6.240   6.045  17.817  0.00  0.00    +0.000 A 
ATOM     33  H   UNL     1       4.965   4.407  20.382  0.00  0.00    +0.000 HD
ENDBRANCH  18  32
ENDBRANCH   1  18
TORSDOF 4
ENDMDL
MODEL 4
REMARK VINA RESULT:      -9.2      1.642      2.345
REMARK  Name = 
REMARK  5 active torsions:
REMARK  status: ('A' for Active; 'I' for Inactive)
REMARK    1  A    between atoms: C_1  and  C_2
REMARK    2  A    between atoms: C_14  and  C_15
REMARK    3  A    between atoms: C_15  and  C_16
REMARK    4  A    between atoms: C_16  and  C_17
REMARK    5  A    between atoms: N_19  and  C_20
REMARK                            x       y       z     vdW  Elec       q    Type
REMARK                         _______ _______ _______ _____ _____    ______ ____
ROOT
ATOM      1  C   UNL     1       7.425   8.841  17.714  0.00  0.00    +0.000 C 
ENDROOT
BRANCH   1   2
ATOM      2  C   UNL     1       8.533   9.679  18.311  0.00  0.00    +0.000 C 
ATOM      3  O   UNL     1       9.283   9.229  19.173  0.00  0.00    +0.000 OA
ATOM      4  N   UNL     1       8.573  10.956  17.775  0.00  0.00    +0.000 N 
ATOM      5  H   UNL     1       7.778  11.251  17.218  0.00  0.00    +0.000 HD
BRANCH   4   6
ATOM      6  C   UNL     1       9.563  11.929  18.034  0.00  0.00    +0.000 A 
ATOM      7  C   UNL     1      10.644  11.680  18.920  0.00  0.00    +0.000 A 
ATOM      8  C   UNL     1      11.632  12.632  19.166  0.00  0.00    +0.000 A 
ATOM      9  C   UNL     1      11.510  13.824  18.505  0.00  0.00    +0.000 A 
ATOM     10  N   UNL     1      12.331  14.942  18.546  0.00  0.00    +0.000 N 
ATOM     11  C   UNL     1      11.794  15.922  17.703  0.00  0.00    +0.000 A 
ATOM     12  O   UNL     1      12.252  17.032  17.496  0.00  0.00    +0.000 OA
ATOM     13  N   UNL     1      10.631  15.378  17.140  0.00  0.00    +0.000 N 
ATOM     14  C   UNL     1      10.459  14.086  17.630  0.00  0.00    +0.000 A 
ATOM     15  C   UNL     1       9.472  13.162  17.363  0.00  0.00    +0.000 A 
ATOM     16  H   UNL     1      13.175  15.055  19.083  0.00  0.00    +0.000 HD
ATOM     17  H   UNL     1      10.042  15.877  16.495  0.00  0.00    +0.000 HD
ENDBRANCH   4   6
ENDBRANCH   1   2
BRANCH   1  18
ATOM     18  C   UNL     1       7.906   7.415  17.413  0.00  0.00    +0.000 C 
BRANCH  18  32
ATOM     19  C   UNL     1       8.065   5.624  19.954  0.00  0.00    +0.000 C 
ATOM     20  C   UNL     1       6.950   5.583  18.942  0.00  0.00    +0.000 A 
ATOM     21  N   UNL     1       5.968   4.673  19.262  0.00  0.00    +0.000 NA
ATOM     22  C   UNL     1       4.986   4.474  18.437  0.00  0.00    +0.000 A 
ATOM     23  N   UNL     1       3.964   3.588  18.697  0.00  0.00    +0.000 N 
ATOM     24  C   UNL     1       3.365   2.762  17.633  0.00  0.00    +0.000 C 
ATOM     25  C   UNL     1       1.942   2.356  18.024  0.00  0.00    +0.000 C 
ATOM     26  O   UNL     1       1.920   1.667  19.281  0.00  0.00    +0.000 OA
ATOM     27  C   UNL     1       2.451   2.512  20.314  0.00  0.00    +0.000 C 
ATOM     28  C   UNL     1       3.900   2.923  20.015  0.00  0.00    +0.000 C 
ATOM     29  N   UNL     1       4.908   5.178  17.275  0.00  0.00    +0.000 N 
ATOM     30  C   UNL     1       5.742   6.192  16.957  0.00  0.00    +0.000 A 
ATOM     31  O   UNL     1       5.528   6.905  15.983  0.00  0.00    +0.000 OA
ATOM     32  C   UNL     1       6.920   6.362  17.840  0.00  0.00    +0.000 A 
ATOM     33  H   UNL     1       4.093   5.108  16.692  0.00  0.00    +0.000 HD
ENDBRANCH  18  32
ENDBRANCH   1  18
TORSDOF 4
ENDMDL
MODEL 5
REMARK VINA RESULT:      -9.1      7.066      9.919
REMARK  Name = 
REMARK  5 active torsions:
REMARK  status: ('A' for Active; 'I' for Inactive)
REMARK    1  A    between atoms: C_1  and  C_2
REMARK    2  A    between atoms: C_14  and  C_15
REMARK    3  A    between atoms: C_15  and  C_16
REMARK    4  A    between atoms: C_16  and  C_17
REMARK    5  A    between atoms: N_19  and  C_20
REMARK                            x       y       z     vdW  Elec       q    Type
REMARK                         _______ _______ _______ _____ _____    ______ ____
ROOT
ATOM      1  C   UNL     1       1.110   7.953  21.236  0.00  0.00    +0.000 C 
ENDROOT
BRANCH   1   2
ATOM      2  C   UNL     1       1.900   7.513  20.025  0.00  0.00    +0.000 C 
ATOM      3  O   UNL     1       2.158   8.291  19.111  0.00  0.00    +0.000 OA
ATOM      4  N   UNL     1       2.268   6.178  20.094  0.00  0.00    +0.000 N 
ATOM      5  H   UNL     1       1.824   5.610  20.808  0.00  0.00    +0.000 HD
BRANCH   4   6
ATOM      6  C   UNL     1       3.113   5.507  19.183  0.00  0.00    +0.000 A 
ATOM      7  C   UNL     1       2.611   4.550  18.262  0.00  0.00    +0.000 A 
ATOM      8  C   UNL     1       3.440   3.897  17.350  0.00  0.00    +0.000 A 
ATOM      9  C   UNL     1       4.766   4.227  17.386  0.00  0.00    +0.000 A 
ATOM     10  N   UNL     1       5.813   3.753  16.608  0.00  0.00    +0.000 N 
ATOM     11  C   UNL     1       6.995   4.383  17.016  0.00  0.00    +0.000 A 
ATOM     12  O   UNL     1       8.108   4.208  16.554  0.00  0.00    +0.000 OA
ATOM     13  N   UNL     1       6.648   5.258  18.055  0.00  0.00    +0.000 N 
ATOM     14  C   UNL     1       5.277   5.166  18.279  0.00  0.00    +0.000 A 
ATOM     15  C   UNL     1       4.481   5.831  19.186  0.00  0.00    +0.000 A 
ATOM     16  H   UNL     1       5.760   3.071  15.869  0.00  0.00    +0.000 HD
ATOM     17  H   UNL     1       7.314   5.837  18.538  0.00  0.00    +0.000 HD
ENDBRANCH   4   6
ENDBRANCH   1   2
BRANCH   1  18
ATOM     18  C   UNL     1       1.437   9.403  21.618  0.00  0.00    +0.000 C 
BRANCH  18  32
ATOM     19  C   UNL     1       0.192  11.128  19.347  0.00  0.00    +0.000 C 
ATOM     20  C   UNL     1      -0.361  11.018  20.744  0.00  0.00    +0.000 A 
ATOM     21  N   UNL     1      -1.512  11.752  20.924  0.00  0.00    +0.000 NA
ATOM     22  C   UNL     1      -2.053  11.814  22.102  0.00  0.00    +0.000 A 
ATOM     23  N   UNL     1      -3.209  12.519  22.354  0.00  0.00    +0.000 N 
ATOM     24  C   UNL     1      -3.403  13.267  23.609  0.00  0.00    +0.000 C 
ATOM     25  C   UNL     1      -4.897  13.431  23.895  0.00  0.00    +0.000 C 
ATOM     26  O   UNL     1      -5.572  14.075  22.806  0.00  0.00    +0.000 OA
ATOM     27  C   UNL     1      -5.422  13.298  21.606  0.00  0.00    +0.000 C 
ATOM     28  C   UNL     1      -3.943  13.131  21.227  0.00  0.00    +0.000 C 
ATOM     29  N   UNL     1      -1.506  11.138  23.149  0.00  0.00    +0.000 N 
ATOM     30  C   UNL     1      -0.471  10.277  23.025  0.00  0.00    +0.000 A 
ATOM     31  O   UNL     1      -0.126   9.565  23.962  0.00  0.00    +0.000 OA
ATOM     32  C   UNL     1       0.214  10.273  21.711  0.00  0.00    +0.000 A 
ATOM     33  H   UNL     1      -1.985  11.092  24.031  0.00  0.00    +0.000 HD
ENDBRANCH  18  32
ENDBRANCH   1  18
TORSDOF 4
ENDMDL
MODEL 6
REMARK VINA RESULT:      -9.0      6.758      9.623
REMARK  Name = 
REMARK  5 active torsions:
REMARK  status: ('A' for Active; 'I' for Inactive)
REMARK    1  A    between atoms: C_1  and  C_2
REMARK    2  A    between atoms: C_14  and  C_15
REMARK    3  A    between atoms: C_15  and  C_16
REMARK    4  A    between atoms: C_16  and  C_17
REMARK    5  A    between atoms: N_19  and  C_20
REMARK                            x       y       z     vdW  Elec       q    Type
REMARK                         _______ _______ _______ _____ _____    ______ ____
ROOT
ATOM      1  C   UNL     1       0.857   7.249  21.054  0.00  0.00    +0.000 C 
ENDROOT
BRANCH   1   2
ATOM      2  C   UNL     1       1.866   6.307  20.437  0.00  0.00    +0.000 C 
ATOM      3  O   UNL     1       2.238   5.294  21.021  0.00  0.00    +0.000 OA
ATOM      4  N   UNL     1       2.286   6.734  19.187  0.00  0.00    +0.000 N 
ATOM      5  H   UNL     1       2.044   7.681  18.914  0.00  0.00    +0.000 HD
BRANCH   4   6
ATOM      6  C   UNL     1       3.123   6.013  18.307  0.00  0.00    +0.000 A 
ATOM      7  C   UNL     1       2.856   4.664  17.957  0.00  0.00    +0.000 A 
ATOM      8  C   UNL     1       3.672   3.954  17.077  0.00  0.00    +0.000 A 
ATOM      9  C   UNL     1       4.746   4.626  16.562  0.00  0.00    +0.000 A 
ATOM     10  N   UNL     1       5.717   4.188  15.672  0.00  0.00    +0.000 N 
ATOM     11  C   UNL     1       6.619   5.233  15.443  0.00  0.00    +0.000 A 
ATOM     12  O   UNL     1       7.597   5.202  14.718  0.00  0.00    +0.000 OA
ATOM     13  N   UNL     1       6.177   6.323  16.207  0.00  0.00    +0.000 N 
ATOM     14  C   UNL     1       5.023   5.951  16.891  0.00  0.00    +0.000 A 
ATOM     15  C   UNL     1       4.231   6.679  17.753  0.00  0.00    +0.000 A 
ATOM     16  H   UNL     1       5.783   3.277  15.248  0.00  0.00    +0.000 HD
ATOM     17  H   UNL     1       6.650   7.210  16.232  0.00  0.00    +0.000 HD
ENDBRANCH   4   6
ENDBRANCH   1   2
BRANCH   1  18
ATOM     18  C   UNL     1       1.467   8.635  21.301  0.00  0.00    +0.000 C 
BRANCH  18  32
ATOM     19  C   UNL     1       0.201  10.049  18.835  0.00  0.00    +0.000 C 
ATOM     20  C   UNL     1      -0.142  10.353  20.270  0.00  0.00    +0.000 A 
ATOM     21  N   UNL     1      -1.110  11.324  20.395  0.00  0.00    +0.000 NA
ATOM     22  C   UNL     1      -1.446  11.743  21.576  0.00  0.00    +0.000 A 
ATOM     23  N   UNL     1      -2.413  12.703  21.778  0.00  0.00    +0.000 N 
ATOM     24  C   UNL     1      -2.283  13.725  22.831  0.00  0.00    +0.000 C 
ATOM     25  C   UNL     1      -3.666  14.243  23.233  0.00  0.00    +0.000 C 
ATOM     26  O   UNL     1      -4.380  14.761  22.102  0.00  0.00    +0.000 OA
ATOM     27  C   UNL     1      -4.549  13.732  21.114  0.00  0.00    +0.000 C 
ATOM     28  C   UNL     1      -3.197  13.194  20.625  0.00  0.00    +0.000 C 
ATOM     29  N   UNL     1      -0.869  11.211  22.688  0.00  0.00    +0.000 N 
ATOM     30  C   UNL     1      -0.027  10.154  22.660  0.00  0.00    +0.000 A 
ATOM     31  O   UNL     1       0.332   9.604  23.696  0.00  0.00    +0.000 OA
ATOM     32  C   UNL     1       0.439   9.732  21.318  0.00  0.00    +0.000 A 
ATOM     33  H   UNL     1      -1.208  11.452  23.602  0.00  0.00    +0.000 HD
ENDBRANCH  18  32
ENDBRANCH   1  18
TORSDOF 4
ENDMDL
MODEL 7
REMARK VINA RESULT:      -8.9      8.728     11.238
REMARK  Name = 
REMARK  5 active torsions:
REMARK  status: ('A' for Active; 'I' for Inactive)
REMARK    1  A    between atoms: C_1  and  C_2
REMARK    2  A    between atoms: C_14  and  C_15
REMARK    3  A    between atoms: C_15  and  C_16
REMARK    4  A    between atoms: C_16  and  C_17
REMARK    5  A    between atoms: N_19  and  C_20
REMARK                            x       y       z     vdW  Elec       q    Type
REMARK                         _______ _______ _______ _____ _____    ______ ____
ROOT
ATOM      1  C   UNL     1      -0.771  10.591  22.847  0.00  0.00    +0.000 C 
ENDROOT
BRANCH   1   2
ATOM      2  C   UNL     1       0.423   9.976  22.154  0.00  0.00    +0.000 C 
ATOM      3  O   UNL     1       1.486   9.801  22.743  0.00  0.00    +0.000 OA
ATOM      4  N   UNL     1       0.157   9.660  20.831  0.00  0.00    +0.000 N 
ATOM      5  H   UNL     1      -0.693  10.035  20.425  0.00  0.00    +0.000 HD
BRANCH   4   6
ATOM      6  C   UNL     1       1.023   8.963  19.959  0.00  0.00    +0.000 A 
ATOM      7  C   UNL     1       1.319   9.442  18.657  0.00  0.00    +0.000 A 
ATOM      8  C   UNL     1       2.185   8.765  17.799  0.00  0.00    +0.000 A 
ATOM      9  C   UNL     1       2.741   7.612  18.279  0.00  0.00    +0.000 A 
ATOM     10  N   UNL     1       3.630   6.740  17.665  0.00  0.00    +0.000 N 
ATOM     11  C   UNL     1       3.912   5.692  18.549  0.00  0.00    +0.000 A 
ATOM     12  O   UNL     1       4.652   4.747  18.343  0.00  0.00    +0.000 OA
ATOM     13  N   UNL     1       3.182   5.944  19.720  0.00  0.00    +0.000 N 
ATOM     14  C   UNL     1       2.466   7.126  19.555  0.00  0.00    +0.000 A 
ATOM     15  C   UNL     1       1.620   7.778  20.426  0.00  0.00    +0.000 A 
ATOM     16  H   UNL     1       4.021   6.824  16.741  0.00  0.00    +0.000 HD
ATOM     17  H   UNL     1       3.198   5.339  20.524  0.00  0.00    +0.000 HD
ENDBRANCH   4   6
ENDBRANCH   1   2
BRANCH   1  18
ATOM     18  C   UNL     1      -0.945  12.065  22.454  0.00  0.00    +0.000 C 
BRANCH  18  32
ATOM     19  C   UNL     1      -3.727  12.625  23.732  0.00  0.00    +0.000 C 
ATOM     20  C   UNL     1      -3.453  12.592  22.251  0.00  0.00    +0.000 A 
ATOM     21  N   UNL     1      -4.570  12.862  21.493  0.00  0.00    +0.000 NA
ATOM     22  C   UNL     1      -4.497  12.788  20.200  0.00  0.00    +0.000 A 
ATOM     23  N   UNL     1      -5.570  13.055  19.378  0.00  0.00    +0.000 N 
ATOM     24  C   UNL     1      -5.817  12.281  18.149  0.00  0.00    +0.000 C 
ATOM     25  C   UNL     1      -6.640  13.112  17.162  0.00  0.00    +0.000 C 
ATOM     26  O   UNL     1      -7.874  13.550  17.747  0.00  0.00    +0.000 OA
ATOM     27  C   UNL     1      -7.608  14.354  18.908  0.00  0.00    +0.000 C 
ATOM     28  C   UNL     1      -6.824  13.569  19.969  0.00  0.00    +0.000 C 
ATOM     29  N   UNL     1      -3.322  12.473  19.590  0.00  0.00    +0.000 N 
ATOM     30  C   UNL     1      -2.149  12.344  20.249  0.00  0.00    +0.000 A 
ATOM     31  O   UNL     1      -1.091  12.229  19.641  0.00  0.00    +0.000 OA
ATOM     32  C   UNL     1      -2.236  12.328  21.729  0.00  0.00    +0.000 A 
ATOM     33  H   UNL     1      -3.237  12.527  18.591  0.00  0.00    +0.000 HD
ENDBRANCH  18  32
ENDBRANCH   1  18
TORSDOF 4
ENDMDL
MODEL 8
REMARK VINA RESULT:      -8.7      7.581      9.905
REMARK  Name = 
REMARK  5 active torsions:
REMARK  status: ('A' for Active; 'I' for Inactive)
REMARK    1  A    between atoms: C_1  and  C_2
REMARK    2  A    between atoms: C_14  and  C_15
REMARK    3  A    between atoms: C_15  and  C_16
REMARK    4  A    between atoms: C_16  and  C_17
REMARK    5  A    between atoms: N_19  and  C_20
REMARK                            x       y       z     vdW  Elec       q    Type
REMARK                         _______ _______ _______ _____ _____    ______ ____
ROOT
ATOM      1  C   UNL     1       1.174   9.300  19.603  0.00  0.00    +0.000 C 
ENDROOT
BRANCH   1   2
ATOM      2  C   UNL     1       1.866   8.554  18.484  0.00  0.00    +0.000 C 
ATOM      3  O   UNL     1       1.921   9.012  17.346  0.00  0.00    +0.000 OA
ATOM      4  N   UNL     1       2.397   7.346  18.908  0.00  0.00    +0.000 N 
ATOM      5  H   UNL     1       2.111   7.007  19.821  0.00  0.00    +0.000 HD
BRANCH   4   6
ATOM      6  C   UNL     1       3.206   6.484  18.136  0.00  0.00    +0.000 A 
ATOM      7  C   UNL     1       2.891   5.110  17.971  0.00  0.00    +0.000 A 
ATOM      8  C   UNL     1       3.679   4.259  17.196  0.00  0.00    +0.000 A 
ATOM      9  C   UNL     1       4.774   4.817  16.598  0.00  0.00    +0.000 A 
ATOM     10  N   UNL     1       5.726   4.229  15.777  0.00  0.00    +0.000 N 
ATOM     11  C   UNL     1       6.664   5.201  15.410  0.00  0.00    +0.000 A 
ATOM     12  O   UNL     1       7.638   5.038  14.697  0.00  0.00    +0.000 OA
ATOM     13  N   UNL     1       6.263   6.399  16.019  0.00  0.00    +0.000 N 
ATOM     14  C   UNL     1       5.099   6.164  16.745  0.00  0.00    +0.000 A 
ATOM     15  C   UNL     1       4.335   7.029  17.498  0.00  0.00    +0.000 A 
ATOM     16  H   UNL     1       5.759   3.268  15.480  0.00  0.00    +0.000 HD
ATOM     17  H   UNL     1       6.767   7.264  15.924  0.00  0.00    +0.000 HD
ENDBRANCH   4   6
ENDBRANCH   1   2
BRANCH   1  18
ATOM     18  C   UNL     1       1.043  10.794  19.278  0.00  0.00    +0.000 C 
BRANCH  18  32
ATOM     19  C   UNL     1      -1.510  10.476  17.525  0.00  0.00    +0.000 C 
ATOM     20  C   UNL     1      -1.457  11.204  18.843  0.00  0.00    +0.000 A 
ATOM     21  N   UNL     1      -2.679  11.710  19.225  0.00  0.00    +0.000 NA
ATOM     22  C   UNL     1      -2.765  12.430  20.301  0.00  0.00    +0.000 A 
ATOM     23  N   UNL     1      -3.955  12.959  20.749  0.00  0.00    +0.000 N 
ATOM     24  C   UNL     1      -4.027  14.298  21.362  0.00  0.00    +0.000 C 
ATOM     25  C   UNL     1      -5.251  14.391  22.275  0.00  0.00    +0.000 C 
ATOM     26  O   UNL     1      -6.459  14.089  21.565  0.00  0.00    +0.000 OA
ATOM     27  C   UNL     1      -6.393  12.758  21.028  0.00  0.00    +0.000 C 
ATOM     28  C   UNL     1      -5.212  12.600  20.059  0.00  0.00    +0.000 C 
ATOM     29  N   UNL     1      -1.664  12.663  21.066  0.00  0.00    +0.000 N 
ATOM     30  C   UNL     1      -0.464  12.080  20.846  0.00  0.00    +0.000 A 
ATOM     31  O   UNL     1       0.448  12.187  21.659  0.00  0.00    +0.000 OA
ATOM     32  C   UNL     1      -0.329  11.338  19.571  0.00  0.00    +0.000 A 
ATOM     33  H   UNL     1      -1.750  13.122  21.955  0.00  0.00    +0.000 HD
ENDBRANCH  18  32
ENDBRANCH   1  18
TORSDOF 4
ENDMDL
MODEL 9
REMARK VINA RESULT:      -8.7      1.276      2.000
REMARK  Name = 
REMARK  5 active torsions:
REMARK  status: ('A' for Active; 'I' for Inactive)
REMARK    1  A    between atoms: C_1  and  C_2
REMARK    2  A    between atoms: C_14  and  C_15
REMARK    3  A    between atoms: C_15  and  C_16
REMARK    4  A    between atoms: C_16  and  C_17
REMARK    5  A    between atoms: N_19  and  C_20
REMARK                            x       y       z     vdW  Elec       q    Type
REMARK                         _______ _______ _______ _____ _____    ______ ____
ROOT
ATOM      1  C   UNL     1       8.322   7.800  18.418  0.00  0.00    +0.000 C 
ENDROOT
BRANCH   1   2
ATOM      2  C   UNL     1       8.497   9.300  18.361  0.00  0.00    +0.000 C 
ATOM      3  O   UNL     1       7.852   9.991  17.576  0.00  0.00    +0.000 OA
ATOM      4  N   UNL     1       9.439   9.755  19.269  0.00  0.00    +0.000 N 
ATOM      5  H   UNL     1      10.029   9.060  19.714  0.00  0.00    +0.000 HD
BRANCH   4   6
ATOM      6  C   UNL     1       9.736  11.108  19.544  0.00  0.00    +0.000 A 
ATOM      7  C   UNL     1       9.679  11.635  20.860  0.00  0.00    +0.000 A 
ATOM      8  C   UNL     1       9.986  12.967  21.137  0.00  0.00    +0.000 A 
ATOM      9  C   UNL     1      10.349  13.744  20.072  0.00  0.00    +0.000 A 
ATOM     10  N   UNL     1      10.709  15.084  20.040  0.00  0.00    +0.000 N 
ATOM     11  C   UNL     1      10.993  15.440  18.717  0.00  0.00    +0.000 A 
ATOM     12  O   UNL     1      11.339  16.538  18.318  0.00  0.00    +0.000 OA
ATOM     13  N   UNL     1      10.805  14.288  17.939  0.00  0.00    +0.000 N 
ATOM     14  C   UNL     1      10.413  13.245  18.772  0.00  0.00    +0.000 A 
ATOM     15  C   UNL     1      10.122  11.932  18.471  0.00  0.00    +0.000 A 
ATOM     16  H   UNL     1      10.765  15.715  20.822  0.00  0.00    +0.000 HD
ATOM     17  H   UNL     1      10.936  14.266  16.942  0.00  0.00    +0.000 HD
ENDBRANCH   4   6
ENDBRANCH   1   2
BRANCH   1  18
ATOM     18  C   UNL     1       7.369   7.308  17.320  0.00  0.00    +0.000 C 
BRANCH  18  32
ATOM     19  C   UNL     1       7.719   5.386  19.743  0.00  0.00    +0.000 C 
ATOM     20  C   UNL     1       6.492   5.457  18.873  0.00  0.00    +0.000 A 
ATOM     21  N   UNL     1       5.502   4.587  19.271  0.00  0.00    +0.000 NA
ATOM     22  C   UNL     1       4.419   4.484  18.563  0.00  0.00    +0.000 A 
ATOM     23  N   UNL     1       3.383   3.643  18.907  0.00  0.00    +0.000 N 
ATOM     24  C   UNL     1       2.613   2.906  17.889  0.00  0.00    +0.000 C 
ATOM     25  C   UNL     1       1.225   2.559  18.431  0.00  0.00    +0.000 C 
ATOM     26  O   UNL     1       1.311   1.809  19.650  0.00  0.00    +0.000 OA
ATOM     27  C   UNL     1       2.011   2.571  20.648  0.00  0.00    +0.000 C 
ATOM     28  C   UNL     1       3.436   2.917  20.193  0.00  0.00    +0.000 C 
ATOM     29  N   UNL     1       4.245   5.248  17.450  0.00  0.00    +0.000 N 
ATOM     30  C   UNL     1       5.096   6.230  17.078  0.00  0.00    +0.000 A 
ATOM     31  O   UNL     1       4.811   7.002  16.169  0.00  0.00    +0.000 OA
ATOM     32  C   UNL     1       6.379   6.291  17.818  0.00  0.00    +0.000 A 
ATOM     33  H   UNL     1       3.364   5.252  16.969  0.00  0.00    +0.000 HD
ENDBRANCH  18  32
ENDBRANCH   1  18
TORSDOF 4
ENDMDL
