MODEL 1
REMARK VINA RESULT:      -8.9      0.000      0.000
REMARK  Name = 
REMARK  5 active torsions:
REMARK  status: ('A' for Active; 'I' for Inactive)
REMARK    1  A    between atoms: C_2  and  C_16
REMARK    2  A    between atoms: N_3  and  C_4
REMARK    3  A    between atoms: C_4  and  C_5
REMARK    4  A    between atoms: C_7  and  C_8
REMARK    5  A    between atoms: C_20  and  C_21
REMARK                            x       y       z     vdW  Elec       q    Type
REMARK                         _______ _______ _______ _____ _____    ______ ____
ROOT
ATOM      1  O   UNL     1       2.343   5.009  20.322  0.00  0.00    +0.000 OA
ATOM      2  C   UNL     1       2.820   6.023  19.823  0.00  0.00    +0.000 C 
ATOM      3  N   UNL     1       4.061   6.047  19.232  0.00  0.00    +0.000 N 
ATOM      4  H   UNL     1       4.521   6.921  19.002  0.00  0.00    +0.000 HD
ENDROOT
BRANCH   2   5
ATOM      5  C   UNL     1       2.068   7.303  19.873  0.00  0.00    +0.000 A 
ATOM      6  C   UNL     1       2.101   8.128  18.742  0.00  0.00    +0.000 A 
ATOM      7  C   UNL     1       1.423   9.346  18.739  0.00  0.00    +0.000 A 
ATOM      8  C   UNL     1       0.714   9.748  19.870  0.00  0.00    +0.000 A 
ATOM      9  C   UNL     1       0.676   8.940  21.018  0.00  0.00    +0.000 A 
ATOM     10  C   UNL     1       1.367   7.714  21.015  0.00  0.00    +0.000 A 
BRANCH   9  11
ATOM     11  C   UNL     1      -0.094   9.371  22.243  0.00  0.00    +0.000 C 
ATOM     12  F   UNL     1      -0.732  10.566  22.093  0.00  0.00    +0.000 F 
ATOM     13  F   UNL     1      -1.060   8.475  22.585  0.00  0.00    +0.000 F 
ATOM     14  F   UNL     1       0.699   9.506  23.340  0.00  0.00    +0.000 F 
ENDBRANCH   9  11
ENDBRANCH   2   5
BRANCH   3  15
ATOM     15  C   UNL     1       4.863   4.839  19.234  0.00  0.00    +0.000 C 
BRANCH  15  16
ATOM     16  C   UNL     1       5.733   4.771  18.039  0.00  0.00    +0.000 A 
ATOM     17  N   UNL     1       5.438   4.813  16.759  0.00  0.00    +0.000 NA
ATOM     18  C   UNL     1       6.675   4.634  16.159  0.00  0.00    +0.000 A 
ATOM     19  N   UNL     1       7.687   4.524  17.041  0.00  0.00    +0.000 NA
ATOM     20  O   UNL     1       7.065   4.612  18.280  0.00  0.00    +0.000 OA
BRANCH  18  21
ATOM     21  C   UNL     1       6.858   4.541  14.705  0.00  0.00    +0.000 A 
ATOM     22  C   UNL     1       6.048   3.705  13.934  0.00  0.00    +0.000 A 
ATOM     23  C   UNL     1       6.239   3.664  12.554  0.00  0.00    +0.000 A 
ATOM     24  C   UNL     1       7.228   4.452  11.982  0.00  0.00    +0.000 A 
ATOM     25  C   UNL     1       7.991   5.253  12.815  0.00  0.00    +0.000 A 
ATOM     26  N   UNL     1       7.830   5.315  14.155  0.00  0.00    +0.000 NA
ENDBRANCH  18  21
ENDBRANCH  15  16
ENDBRANCH   3  15
TORSDOF 5
ENDMDL
MODEL 2
REMARK VINA RESULT:      -8.4      0.634      1.000
REMARK  Name = 
REMARK  5 active torsions:
REMARK  status: ('A' for Active; 'I' for Inactive)
REMARK    1  A    between atoms: C_2  and  C_16
REMARK    2  A    between atoms: N_3  and  C_4
REMARK    3  A    between atoms: C_4  and  C_5
REMARK    4  A    between atoms: C_7  and  C_8
REMARK    5  A    between atoms: C_20  and  C_21
REMARK                            x       y       z     vdW  Elec       q    Type
REMARK                         _______ _______ _______ _____ _____    ______ ____
ROOT
ATOM      1  O   UNL     1       2.576   4.901  20.038  0.00  0.00    +0.000 OA
ATOM      2  C   UNL     1       3.064   5.948  19.626  0.00  0.00    +0.000 C 
ATOM      3  N   UNL     1       4.352   6.031  19.151  0.00  0.00    +0.000 N 
ATOM      4  H   UNL     1       4.804   6.925  19.000  0.00  0.00    +0.000 HD
ENDROOT
BRANCH   2   5
ATOM      5  C   UNL     1       2.272   7.204  19.661  0.00  0.00    +0.000 A 
ATOM      6  C   UNL     1       2.239   7.991  18.502  0.00  0.00    +0.000 A 
ATOM      7  C   UNL     1       1.522   9.185  18.484  0.00  0.00    +0.000 A 
ATOM      8  C   UNL     1       0.840   9.603  19.625  0.00  0.00    +0.000 A 
ATOM      9  C   UNL     1       0.868   8.834  20.800  0.00  0.00    +0.000 A 
ATOM     10  C   UNL     1       1.599   7.631  20.813  0.00  0.00    +0.000 A 
BRANCH   9  11
ATOM     11  C   UNL     1       0.127   9.282  22.037  0.00  0.00    +0.000 C 
ATOM     12  F   UNL     1      -0.422  10.525  21.924  0.00  0.00    +0.000 F 
ATOM     13  F   UNL     1      -0.902   8.449  22.351  0.00  0.00    +0.000 F 
ATOM     14  F   UNL     1       0.925   9.326  23.138  0.00  0.00    +0.000 F 
ENDBRANCH   9  11
ENDBRANCH   2   5
BRANCH   3  15
ATOM     15  C   UNL     1       5.186   4.845  19.175  0.00  0.00    +0.000 C 
BRANCH  15  16
ATOM     16  C   UNL     1       5.975   4.718  17.931  0.00  0.00    +0.000 A 
ATOM     17  N   UNL     1       5.617   4.838  16.672  0.00  0.00    +0.000 NA
ATOM     18  C   UNL     1       6.790   4.539  15.995  0.00  0.00    +0.000 A 
ATOM     19  N   UNL     1       7.830   4.284  16.814  0.00  0.00    +0.000 NA
ATOM     20  O   UNL     1       7.291   4.400  18.089  0.00  0.00    +0.000 OA
BRANCH  18  21
ATOM     21  C   UNL     1       6.881   4.476  14.532  0.00  0.00    +0.000 A 
ATOM     22  C   UNL     1       7.736   5.328  13.830  0.00  0.00    +0.000 A 
ATOM     23  C   UNL     1       7.810   5.219  12.443  0.00  0.00    +0.000 A 
ATOM     24  C   UNL     1       7.034   4.269  11.794  0.00  0.00    +0.000 A 
ATOM     25  C   UNL     1       6.211   3.462  12.560  0.00  0.00    +0.000 A 
ATOM     26  N   UNL     1       6.116   3.543  13.906  0.00  0.00    +0.000 NA
ENDBRANCH  18  21
ENDBRANCH  15  16
ENDBRANCH   3  15
TORSDOF 5
ENDMDL
MODEL 3
REMARK VINA RESULT:      -8.3      3.226      4.294
REMARK  Name = 
REMARK  5 active torsions:
REMARK  status: ('A' for Active; 'I' for Inactive)
REMARK    1  A    between atoms: C_2  and  C_16
REMARK    2  A    between atoms: N_3  and  C_4
REMARK    3  A    between atoms: C_4  and  C_5
REMARK    4  A    between atoms: C_7  and  C_8
REMARK    5  A    between atoms: C_20  and  C_21
REMARK                            x       y       z     vdW  Elec       q    Type
REMARK                         _______ _______ _______ _____ _____    ______ ____
ROOT
ATOM      1  O   UNL     1       5.552   6.631  17.913  0.00  0.00    +0.000 OA
ATOM      2  C   UNL     1       5.305   5.563  18.465  0.00  0.00    +0.000 C 
ATOM      3  N   UNL     1       6.156   4.484  18.409  0.00  0.00    +0.000 N 
ATOM      4  H   UNL     1       5.856   3.559  18.697  0.00  0.00    +0.000 HD
ENDROOT
BRANCH   2   5
ATOM      5  C   UNL     1       4.028   5.382  19.202  0.00  0.00    +0.000 A 
ATOM      6  C   UNL     1       3.188   6.494  19.340  0.00  0.00    +0.000 A 
ATOM      7  C   UNL     1       1.983   6.383  20.032  0.00  0.00    +0.000 A 
ATOM      8  C   UNL     1       1.616   5.162  20.596  0.00  0.00    +0.000 A 
ATOM      9  C   UNL     1       2.449   4.038  20.477  0.00  0.00    +0.000 A 
ATOM     10  C   UNL     1       3.666   4.159  19.781  0.00  0.00    +0.000 A 
BRANCH   9  11
ATOM     11  C   UNL     1       2.052   2.713  21.083  0.00  0.00    +0.000 C 
ATOM     12  F   UNL     1       0.930   2.781  21.854  0.00  0.00    +0.000 F 
ATOM     13  F   UNL     1       1.795   1.770  20.135  0.00  0.00    +0.000 F 
ATOM     14  F   UNL     1       3.023   2.190  21.880  0.00  0.00    +0.000 F 
ENDBRANCH   9  11
ENDBRANCH   2   5
BRANCH   3  15
ATOM     15  C   UNL     1       7.375   4.592  17.632  0.00  0.00    +0.000 C 
BRANCH  15  16
ATOM     16  C   UNL     1       7.092   4.559  16.181  0.00  0.00    +0.000 A 
ATOM     17  N   UNL     1       6.347   3.742  15.470  0.00  0.00    +0.000 NA
ATOM     18  C   UNL     1       6.549   4.199  14.177  0.00  0.00    +0.000 A 
ATOM     19  N   UNL     1       7.357   5.275  14.109  0.00  0.00    +0.000 NA
ATOM     20  O   UNL     1       7.715   5.511  15.431  0.00  0.00    +0.000 OA
BRANCH  18  21
ATOM     21  C   UNL     1       5.966   3.552  12.995  0.00  0.00    +0.000 A 
ATOM     22  C   UNL     1       6.685   2.600  12.272  0.00  0.00    +0.000 A 
ATOM     23  C   UNL     1       6.086   1.993  11.170  0.00  0.00    +0.000 A 
ATOM     24  C   UNL     1       4.792   2.350  10.818  0.00  0.00    +0.000 A 
ATOM     25  C   UNL     1       4.145   3.304  11.585  0.00  0.00    +0.000 A 
ATOM     26  N   UNL     1       4.698   3.911  12.658  0.00  0.00    +0.000 NA
ENDBRANCH  18  21
ENDBRANCH  15  16
ENDBRANCH   3  15
TORSDOF 5
ENDMDL
MODEL 4
REMARK VINA RESULT:      -8.2      4.899      9.076
REMARK  Name = 
REMARK  5 active torsions:
REMARK  status: ('A' for Active; 'I' for Inactive)
REMARK    1  A    between atoms: C_2  and  C_16
REMARK    2  A    between atoms: N_3  and  C_4
REMARK    3  A    between atoms: C_4  and  C_5
REMARK    4  A    between atoms: C_7  and  C_8
REMARK    5  A    between atoms: C_20  and  C_21
REMARK                            x       y       z     vdW  Elec       q    Type
REMARK                         _______ _______ _______ _____ _____    ______ ____
ROOT
ATOM      1  O   UNL     1       7.794   4.401  16.757  0.00  0.00    +0.000 OA
ATOM      2  C   UNL     1       6.748   4.408  16.116  0.00  0.00    +0.000 C 
ATOM      3  N   UNL     1       5.510   4.381  16.714  0.00  0.00    +0.000 N 
ATOM      4  H   UNL     1       4.669   4.190  16.181  0.00  0.00    +0.000 HD
ENDROOT
BRANCH   2   5
ATOM      5  C   UNL     1       6.784   4.409  14.631  0.00  0.00    +0.000 A 
ATOM      6  C   UNL     1       7.828   5.098  14.001  0.00  0.00    +0.000 A 
ATOM      7  C   UNL     1       7.903   5.141  12.610  0.00  0.00    +0.000 A 
ATOM      8  C   UNL     1       6.931   4.502  11.842  0.00  0.00    +0.000 A 
ATOM      9  C   UNL     1       5.871   3.813  12.455  0.00  0.00    +0.000 A 
ATOM     10  C   UNL     1       5.799   3.778  13.859  0.00  0.00    +0.000 A 
BRANCH   9  11
ATOM     11  C   UNL     1       4.819   3.116  11.625  0.00  0.00    +0.000 C 
ATOM     12  F   UNL     1       5.186   1.870  11.213  0.00  0.00    +0.000 F 
ATOM     13  F   UNL     1       3.652   2.953  12.306  0.00  0.00    +0.000 F 
ATOM     14  F   UNL     1       4.502   3.805  10.495  0.00  0.00    +0.000 F 
ENDBRANCH   9  11
ENDBRANCH   2   5
BRANCH   3  15
ATOM     15  C   UNL     1       5.431   4.297  18.159  0.00  0.00    +0.000 C 
BRANCH  15  16
ATOM     16  C   UNL     1       4.324   5.126  18.684  0.00  0.00    +0.000 A 
ATOM     17  N   UNL     1       3.847   6.280  18.275  0.00  0.00    +0.000 NA
ATOM     18  C   UNL     1       2.869   6.555  19.219  0.00  0.00    +0.000 A 
ATOM     19  N   UNL     1       2.734   5.585  20.146  0.00  0.00    +0.000 NA
ATOM     20  O   UNL     1       3.694   4.646  19.793  0.00  0.00    +0.000 OA
BRANCH  18  21
ATOM     21  C   UNL     1       2.082   7.794  19.227  0.00  0.00    +0.000 A 
ATOM     22  C   UNL     1       1.878   8.519  18.052  0.00  0.00    +0.000 A 
ATOM     23  C   UNL     1       1.105   9.677  18.098  0.00  0.00    +0.000 A 
ATOM     24  C   UNL     1       0.559  10.081  19.308  0.00  0.00    +0.000 A 
ATOM     25  C   UNL     1       0.809   9.309  20.429  0.00  0.00    +0.000 A 
ATOM     26  N   UNL     1       1.554   8.182  20.418  0.00  0.00    +0.000 NA
ENDBRANCH  18  21
ENDBRANCH  15  16
ENDBRANCH   3  15
TORSDOF 5
ENDMDL
MODEL 5
REMARK VINA RESULT:      -8.2      4.674      6.276
REMARK  Name = 
REMARK  5 active torsions:
REMARK  status: ('A' for Active; 'I' for Inactive)
REMARK    1  A    between atoms: C_2  and  C_16
REMARK    2  A    between atoms: N_3  and  C_4
REMARK    3  A    between atoms: C_4  and  C_5
REMARK    4  A    between atoms: C_7  and  C_8
REMARK    5  A    between atoms: C_20  and  C_21
REMARK                            x       y       z     vdW  Elec       q    Type
REMARK                         _______ _______ _______ _____ _____    ______ ____
ROOT
ATOM      1  O   UNL     1       5.855   4.202  16.441  0.00  0.00    +0.000 OA
ATOM      2  C   UNL     1       5.491   4.308  17.608  0.00  0.00    +0.000 C 
ATOM      3  N   UNL     1       6.307   4.804  18.597  0.00  0.00    +0.000 N 
ATOM      4  H   UNL     1       6.069   4.705  19.578  0.00  0.00    +0.000 HD
ENDROOT
BRANCH   2   5
ATOM      5  C   UNL     1       4.134   3.858  18.010  0.00  0.00    +0.000 A 
ATOM      6  C   UNL     1       3.407   3.075  17.103  0.00  0.00    +0.000 A 
ATOM      7  C   UNL     1       2.125   2.636  17.424  0.00  0.00    +0.000 A 
ATOM      8  C   UNL     1       1.559   2.982  18.651  0.00  0.00    +0.000 A 
ATOM      9  C   UNL     1       2.267   3.774  19.570  0.00  0.00    +0.000 A 
ATOM     10  C   UNL     1       3.560   4.218  19.236  0.00  0.00    +0.000 A 
BRANCH   9  11
ATOM     11  C   UNL     1       1.659   4.146  20.900  0.00  0.00    +0.000 C 
ATOM     12  F   UNL     1       0.902   3.155  21.451  0.00  0.00    +0.000 F 
ATOM     13  F   UNL     1       2.603   4.452  21.831  0.00  0.00    +0.000 F 
ATOM     14  F   UNL     1       0.846   5.234  20.818  0.00  0.00    +0.000 F 
ENDBRANCH   9  11
ENDBRANCH   2   5
BRANCH   3  15
ATOM     15  C   UNL     1       7.667   5.180  18.264  0.00  0.00    +0.000 C 
BRANCH  15  16
ATOM     16  C   UNL     1       7.788   6.642  18.073  0.00  0.00    +0.000 A 
ATOM     17  N   UNL     1       8.542   7.527  18.685  0.00  0.00    +0.000 NA
ATOM     18  C   UNL     1       8.144   8.719  18.098  0.00  0.00    +0.000 A 
ATOM     19  N   UNL     1       7.210   8.558  17.140  0.00  0.00    +0.000 NA
ATOM     20  O   UNL     1       6.975   7.189  17.126  0.00  0.00    +0.000 OA
BRANCH  18  21
ATOM     21  C   UNL     1       8.665  10.030  18.504  0.00  0.00    +0.000 A 
ATOM     22  C   UNL     1       9.336  10.188  19.718  0.00  0.00    +0.000 A 
ATOM     23  C   UNL     1       9.836  11.444  20.055  0.00  0.00    +0.000 A 
ATOM     24  C   UNL     1       9.655  12.505  19.178  0.00  0.00    +0.000 A 
ATOM     25  C   UNL     1       8.977  12.267  17.995  0.00  0.00    +0.000 A 
ATOM     26  N   UNL     1       8.480  11.062  17.639  0.00  0.00    +0.000 NA
ENDBRANCH  18  21
ENDBRANCH  15  16
ENDBRANCH   3  15
TORSDOF 5
ENDMDL
MODEL 6
REMARK VINA RESULT:      -8.2      4.974      6.434
REMARK  Name = 
REMARK  5 active torsions:
REMARK  status: ('A' for Active; 'I' for Inactive)
REMARK    1  A    between atoms: C_2  and  C_16
REMARK    2  A    between atoms: N_3  and  C_4
REMARK    3  A    between atoms: C_4  and  C_5
REMARK    4  A    between atoms: C_7  and  C_8
REMARK    5  A    between atoms: C_20  and  C_21
REMARK                            x       y       z     vdW  Elec       q    Type
REMARK                         _______ _______ _______ _____ _____    ______ ____
ROOT
ATOM      1  O   UNL     1       6.452   4.182  16.895  0.00  0.00    +0.000 OA
ATOM      2  C   UNL     1       5.837   4.701  17.821  0.00  0.00    +0.000 C 
ATOM      3  N   UNL     1       6.426   5.576  18.704  0.00  0.00    +0.000 N 
ATOM      4  H   UNL     1       5.969   5.842  19.569  0.00  0.00    +0.000 HD
ENDROOT
BRANCH   2   5
ATOM      5  C   UNL     1       4.409   4.367  18.049  0.00  0.00    +0.000 A 
ATOM      6  C   UNL     1       3.720   3.701  17.028  0.00  0.00    +0.000 A 
ATOM      7  C   UNL     1       2.374   3.374  17.184  0.00  0.00    +0.000 A 
ATOM      8  C   UNL     1       1.709   3.717  18.360  0.00  0.00    +0.000 A 
ATOM      9  C   UNL     1       2.378   4.393  19.392  0.00  0.00    +0.000 A 
ATOM     10  C   UNL     1       3.736   4.725  19.225  0.00  0.00    +0.000 A 
BRANCH   9  11
ATOM     11  C   UNL     1       1.661   4.763  20.668  0.00  0.00    +0.000 C 
ATOM     12  F   UNL     1       1.629   6.104  20.907  0.00  0.00    +0.000 F 
ATOM     13  F   UNL     1       0.362   4.355  20.665  0.00  0.00    +0.000 F 
ATOM     14  F   UNL     1       2.229   4.201  21.770  0.00  0.00    +0.000 F 
ENDBRANCH   9  11
ENDBRANCH   2   5
BRANCH   3  15
ATOM     15  C   UNL     1       7.840   5.867  18.567  0.00  0.00    +0.000 C 
BRANCH  15  16
ATOM     16  C   UNL     1       8.073   7.314  18.365  0.00  0.00    +0.000 A 
ATOM     17  N   UNL     1       8.826   8.162  19.028  0.00  0.00    +0.000 NA
ATOM     18  C   UNL     1       8.559   9.364  18.391  0.00  0.00    +0.000 A 
ATOM     19  N   UNL     1       7.704   9.243  17.356  0.00  0.00    +0.000 NA
ATOM     20  O   UNL     1       7.383   7.891  17.342  0.00  0.00    +0.000 OA
BRANCH  18  21
ATOM     21  C   UNL     1       9.127  10.647  18.821  0.00  0.00    +0.000 A 
ATOM     22  C   UNL     1       9.476  10.864  20.155  0.00  0.00    +0.000 A 
ATOM     23  C   UNL     1      10.035  12.088  20.518  0.00  0.00    +0.000 A 
ATOM     24  C   UNL     1      10.229  13.060  19.546  0.00  0.00    +0.000 A 
ATOM     25  C   UNL     1       9.855  12.769  18.245  0.00  0.00    +0.000 A 
ATOM     26  N   UNL     1       9.312  11.593  17.862  0.00  0.00    +0.000 NA
ENDBRANCH  18  21
ENDBRANCH  15  16
ENDBRANCH   3  15
TORSDOF 5
ENDMDL
MODEL 7
REMARK VINA RESULT:      -8.2      5.183      6.469
REMARK  Name = 
REMARK  5 active torsions:
REMARK  status: ('A' for Active; 'I' for Inactive)
REMARK    1  A    between atoms: C_2  and  C_16
REMARK    2  A    between atoms: N_3  and  C_4
REMARK    3  A    between atoms: C_4  and  C_5
REMARK    4  A    between atoms: C_7  and  C_8
REMARK    5  A    between atoms: C_20  and  C_21
REMARK                            x       y       z     vdW  Elec       q    Type
REMARK                         _______ _______ _______ _____ _____    ______ ____
ROOT
ATOM      1  O   UNL     1       4.900   5.523  17.163  0.00  0.00    +0.000 OA
ATOM      2  C   UNL     1       4.976   5.525  18.387  0.00  0.00    +0.000 C 
ATOM      3  N   UNL     1       6.169   5.665  19.057  0.00  0.00    +0.000 N 
ATOM      4  H   UNL     1       6.245   5.470  20.049  0.00  0.00    +0.000 HD
ENDROOT
BRANCH   2   5
ATOM      5  C   UNL     1       3.755   5.334  19.210  0.00  0.00    +0.000 A 
ATOM      6  C   UNL     1       2.921   6.440  19.413  0.00  0.00    +0.000 A 
ATOM      7  C   UNL     1       1.768   6.320  20.188  0.00  0.00    +0.000 A 
ATOM      8  C   UNL     1       1.447   5.094  20.769  0.00  0.00    +0.000 A 
ATOM      9  C   UNL     1       2.275   3.975  20.586  0.00  0.00    +0.000 A 
ATOM     10  C   UNL     1       3.440   4.105  19.806  0.00  0.00    +0.000 A 
BRANCH   9  11
ATOM     11  C   UNL     1       1.928   2.645  21.211  0.00  0.00    +0.000 C 
ATOM     12  F   UNL     1       0.920   2.719  22.125  0.00  0.00    +0.000 F 
ATOM     13  F   UNL     1       1.524   1.731  20.286  0.00  0.00    +0.000 F 
ATOM     14  F   UNL     1       2.982   2.081  21.861  0.00  0.00    +0.000 F 
ENDBRANCH   9  11
ENDBRANCH   2   5
BRANCH   3  15
ATOM     15  C   UNL     1       7.395   5.773  18.291  0.00  0.00    +0.000 C 
BRANCH  15  16
ATOM     16  C   UNL     1       7.834   7.181  18.176  0.00  0.00    +0.000 A 
ATOM     17  N   UNL     1       8.629   7.897  18.940  0.00  0.00    +0.000 NA
ATOM     18  C   UNL     1       8.583   9.144  18.337  0.00  0.00    +0.000 A 
ATOM     19  N   UNL     1       7.818   9.174  17.228  0.00  0.00    +0.000 NA
ATOM     20  O   UNL     1       7.324   7.880  17.124  0.00  0.00    +0.000 OA
BRANCH  18  21
ATOM     21  C   UNL     1       9.273  10.324  18.873  0.00  0.00    +0.000 A 
ATOM     22  C   UNL     1       9.898  11.236  18.021  0.00  0.00    +0.000 A 
ATOM     23  C   UNL     1      10.522  12.355  18.569  0.00  0.00    +0.000 A 
ATOM     24  C   UNL     1      10.507  12.534  19.945  0.00  0.00    +0.000 A 
ATOM     25  C   UNL     1       9.868  11.584  20.723  0.00  0.00    +0.000 A 
ATOM     26  N   UNL     1       9.255  10.489  20.222  0.00  0.00    +0.000 NA
ENDBRANCH  18  21
ENDBRANCH  15  16
ENDBRANCH   3  15
TORSDOF 5
ENDMDL
MODEL 8
REMARK VINA RESULT:      -8.1      5.342      8.799
REMARK  Name = 
REMARK  5 active torsions:
REMARK  status: ('A' for Active; 'I' for Inactive)
REMARK    1  A    between atoms: C_2  and  C_16
REMARK    2  A    between atoms: N_3  and  C_4
REMARK    3  A    between atoms: C_4  and  C_5
REMARK    4  A    between atoms: C_7  and  C_8
REMARK    5  A    between atoms: C_20  and  C_21
REMARK                            x       y       z     vdW  Elec       q    Type
REMARK                         _______ _______ _______ _____ _____    ______ ____
ROOT
ATOM      1  O   UNL     1       7.764   4.255  16.405  0.00  0.00    +0.000 OA
ATOM      2  C   UNL     1       7.274   5.115  15.680  0.00  0.00    +0.000 C 
ATOM      3  N   UNL     1       6.807   6.316  16.163  0.00  0.00    +0.000 N 
ATOM      4  H   UNL     1       6.233   6.927  15.594  0.00  0.00    +0.000 HD
ENDROOT
BRANCH   2   5
ATOM      5  C   UNL     1       7.129   4.868  14.223  0.00  0.00    +0.000 A 
ATOM      6  C   UNL     1       8.066   5.455  13.362  0.00  0.00    +0.000 A 
ATOM      7  C   UNL     1       7.971   5.266  11.985  0.00  0.00    +0.000 A 
ATOM      8  C   UNL     1       6.934   4.495  11.460  0.00  0.00    +0.000 A 
ATOM      9  C   UNL     1       5.979   3.907  12.305  0.00  0.00    +0.000 A 
ATOM     10  C   UNL     1       6.079   4.106  13.694  0.00  0.00    +0.000 A 
BRANCH   9  11
ATOM     11  C   UNL     1       4.858   3.068  11.740  0.00  0.00    +0.000 C 
ATOM     12  F   UNL     1       5.229   1.791  11.442  0.00  0.00    +0.000 F 
ATOM     13  F   UNL     1       3.811   2.960  12.602  0.00  0.00    +0.000 F 
ATOM     14  F   UNL     1       4.346   3.586  10.590  0.00  0.00    +0.000 F 
ENDBRANCH   9  11
ENDBRANCH   2   5
BRANCH   3  15
ATOM     15  C   UNL     1       6.854   6.564  17.590  0.00  0.00    +0.000 C 
BRANCH  15  16
ATOM     16  C   UNL     1       5.950   5.651  18.324  0.00  0.00    +0.000 A 
ATOM     17  N   UNL     1       4.694   5.331  18.108  0.00  0.00    +0.000 NA
ATOM     18  C   UNL     1       4.408   4.493  19.175  0.00  0.00    +0.000 A 
ATOM     19  N   UNL     1       5.463   4.284  19.988  0.00  0.00    +0.000 NA
ATOM     20  O   UNL     1       6.477   5.049  19.426  0.00  0.00    +0.000 OA
BRANCH  18  21
ATOM     21  C   UNL     1       3.080   3.917  19.413  0.00  0.00    +0.000 A 
ATOM     22  C   UNL     1       2.467   4.023  20.663  0.00  0.00    +0.000 A 
ATOM     23  C   UNL     1       1.195   3.484  20.841  0.00  0.00    +0.000 A 
ATOM     24  C   UNL     1       0.569   2.854  19.773  0.00  0.00    +0.000 A 
ATOM     25  C   UNL     1       1.243   2.789  18.566  0.00  0.00    +0.000 A 
ATOM     26  N   UNL     1       2.476   3.302  18.361  0.00  0.00    +0.000 NA
ENDBRANCH  18  21
ENDBRANCH  15  16
ENDBRANCH   3  15
TORSDOF 5
ENDMDL
MODEL 9
REMARK VINA RESULT:      -8.1      5.294      6.481
REMARK  Name = 
REMARK  5 active torsions:
REMARK  status: ('A' for Active; 'I' for Inactive)
REMARK    1  A    between atoms: C_2  and  C_16
REMARK    2  A    between atoms: N_3  and  C_4
REMARK    3  A    between atoms: C_4  and  C_5
REMARK    4  A    between atoms: C_7  and  C_8
REMARK    5  A    between atoms: C_20  and  C_21
REMARK                            x       y       z     vdW  Elec       q    Type
REMARK                         _______ _______ _______ _____ _____    ______ ____
ROOT
ATOM      1  O   UNL     1       3.756   7.455  17.270  0.00  0.00    +0.000 OA
ATOM      2  C   UNL     1       4.074   6.378  17.765  0.00  0.00    +0.000 C 
ATOM      3  N   UNL     1       5.298   5.792  17.546  0.00  0.00    +0.000 N 
ATOM      4  H   UNL     1       5.474   4.825  17.794  0.00  0.00    +0.000 HD
ENDROOT
BRANCH   2   5
ATOM      5  C   UNL     1       3.107   5.633  18.611  0.00  0.00    +0.000 A 
ATOM      6  C   UNL     1       2.585   6.282  19.738  0.00  0.00    +0.000 A 
ATOM      7  C   UNL     1       1.685   5.624  20.573  0.00  0.00    +0.000 A 
ATOM      8  C   UNL     1       1.306   4.313  20.291  0.00  0.00    +0.000 A 
ATOM      9  C   UNL     1       1.824   3.641  19.172  0.00  0.00    +0.000 A 
ATOM     10  C   UNL     1       2.738   4.310  18.336  0.00  0.00    +0.000 A 
BRANCH   9  11
ATOM     11  C   UNL     1       1.413   2.222  18.861  0.00  0.00    +0.000 C 
ATOM     12  F   UNL     1       0.108   2.103  18.484  0.00  0.00    +0.000 F 
ATOM     13  F   UNL     1       2.143   1.685  17.846  0.00  0.00    +0.000 F 
ATOM     14  F   UNL     1       1.572   1.387  19.923  0.00  0.00    +0.000 F 
ENDBRANCH   9  11
ENDBRANCH   2   5
BRANCH   3  15
ATOM     15  C   UNL     1       6.241   6.447  16.660  0.00  0.00    +0.000 C 
BRANCH  15  16
ATOM     16  C   UNL     1       7.113   7.384  17.402  0.00  0.00    +0.000 A 
ATOM     17  N   UNL     1       7.283   8.681  17.274  0.00  0.00    +0.000 NA
ATOM     18  C   UNL     1       8.273   8.948  18.208  0.00  0.00    +0.000 A 
ATOM     19  N   UNL     1       8.662   7.859  18.901  0.00  0.00    +0.000 NA
ATOM     20  O   UNL     1       7.898   6.830  18.368  0.00  0.00    +0.000 OA
BRANCH  18  21
ATOM     21  C   UNL     1       8.862  10.279  18.399  0.00  0.00    +0.000 A 
ATOM     22  C   UNL     1       9.904  10.477  19.306  0.00  0.00    +0.000 A 
ATOM     23  C   UNL     1      10.451  11.751  19.440  0.00  0.00    +0.000 A 
ATOM     24  C   UNL     1       9.946  12.791  18.671  0.00  0.00    +0.000 A 
ATOM     25  C   UNL     1       8.911  12.514  17.795  0.00  0.00    +0.000 A 
ATOM     26  N   UNL     1       8.359  11.290  17.642  0.00  0.00    +0.000 NA
ENDBRANCH  18  21
ENDBRANCH  15  16
ENDBRANCH   3  15
TORSDOF 5
ENDMDL
