MODEL 1
REMARK VINA RESULT:      -9.4      0.000      0.000
REMARK  Name = 
REMARK  4 active torsions:
REMARK  status: ('A' for Active; 'I' for Inactive)
REMARK    1  A    between atoms: C_1  and  N_2
REMARK    2  A    between atoms: C_6  and  C_7
REMARK    3  A    between atoms: C_11  and  N_12
REMARK    4  A    between atoms: C_13  and  C_15
REMARK                            x       y       z     vdW  Elec       q    Type
REMARK                         _______ _______ _______ _____ _____    ______ ____
ROOT
ATOM      1  N   UNL     1       3.047   6.355  19.567  0.00  0.00    +0.000 N 
ATOM      2  C   UNL     1       2.801   5.152  18.921  0.00  0.00    +0.000 C 
ATOM      3  O   UNL     1       1.970   4.994  18.025  0.00  0.00    +0.000 OA
ATOM      4  H   UNL     1       3.933   6.462  20.052  0.00  0.00    +0.000 HD
ENDROOT
BRANCH   2   5
ATOM      5  C   UNL     1       3.665   3.984  19.346  0.00  0.00    +0.000 A 
ATOM      6  C   UNL     1       4.983   4.290  19.458  0.00  0.00    +0.000 A 
ATOM      7  C   UNL     1       5.504   4.629  18.105  0.00  0.00    +0.000 A 
ATOM      8  C   UNL     1       6.195   5.803  17.833  0.00  0.00    +0.000 A 
ATOM      9  C   UNL     1       6.424   6.148  16.501  0.00  0.00    +0.000 A 
ATOM     10  C   UNL     1       6.016   5.298  15.463  0.00  0.00    +0.000 A 
ATOM     11  C   UNL     1       5.385   4.082  15.738  0.00  0.00    +0.000 A 
ATOM     12  C   UNL     1       5.095   3.772  17.058  0.00  0.00    +0.000 A 
ATOM     13  N   UNL     1       4.256   2.686  17.390  0.00  0.00    +0.000 N 
ATOM     14  C   UNL     1       3.519   2.709  18.566  0.00  0.00    +0.000 A 
ATOM     15  O   UNL     1       2.708   1.848  18.877  0.00  0.00    +0.000 OA
ATOM     16  H   UNL     1       4.037   1.964  16.717  0.00  0.00    +0.000 HD
ENDBRANCH   2   5
BRANCH   1  21
ATOM     17  C   UNL     1       0.988   9.380  20.263  0.00  0.00    +0.000 A 
ATOM     18  C   UNL     1       1.112  10.035  19.029  0.00  0.00    +0.000 A 
ATOM     19  C   UNL     1       1.662   9.390  17.930  0.00  0.00    +0.000 A 
ATOM     20  C   UNL     1       2.210   8.124  18.084  0.00  0.00    +0.000 A 
ATOM     21  C   UNL     1       2.278   7.524  19.346  0.00  0.00    +0.000 A 
ATOM     22  C   UNL     1       1.597   8.119  20.415  0.00  0.00    +0.000 A 
BRANCH  17  28
ATOM     23  C   UNL     1      -1.369  11.503  20.159  0.00  0.00    +0.000 C 
ATOM     24  N   UNL     1      -0.715  10.950  21.318  0.00  0.00    +0.000 N 
ATOM     25  C   UNL     1      -1.069  11.234  22.601  0.00  0.00    +0.000 A 
ATOM     26  N   UNL     1      -0.358  10.504  23.430  0.00  0.00    +0.000 NA
ATOM     27  N   UNL     1       0.476   9.723  22.666  0.00  0.00    +0.000 NA
ATOM     28  C   UNL     1       0.285  10.007  21.385  0.00  0.00    +0.000 A 
ENDBRANCH  17  28
ENDBRANCH   1  21
TORSDOF 3
ENDMDL
MODEL 2
REMARK VINA RESULT:      -8.8      2.265      3.873
REMARK  Name = 
REMARK  4 active torsions:
REMARK  status: ('A' for Active; 'I' for Inactive)
REMARK    1  A    between atoms: C_1  and  N_2
REMARK    2  A    between atoms: C_6  and  C_7
REMARK    3  A    between atoms: C_11  and  N_12
REMARK    4  A    between atoms: C_13  and  C_15
REMARK                            x       y       z     vdW  Elec       q    Type
REMARK                         _______ _______ _______ _____ _____    ______ ____
ROOT
ATOM      1  N   UNL     1       1.896   6.762  18.733  0.00  0.00    +0.000 N 
ATOM      2  C   UNL     1       3.121   6.114  18.656  0.00  0.00    +0.000 C 
ATOM      3  O   UNL     1       4.095   6.369  19.365  0.00  0.00    +0.000 OA
ATOM      4  H   UNL     1       1.084   6.293  18.344  0.00  0.00    +0.000 HD
ENDROOT
BRANCH   2   5
ATOM      5  C   UNL     1       3.212   4.992  17.644  0.00  0.00    +0.000 A 
ATOM      6  C   UNL     1       2.153   4.143  17.670  0.00  0.00    +0.000 A 
ATOM      7  C   UNL     1       2.154   3.429  18.977  0.00  0.00    +0.000 A 
ATOM      8  C   UNL     1       1.044   3.380  19.811  0.00  0.00    +0.000 A 
ATOM      9  C   UNL     1       1.210   2.906  21.113  0.00  0.00    +0.000 A 
ATOM     10  C   UNL     1       2.459   2.439  21.549  0.00  0.00    +0.000 A 
ATOM     11  C   UNL     1       3.559   2.421  20.687  0.00  0.00    +0.000 A 
ATOM     12  C   UNL     1       3.410   2.955  19.416  0.00  0.00    +0.000 A 
ATOM     13  N   UNL     1       4.526   3.188  18.583  0.00  0.00    +0.000 N 
ATOM     14  C   UNL     1       4.483   4.193  17.626  0.00  0.00    +0.000 A 
ATOM     15  O   UNL     1       5.438   4.509  16.929  0.00  0.00    +0.000 OA
ATOM     16  H   UNL     1       5.423   2.763  18.772  0.00  0.00    +0.000 HD
ENDBRANCH   2   5
BRANCH   1  21
ATOM     17  C   UNL     1       1.018  10.224  19.792  0.00  0.00    +0.000 A 
ATOM     18  C   UNL     1       0.798  10.001  21.159  0.00  0.00    +0.000 A 
ATOM     19  C   UNL     1       1.154   8.798  21.752  0.00  0.00    +0.000 A 
ATOM     20  C   UNL     1       1.619   7.756  20.962  0.00  0.00    +0.000 A 
ATOM     21  C   UNL     1       1.664   7.883  19.569  0.00  0.00    +0.000 A 
ATOM     22  C   UNL     1       1.439   9.140  18.997  0.00  0.00    +0.000 A 
BRANCH  17  28
ATOM     23  C   UNL     1      -1.769  11.550  19.055  0.00  0.00    +0.000 C 
ATOM     24  N   UNL     1      -0.446  12.080  18.849  0.00  0.00    +0.000 N 
ATOM     25  C   UNL     1      -0.190  13.312  18.331  0.00  0.00    +0.000 A 
ATOM     26  N   UNL     1       1.102  13.548  18.360  0.00  0.00    +0.000 NA
ATOM     27  N   UNL     1       1.701  12.442  18.915  0.00  0.00    +0.000 NA
ATOM     28  C   UNL     1       0.773  11.536  19.190  0.00  0.00    +0.000 A 
ENDBRANCH  17  28
ENDBRANCH   1  21
TORSDOF 3
ENDMDL
MODEL 3
REMARK VINA RESULT:      -8.7      0.671      1.019
REMARK  Name = 
REMARK  4 active torsions:
REMARK  status: ('A' for Active; 'I' for Inactive)
REMARK    1  A    between atoms: C_1  and  N_2
REMARK    2  A    between atoms: C_6  and  C_7
REMARK    3  A    between atoms: C_11  and  N_12
REMARK    4  A    between atoms: C_13  and  C_15
REMARK                            x       y       z     vdW  Elec       q    Type
REMARK                         _______ _______ _______ _____ _____    ______ ____
ROOT
ATOM      1  N   UNL     1       2.994   6.569  19.555  0.00  0.00    +0.000 N 
ATOM      2  C   UNL     1       2.771   5.359  18.913  0.00  0.00    +0.000 C 
ATOM      3  O   UNL     1       1.985   5.195  17.980  0.00  0.00    +0.000 OA
ATOM      4  H   UNL     1       3.856   6.676  20.082  0.00  0.00    +0.000 HD
ENDROOT
BRANCH   2   5
ATOM      5  C   UNL     1       3.603   4.191  19.397  0.00  0.00    +0.000 A 
ATOM      6  C   UNL     1       4.927   4.469  19.505  0.00  0.00    +0.000 A 
ATOM      7  C   UNL     1       5.466   4.734  18.143  0.00  0.00    +0.000 A 
ATOM      8  C   UNL     1       6.187   5.877  17.824  0.00  0.00    +0.000 A 
ATOM      9  C   UNL     1       6.434   6.157  16.480  0.00  0.00    +0.000 A 
ATOM     10  C   UNL     1       6.011   5.271  15.477  0.00  0.00    +0.000 A 
ATOM     11  C   UNL     1       5.349   4.084  15.802  0.00  0.00    +0.000 A 
ATOM     12  C   UNL     1       5.043   3.841  17.132  0.00  0.00    +0.000 A 
ATOM     13  N   UNL     1       4.175   2.792  17.506  0.00  0.00    +0.000 N 
ATOM     14  C   UNL     1       3.431   2.886  18.673  0.00  0.00    +0.000 A 
ATOM     15  O   UNL     1       2.596   2.059  19.017  0.00  0.00    +0.000 OA
ATOM     16  H   UNL     1       3.943   2.046  16.864  0.00  0.00    +0.000 HD
ENDBRANCH   2   5
BRANCH   1  21
ATOM     17  C   UNL     1       1.028   9.684  20.109  0.00  0.00    +0.000 A 
ATOM     18  C   UNL     1       1.132  10.255  18.833  0.00  0.00    +0.000 A 
ATOM     19  C   UNL     1       1.636   9.528  17.764  0.00  0.00    +0.000 A 
ATOM     20  C   UNL     1       2.158   8.261  17.983  0.00  0.00    +0.000 A 
ATOM     21  C   UNL     1       2.247   7.741  19.280  0.00  0.00    +0.000 A 
ATOM     22  C   UNL     1       1.612   8.420  20.325  0.00  0.00    +0.000 A 
BRANCH  17  28
ATOM     23  C   UNL     1      -0.697   8.471  22.481  0.00  0.00    +0.000 C 
ATOM     24  N   UNL     1      -0.398   9.854  22.210  0.00  0.00    +0.000 N 
ATOM     25  C   UNL     1      -0.789  10.888  23.004  0.00  0.00    +0.000 A 
ATOM     26  N   UNL     1      -0.282  12.012  22.552  0.00  0.00    +0.000 NA
ATOM     27  N   UNL     1       0.460  11.701  21.437  0.00  0.00    +0.000 NA
ATOM     28  C   UNL     1       0.373  10.398  21.207  0.00  0.00    +0.000 A 
ENDBRANCH  17  28
ENDBRANCH   1  21
TORSDOF 3
ENDMDL
MODEL 4
REMARK VINA RESULT:      -8.6      1.838      3.272
REMARK  Name = 
REMARK  4 active torsions:
REMARK  status: ('A' for Active; 'I' for Inactive)
REMARK    1  A    between atoms: C_1  and  N_2
REMARK    2  A    between atoms: C_6  and  C_7
REMARK    3  A    between atoms: C_11  and  N_12
REMARK    4  A    between atoms: C_13  and  C_15
REMARK                            x       y       z     vdW  Elec       q    Type
REMARK                         _______ _______ _______ _____ _____    ______ ____
ROOT
ATOM      1  N   UNL     1       2.659   6.749  17.853  0.00  0.00    +0.000 N 
ATOM      2  C   UNL     1       3.607   6.050  18.586  0.00  0.00    +0.000 C 
ATOM      3  O   UNL     1       4.023   6.385  19.695  0.00  0.00    +0.000 OA
ATOM      4  H   UNL     1       2.162   6.252  17.120  0.00  0.00    +0.000 HD
ENDROOT
BRANCH   2   5
ATOM      5  C   UNL     1       4.111   4.767  17.960  0.00  0.00    +0.000 A 
ATOM      6  C   UNL     1       3.127   3.887  17.643  0.00  0.00    +0.000 A 
ATOM      7  C   UNL     1       2.484   3.426  18.904  0.00  0.00    +0.000 A 
ATOM      8  C   UNL     1       1.112   3.477  19.116  0.00  0.00    +0.000 A 
ATOM      9  C   UNL     1       0.629   3.258  20.407  0.00  0.00    +0.000 A 
ATOM     10  C   UNL     1       1.506   2.938  21.453  0.00  0.00    +0.000 A 
ATOM     11  C   UNL     1       2.879   2.816  21.225  0.00  0.00    +0.000 A 
ATOM     12  C   UNL     1       3.367   3.101  19.959  0.00  0.00    +0.000 A 
ATOM     13  N   UNL     1       4.752   3.230  19.717  0.00  0.00    +0.000 N 
ATOM     14  C   UNL     1       5.207   4.040  18.686  0.00  0.00    +0.000 A 
ATOM     15  O   UNL     1       6.390   4.268  18.472  0.00  0.00    +0.000 OA
ATOM     16  H   UNL     1       5.436   2.890  20.379  0.00  0.00    +0.000 HD
ENDBRANCH   2   5
BRANCH   1  21
ATOM     17  C   UNL     1       1.281   9.437  20.033  0.00  0.00    +0.000 A 
ATOM     18  C   UNL     1       1.508  10.547  19.206  0.00  0.00    +0.000 A 
ATOM     19  C   UNL     1       1.889  10.384  17.881  0.00  0.00    +0.000 A 
ATOM     20  C   UNL     1       2.169   9.113  17.401  0.00  0.00    +0.000 A 
ATOM     21  C   UNL     1       2.141   8.005  18.256  0.00  0.00    +0.000 A 
ATOM     22  C   UNL     1       1.622   8.160  19.546  0.00  0.00    +0.000 A 
BRANCH  17  28
ATOM     23  C   UNL     1      -1.246  11.120  20.956  0.00  0.00    +0.000 C 
ATOM     24  N   UNL     1      -0.333  10.361  21.771  0.00  0.00    +0.000 N 
ATOM     25  C   UNL     1      -0.461  10.205  23.116  0.00  0.00    +0.000 A 
ATOM     26  N   UNL     1       0.462   9.381  23.559  0.00  0.00    +0.000 NA
ATOM     27  N   UNL     1       1.207   8.989  22.472  0.00  0.00    +0.000 NA
ATOM     28  C   UNL     1       0.749   9.599  21.388  0.00  0.00    +0.000 A 
ENDBRANCH  17  28
ENDBRANCH   1  21
TORSDOF 3
ENDMDL
MODEL 5
REMARK VINA RESULT:      -8.6      1.767      2.260
REMARK  Name = 
REMARK  4 active torsions:
REMARK  status: ('A' for Active; 'I' for Inactive)
REMARK    1  A    between atoms: C_1  and  N_2
REMARK    2  A    between atoms: C_6  and  C_7
REMARK    3  A    between atoms: C_11  and  N_12
REMARK    4  A    between atoms: C_13  and  C_15
REMARK                            x       y       z     vdW  Elec       q    Type
REMARK                         _______ _______ _______ _____ _____    ______ ____
ROOT
ATOM      1  N   UNL     1       2.534   6.447  20.439  0.00  0.00    +0.000 N 
ATOM      2  C   UNL     1       1.824   5.269  20.621  0.00  0.00    +0.000 C 
ATOM      3  O   UNL     1       0.651   5.099  20.286  0.00  0.00    +0.000 OA
ATOM      4  H   UNL     1       3.548   6.398  20.455  0.00  0.00    +0.000 HD
ENDROOT
BRANCH   2   5
ATOM      5  C   UNL     1       2.593   4.122  21.241  0.00  0.00    +0.000 A 
ATOM      6  C   UNL     1       3.827   3.938  20.707  0.00  0.00    +0.000 A 
ATOM      7  C   UNL     1       3.668   3.517  19.288  0.00  0.00    +0.000 A 
ATOM      8  C   UNL     1       4.311   4.155  18.234  0.00  0.00    +0.000 A 
ATOM      9  C   UNL     1       3.913   3.855  16.931  0.00  0.00    +0.000 A 
ATOM     10  C   UNL     1       2.923   2.889  16.691  0.00  0.00    +0.000 A 
ATOM     11  C   UNL     1       2.327   2.196  17.748  0.00  0.00    +0.000 A 
ATOM     12  C   UNL     1       2.674   2.543  19.044  0.00  0.00    +0.000 A 
ATOM     13  N   UNL     1       1.946   2.058  20.154  0.00  0.00    +0.000 N 
ATOM     14  C   UNL     1       1.890   2.798  21.326  0.00  0.00    +0.000 A 
ATOM     15  O   UNL     1       1.211   2.485  22.295  0.00  0.00    +0.000 OA
ATOM     16  H   UNL     1       1.319   1.271  20.068  0.00  0.00    +0.000 HD
ENDBRANCH   2   5
BRANCH   1  21
ATOM     17  C   UNL     1       0.777   9.731  20.392  0.00  0.00    +0.000 A 
ATOM     18  C   UNL     1       1.139  10.171  19.111  0.00  0.00    +0.000 A 
ATOM     19  C   UNL     1       1.749   9.313  18.207  0.00  0.00    +0.000 A 
ATOM     20  C   UNL     1       2.117   8.038  18.615  0.00  0.00    +0.000 A 
ATOM     21  C   UNL     1       1.946   7.638  19.945  0.00  0.00    +0.000 A 
ATOM     22  C   UNL     1       1.206   8.455  20.807  0.00  0.00    +0.000 A 
BRANCH  17  28
ATOM     23  C   UNL     1      -1.656  11.644  19.693  0.00  0.00    +0.000 C 
ATOM     24  N   UNL     1      -1.021  11.437  20.969  0.00  0.00    +0.000 N 
ATOM     25  C   UNL     1      -1.429  12.022  22.128  0.00  0.00    +0.000 A 
ATOM     26  N   UNL     1      -0.720  11.562  23.133  0.00  0.00    +0.000 NA
ATOM     27  N   UNL     1       0.170  10.652  22.615  0.00  0.00    +0.000 NA
ATOM     28  C   UNL     1       0.012  10.590  21.300  0.00  0.00    +0.000 A 
ENDBRANCH  17  28
ENDBRANCH   1  21
TORSDOF 3
ENDMDL
MODEL 6
REMARK VINA RESULT:      -8.6      2.246      3.681
REMARK  Name = 
REMARK  4 active torsions:
REMARK  status: ('A' for Active; 'I' for Inactive)
REMARK    1  A    between atoms: C_1  and  N_2
REMARK    2  A    between atoms: C_6  and  C_7
REMARK    3  A    between atoms: C_11  and  N_12
REMARK    4  A    between atoms: C_13  and  C_15
REMARK                            x       y       z     vdW  Elec       q    Type
REMARK                         _______ _______ _______ _____ _____    ______ ____
ROOT
ATOM      1  N   UNL     1       2.904   7.124  18.451  0.00  0.00    +0.000 N 
ATOM      2  C   UNL     1       3.727   6.128  18.957  0.00  0.00    +0.000 C 
ATOM      3  O   UNL     1       3.776   5.794  20.141  0.00  0.00    +0.000 OA
ATOM      4  H   UNL     1       2.705   7.117  17.455  0.00  0.00    +0.000 HD
ENDROOT
BRANCH   2   5
ATOM      5  C   UNL     1       4.581   5.398  17.942  0.00  0.00    +0.000 A 
ATOM      6  C   UNL     1       3.864   4.716  17.013  0.00  0.00    +0.000 A 
ATOM      7  C   UNL     1       3.128   3.618  17.698  0.00  0.00    +0.000 A 
ATOM      8  C   UNL     1       1.759   3.426  17.561  0.00  0.00    +0.000 A 
ATOM      9  C   UNL     1       1.121   2.536  18.426  0.00  0.00    +0.000 A 
ATOM     10  C   UNL     1       1.858   1.810  19.374  0.00  0.00    +0.000 A 
ATOM     11  C   UNL     1       3.246   1.949  19.463  0.00  0.00    +0.000 A 
ATOM     12  C   UNL     1       3.869   2.884  18.651  0.00  0.00    +0.000 A 
ATOM     13  N   UNL     1       5.219   3.247  18.852  0.00  0.00    +0.000 N 
ATOM     14  C   UNL     1       5.664   4.507  18.480  0.00  0.00    +0.000 A 
ATOM     15  O   UNL     1       6.795   4.922  18.700  0.00  0.00    +0.000 OA
ATOM     16  H   UNL     1       5.838   2.682  19.417  0.00  0.00    +0.000 HD
ENDBRANCH   2   5
BRANCH   1  21
ATOM     17  C   UNL     1       0.596   9.864  19.470  0.00  0.00    +0.000 A 
ATOM     18  C   UNL     1       0.194   9.378  20.722  0.00  0.00    +0.000 A 
ATOM     19  C   UNL     1       0.841   8.299  21.310  0.00  0.00    +0.000 A 
ATOM     20  C   UNL     1       1.816   7.615  20.597  0.00  0.00    +0.000 A 
ATOM     21  C   UNL     1       2.101   7.955  19.270  0.00  0.00    +0.000 A 
ATOM     22  C   UNL     1       1.547   9.126  18.739  0.00  0.00    +0.000 A 
BRANCH  17  28
ATOM     23  C   UNL     1       1.799  12.801  19.477  0.00  0.00    +0.000 C 
ATOM     24  N   UNL     1       0.535  12.355  18.949  0.00  0.00    +0.000 N 
ATOM     25  C   UNL     1      -0.346  13.161  18.298  0.00  0.00    +0.000 A 
ATOM     26  N   UNL     1      -1.354  12.449  17.849  0.00  0.00    +0.000 NA
ATOM     27  N   UNL     1      -1.121  11.145  18.217  0.00  0.00    +0.000 NA
ATOM     28  C   UNL     1       0.009  11.083  18.907  0.00  0.00    +0.000 A 
ENDBRANCH  17  28
ENDBRANCH   1  21
TORSDOF 3
ENDMDL
MODEL 7
REMARK VINA RESULT:      -8.6      2.232      3.626
REMARK  Name = 
REMARK  4 active torsions:
REMARK  status: ('A' for Active; 'I' for Inactive)
REMARK    1  A    between atoms: C_1  and  N_2
REMARK    2  A    between atoms: C_6  and  C_7
REMARK    3  A    between atoms: C_11  and  N_12
REMARK    4  A    between atoms: C_13  and  C_15
REMARK                            x       y       z     vdW  Elec       q    Type
REMARK                         _______ _______ _______ _____ _____    ______ ____
ROOT
ATOM      1  N   UNL     1       2.864   6.959  18.410  0.00  0.00    +0.000 N 
ATOM      2  C   UNL     1       3.832   6.084  18.883  0.00  0.00    +0.000 C 
ATOM      3  O   UNL     1       4.081   5.891  20.073  0.00  0.00    +0.000 OA
ATOM      4  H   UNL     1       2.524   6.826  17.463  0.00  0.00    +0.000 HD
ENDROOT
BRANCH   2   5
ATOM      5  C   UNL     1       4.585   5.301  17.829  0.00  0.00    +0.000 A 
ATOM      6  C   UNL     1       3.781   4.652  16.949  0.00  0.00    +0.000 A 
ATOM      7  C   UNL     1       3.027   3.601  17.687  0.00  0.00    +0.000 A 
ATOM      8  C   UNL     1       1.643   3.483  17.630  0.00  0.00    +0.000 A 
ATOM      9  C   UNL     1       1.009   2.636  18.540  0.00  0.00    +0.000 A 
ATOM     10  C   UNL     1       1.759   1.878  19.452  0.00  0.00    +0.000 A 
ATOM     11  C   UNL     1       3.155   1.942  19.460  0.00  0.00    +0.000 A 
ATOM     12  C   UNL     1       3.780   2.835  18.604  0.00  0.00    +0.000 A 
ATOM     13  N   UNL     1       5.157   3.125  18.723  0.00  0.00    +0.000 N 
ATOM     14  C   UNL     1       5.648   4.356  18.313  0.00  0.00    +0.000 A 
ATOM     15  O   UNL     1       6.810   4.710  18.465  0.00  0.00    +0.000 OA
ATOM     16  H   UNL     1       5.776   2.531  19.258  0.00  0.00    +0.000 HD
ENDBRANCH   2   5
BRANCH   1  21
ATOM     17  C   UNL     1       0.701   9.790  19.498  0.00  0.00    +0.000 A 
ATOM     18  C   UNL     1       0.328   9.324  20.767  0.00  0.00    +0.000 A 
ATOM     19  C   UNL     1       0.954   8.224  21.337  0.00  0.00    +0.000 A 
ATOM     20  C   UNL     1       1.876   7.500  20.593  0.00  0.00    +0.000 A 
ATOM     21  C   UNL     1       2.124   7.824  19.254  0.00  0.00    +0.000 A 
ATOM     22  C   UNL     1       1.596   9.013  18.737  0.00  0.00    +0.000 A 
BRANCH  17  28
ATOM     23  C   UNL     1      -1.973  10.160  17.830  0.00  0.00    +0.000 C 
ATOM     24  N   UNL     1      -1.007  11.161  18.203  0.00  0.00    +0.000 N 
ATOM     25  C   UNL     1      -1.137  12.487  17.923  0.00  0.00    +0.000 A 
ATOM     26  N   UNL     1      -0.152  13.157  18.476  0.00  0.00    +0.000 NA
ATOM     27  N   UNL     1       0.637  12.243  19.135  0.00  0.00    +0.000 NA
ATOM     28  C   UNL     1       0.140  11.028  18.951  0.00  0.00    +0.000 A 
ENDBRANCH  17  28
ENDBRANCH   1  21
TORSDOF 3
ENDMDL
MODEL 8
REMARK VINA RESULT:      -8.5      2.295      3.931
REMARK  Name = 
REMARK  4 active torsions:
REMARK  status: ('A' for Active; 'I' for Inactive)
REMARK    1  A    between atoms: C_1  and  N_2
REMARK    2  A    between atoms: C_6  and  C_7
REMARK    3  A    between atoms: C_11  and  N_12
REMARK    4  A    between atoms: C_13  and  C_15
REMARK                            x       y       z     vdW  Elec       q    Type
REMARK                         _______ _______ _______ _____ _____    ______ ____
ROOT
ATOM      1  N   UNL     1       1.966   6.770  18.703  0.00  0.00    +0.000 N 
ATOM      2  C   UNL     1       3.213   6.162  18.674  0.00  0.00    +0.000 C 
ATOM      3  O   UNL     1       4.150   6.447  19.422  0.00  0.00    +0.000 OA
ATOM      4  H   UNL     1       1.186   6.276  18.281  0.00  0.00    +0.000 HD
ENDROOT
BRANCH   2   5
ATOM      5  C   UNL     1       3.381   5.048  17.664  0.00  0.00    +0.000 A 
ATOM      6  C   UNL     1       2.337   4.181  17.625  0.00  0.00    +0.000 A 
ATOM      7  C   UNL     1       2.274   3.461  18.926  0.00  0.00    +0.000 A 
ATOM      8  C   UNL     1       1.119   3.388  19.695  0.00  0.00    +0.000 A 
ATOM      9  C   UNL     1       1.218   2.911  21.002  0.00  0.00    +0.000 A 
ATOM     10  C   UNL     1       2.447   2.461  21.508  0.00  0.00    +0.000 A 
ATOM     11  C   UNL     1       3.595   2.467  20.710  0.00  0.00    +0.000 A 
ATOM     12  C   UNL     1       3.511   3.005  19.436  0.00  0.00    +0.000 A 
ATOM     13  N   UNL     1       4.669   3.261  18.669  0.00  0.00    +0.000 N 
ATOM     14  C   UNL     1       4.665   4.270  17.716  0.00  0.00    +0.000 A 
ATOM     15  O   UNL     1       5.654   4.605  17.077  0.00  0.00    +0.000 OA
ATOM     16  H   UNL     1       5.561   2.849  18.908  0.00  0.00    +0.000 HD
ENDBRANCH   2   5
BRANCH   1  21
ATOM     17  C   UNL     1       0.765  10.135  19.756  0.00  0.00    +0.000 A 
ATOM     18  C   UNL     1       0.672   9.928  21.139  0.00  0.00    +0.000 A 
ATOM     19  C   UNL     1       1.208   8.791  21.728  0.00  0.00    +0.000 A 
ATOM     20  C   UNL     1       1.734   7.788  20.926  0.00  0.00    +0.000 A 
ATOM     21  C   UNL     1       1.665   7.880  19.532  0.00  0.00    +0.000 A 
ATOM     22  C   UNL     1       1.253   9.085  18.953  0.00  0.00    +0.000 A 
BRANCH  17  28
ATOM     23  C   UNL     1       2.280  12.923  19.703  0.00  0.00    +0.000 C 
ATOM     24  N   UNL     1       0.984  12.601  19.163  0.00  0.00    +0.000 N 
ATOM     25  C   UNL     1       0.207  13.478  18.472  0.00  0.00    +0.000 A 
ATOM     26  N   UNL     1      -0.865  12.865  18.024  0.00  0.00    +0.000 NA
ATOM     27  N   UNL     1      -0.781  11.555  18.433  0.00  0.00    +0.000 NA
ATOM     28  C   UNL     1       0.324  11.393  19.147  0.00  0.00    +0.000 A 
ENDBRANCH  17  28
ENDBRANCH   1  21
TORSDOF 3
ENDMDL
MODEL 9
REMARK VINA RESULT:      -8.4      1.151      1.365
REMARK  Name = 
REMARK  4 active torsions:
REMARK  status: ('A' for Active; 'I' for Inactive)
REMARK    1  A    between atoms: C_1  and  N_2
REMARK    2  A    between atoms: C_6  and  C_7
REMARK    3  A    between atoms: C_11  and  N_12
REMARK    4  A    between atoms: C_13  and  C_15
REMARK                            x       y       z     vdW  Elec       q    Type
REMARK                         _______ _______ _______ _____ _____    ______ ____
ROOT
ATOM      1  N   UNL     1       2.426   6.218  18.296  0.00  0.00    +0.000 N 
ATOM      2  C   UNL     1       3.148   5.476  19.220  0.00  0.00    +0.000 C 
ATOM      3  O   UNL     1       3.429   5.854  20.358  0.00  0.00    +0.000 OA
ATOM      4  H   UNL     1       1.987   5.723  17.526  0.00  0.00    +0.000 HD
ENDROOT
BRANCH   2   5
ATOM      5  C   UNL     1       3.567   4.092  18.772  0.00  0.00    +0.000 A 
ATOM      6  C   UNL     1       4.818   3.743  19.168  0.00  0.00    +0.000 A 
ATOM      7  C   UNL     1       5.794   4.636  18.486  0.00  0.00    +0.000 A 
ATOM      8  C   UNL     1       6.768   5.353  19.169  0.00  0.00    +0.000 A 
ATOM      9  C   UNL     1       7.470   6.345  18.483  0.00  0.00    +0.000 A 
ATOM     10  C   UNL     1       7.234   6.572  17.118  0.00  0.00    +0.000 A 
ATOM     11  C   UNL     1       6.306   5.802  16.413  0.00  0.00    +0.000 A 
ATOM     12  C   UNL     1       5.560   4.864  17.111  0.00  0.00    +0.000 A 
ATOM     13  N   UNL     1       4.448   4.224  16.521  0.00  0.00    +0.000 N 
ATOM     14  C   UNL     1       3.404   3.770  17.314  0.00  0.00    +0.000 A 
ATOM     15  O   UNL     1       2.372   3.285  16.869  0.00  0.00    +0.000 OA
ATOM     16  H   UNL     1       4.302   4.238  15.521  0.00  0.00    +0.000 HD
ENDBRANCH   2   5
BRANCH   1  21
ATOM     17  C   UNL     1       1.226   9.266  20.070  0.00  0.00    +0.000 A 
ATOM     18  C   UNL     1       1.617  10.244  19.145  0.00  0.00    +0.000 A 
ATOM     19  C   UNL     1       2.051   9.891  17.875  0.00  0.00    +0.000 A 
ATOM     20  C   UNL     1       2.220   8.551  17.556  0.00  0.00    +0.000 A 
ATOM     21  C   UNL     1       2.025   7.558  18.523  0.00  0.00    +0.000 A 
ATOM     22  C   UNL     1       1.455   7.913  19.751  0.00  0.00    +0.000 A 
BRANCH  17  28
ATOM     23  C   UNL     1      -1.185  11.253  20.627  0.00  0.00    +0.000 C 
ATOM     24  N   UNL     1      -0.388  10.525  21.582  0.00  0.00    +0.000 N 
ATOM     25  C   UNL     1      -0.601  10.547  22.926  0.00  0.00    +0.000 A 
ATOM     26  N   UNL     1       0.219   9.710  23.520  0.00  0.00    +0.000 NA
ATOM     27  N   UNL     1       0.983   9.127  22.536  0.00  0.00    +0.000 NA
ATOM     28  C   UNL     1       0.639   9.636  21.360  0.00  0.00    +0.000 A 
ENDBRANCH  17  28
ENDBRANCH   1  21
TORSDOF 3
ENDMDL
