MODEL 1
REMARK VINA RESULT:      -9.3      0.000      0.000
REMARK  Name = 
REMARK  2 active torsions:
REMARK  status: ('A' for Active; 'I' for Inactive)
REMARK    1  A    between atoms: C_2  and  C_16
REMARK    2  A    between atoms: N_3  and  C_4
REMARK                            x       y       z     vdW  Elec       q    Type
REMARK                         _______ _______ _______ _____ _____    ______ ____
ROOT
ATOM      1  O   UNL     1       1.614   8.747  17.723  0.00  0.00    +0.000 OA
ATOM      2  C   UNL     1       1.818   8.342  18.860  0.00  0.00    +0.000 C 
ATOM      3  N   UNL     1       2.557   7.229  19.212  0.00  0.00    +0.000 N 
ATOM      4  H   UNL     1       2.320   6.780  20.090  0.00  0.00    +0.000 HD
ENDROOT
BRANCH   3   5
ATOM      5  C   UNL     1       3.319   6.464  18.309  0.00  0.00    +0.000 A 
ATOM      6  C   UNL     1       4.545   6.894  17.810  0.00  0.00    +0.000 A 
ATOM      7  C   UNL     1       5.286   6.030  16.997  0.00  0.00    +0.000 A 
ATOM      8  C   UNL     1       6.651   6.378  16.554  0.00  0.00    +0.000 A 
ATOM      9  O   UNL     1       7.191   7.434  16.859  0.00  0.00    +0.000 OA
ATOM     10  N   UNL     1       7.291   5.424  15.804  0.00  0.00    +0.000 N 
ATOM     11  C   UNL     1       6.710   4.240  15.456  0.00  0.00    +0.000 A 
ATOM     12  N   UNL     1       5.522   3.886  15.806  0.00  0.00    +0.000 NA
ATOM     13  C   UNL     1       4.792   4.773  16.618  0.00  0.00    +0.000 A 
ATOM     14  C   UNL     1       3.547   4.368  17.093  0.00  0.00    +0.000 A 
ATOM     15  C   UNL     1       2.840   5.197  17.959  0.00  0.00    +0.000 A 
ATOM     16  F   UNL     1       1.661   4.778  18.444  0.00  0.00    +0.000 F 
ATOM     17  H   UNL     1       8.233   5.644  15.514  0.00  0.00    +0.000 HD
ENDBRANCH   3   5
BRANCH   2  18
ATOM     18  C   UNL     1       1.151   8.997  20.004  0.00  0.00    +0.000 A 
ATOM     19  C   UNL     1       1.319   8.486  21.292  0.00  0.00    +0.000 A 
ATOM     20  C   UNL     1       0.646   9.084  22.359  0.00  0.00    +0.000 A 
ATOM     21  C   UNL     1      -0.208  10.165  22.172  0.00  0.00    +0.000 A 
ATOM     22  N   UNL     1      -0.867  10.665  23.227  0.00  0.00    +0.000 NA
ATOM     23  C   UNL     1      -1.713  11.695  23.014  0.00  0.00    +0.000 A 
ATOM     24  C   UNL     1      -1.928  12.275  21.778  0.00  0.00    +0.000 A 
ATOM     25  C   UNL     1      -1.232  11.766  20.689  0.00  0.00    +0.000 A 
ATOM     26  C   UNL     1      -0.357  10.686  20.866  0.00  0.00    +0.000 A 
ATOM     27  C   UNL     1       0.338  10.110  19.788  0.00  0.00    +0.000 A 
ENDBRANCH   2  18
TORSDOF 2
ENDMDL
MODEL 2
REMARK VINA RESULT:      -8.9      0.818      1.538
REMARK  Name = 
REMARK  2 active torsions:
REMARK  status: ('A' for Active; 'I' for Inactive)
REMARK    1  A    between atoms: C_2  and  C_16
REMARK    2  A    between atoms: N_3  and  C_4
REMARK                            x       y       z     vdW  Elec       q    Type
REMARK                         _______ _______ _______ _____ _____    ______ ____
ROOT
ATOM      1  O   UNL     1       2.167   9.140  17.007  0.00  0.00    +0.000 OA
ATOM      2  C   UNL     1       2.017   8.751  18.158  0.00  0.00    +0.000 C 
ATOM      3  N   UNL     1       2.475   7.559  18.686  0.00  0.00    +0.000 N 
ATOM      4  H   UNL     1       1.962   7.180  19.473  0.00  0.00    +0.000 HD
ENDROOT
BRANCH   3   5
ATOM      5  C   UNL     1       3.323   6.664  18.006  0.00  0.00    +0.000 A 
ATOM      6  C   UNL     1       4.608   7.010  17.600  0.00  0.00    +0.000 A 
ATOM      7  C   UNL     1       5.422   6.031  17.022  0.00  0.00    +0.000 A 
ATOM      8  C   UNL     1       6.837   6.303  16.700  0.00  0.00    +0.000 A 
ATOM      9  O   UNL     1       7.359   7.391  16.906  0.00  0.00    +0.000 OA
ATOM     10  N   UNL     1       7.541   5.245  16.184  0.00  0.00    +0.000 N 
ATOM     11  C   UNL     1       6.981   4.023  15.950  0.00  0.00    +0.000 A 
ATOM     12  N   UNL     1       5.752   3.730  16.203  0.00  0.00    +0.000 NA
ATOM     13  C   UNL     1       4.950   4.732  16.778  0.00  0.00    +0.000 A 
ATOM     14  C   UNL     1       3.649   4.408  17.155  0.00  0.00    +0.000 A 
ATOM     15  C   UNL     1       2.861   5.360  17.795  0.00  0.00    +0.000 A 
ATOM     16  F   UNL     1       1.624   5.023  18.191  0.00  0.00    +0.000 F 
ATOM     17  H   UNL     1       8.515   5.415  15.981  0.00  0.00    +0.000 HD
ENDBRANCH   3   5
BRANCH   2  18
ATOM     18  C   UNL     1       1.184   9.533  19.094  0.00  0.00    +0.000 A 
ATOM     19  C   UNL     1       0.757  10.814  18.741  0.00  0.00    +0.000 A 
ATOM     20  C   UNL     1       0.010  11.564  19.652  0.00  0.00    +0.000 A 
ATOM     21  C   UNL     1      -0.304  11.076  20.915  0.00  0.00    +0.000 A 
ATOM     22  N   UNL     1      -0.979  11.861  21.767  0.00  0.00    +0.000 NA
ATOM     23  C   UNL     1      -1.246  11.377  22.999  0.00  0.00    +0.000 A 
ATOM     24  C   UNL     1      -0.878  10.116  23.428  0.00  0.00    +0.000 A 
ATOM     25  C   UNL     1      -0.192   9.298  22.540  0.00  0.00    +0.000 A 
ATOM     26  C   UNL     1       0.119   9.771  21.257  0.00  0.00    +0.000 A 
ATOM     27  C   UNL     1       0.847   8.996  20.336  0.00  0.00    +0.000 A 
ENDBRANCH   2  18
TORSDOF 2
ENDMDL
MODEL 3
REMARK VINA RESULT:      -8.7      2.142      8.590
REMARK  Name = 
REMARK  2 active torsions:
REMARK  status: ('A' for Active; 'I' for Inactive)
REMARK    1  A    between atoms: C_2  and  C_16
REMARK    2  A    between atoms: N_3  and  C_4
REMARK                            x       y       z     vdW  Elec       q    Type
REMARK                         _______ _______ _______ _____ _____    ______ ____
ROOT
ATOM      1  O   UNL     1       1.688   6.127  20.325  0.00  0.00    +0.000 OA
ATOM      2  C   UNL     1       2.410   6.749  19.556  0.00  0.00    +0.000 C 
ATOM      3  N   UNL     1       2.224   8.049  19.128  0.00  0.00    +0.000 N 
ATOM      4  H   UNL     1       2.620   8.296  18.228  0.00  0.00    +0.000 HD
ENDROOT
BRANCH   3   5
ATOM      5  C   UNL     1       1.238   8.917  19.634  0.00  0.00    +0.000 A 
ATOM      6  C   UNL     1       0.953   9.020  20.992  0.00  0.00    +0.000 A 
ATOM      7  C   UNL     1       0.031   9.980  21.420  0.00  0.00    +0.000 A 
ATOM      8  C   UNL     1      -0.206  10.226  22.857  0.00  0.00    +0.000 A 
ATOM      9  O   UNL     1       0.373   9.600  23.734  0.00  0.00    +0.000 OA
ATOM     10  N   UNL     1      -1.097  11.229  23.146  0.00  0.00    +0.000 N 
ATOM     11  C   UNL     1      -1.751  11.942  22.184  0.00  0.00    +0.000 A 
ATOM     12  N   UNL     1      -1.590  11.765  20.917  0.00  0.00    +0.000 NA
ATOM     13  C   UNL     1      -0.663  10.790  20.510  0.00  0.00    +0.000 A 
ATOM     14  C   UNL     1      -0.397  10.653  19.149  0.00  0.00    +0.000 A 
ATOM     15  C   UNL     1       0.572   9.749  18.726  0.00  0.00    +0.000 A 
ATOM     16  F   UNL     1       0.850   9.656  17.417  0.00  0.00    +0.000 F 
ATOM     17  H   UNL     1      -1.250  11.420  24.125  0.00  0.00    +0.000 HD
ENDBRANCH   3   5
BRANCH   2  18
ATOM     18  C   UNL     1       3.547   6.067  18.904  0.00  0.00    +0.000 A 
ATOM     19  C   UNL     1       4.398   5.257  19.659  0.00  0.00    +0.000 A 
ATOM     20  C   UNL     1       5.497   4.656  19.043  0.00  0.00    +0.000 A 
ATOM     21  C   UNL     1       5.782   4.858  17.697  0.00  0.00    +0.000 A 
ATOM     22  N   UNL     1       6.880   4.296  17.172  0.00  0.00    +0.000 NA
ATOM     23  C   UNL     1       7.152   4.532  15.871  0.00  0.00    +0.000 A 
ATOM     24  C   UNL     1       6.358   5.305  15.045  0.00  0.00    +0.000 A 
ATOM     25  C   UNL     1       5.213   5.874  15.586  0.00  0.00    +0.000 A 
ATOM     26  C   UNL     1       4.905   5.666  16.938  0.00  0.00    +0.000 A 
ATOM     27  C   UNL     1       3.779   6.253  17.542  0.00  0.00    +0.000 A 
ENDBRANCH   2  18
TORSDOF 2
ENDMDL
MODEL 4
REMARK VINA RESULT:      -8.3      2.423      2.951
REMARK  Name = 
REMARK  2 active torsions:
REMARK  status: ('A' for Active; 'I' for Inactive)
REMARK    1  A    between atoms: C_2  and  C_16
REMARK    2  A    between atoms: N_3  and  C_4
REMARK                            x       y       z     vdW  Elec       q    Type
REMARK                         _______ _______ _______ _____ _____    ______ ____
ROOT
ATOM      1  O   UNL     1       2.534   9.889  17.640  0.00  0.00    +0.000 OA
ATOM      2  C   UNL     1       1.589   9.337  18.188  0.00  0.00    +0.000 C 
ATOM      3  N   UNL     1       1.524   8.010  18.568  0.00  0.00    +0.000 N 
ATOM      4  H   UNL     1       0.602   7.593  18.621  0.00  0.00    +0.000 HD
ENDROOT
BRANCH   3   5
ATOM      5  C   UNL     1       2.609   7.114  18.511  0.00  0.00    +0.000 A 
ATOM      6  C   UNL     1       3.474   7.051  17.422  0.00  0.00    +0.000 A 
ATOM      7  C   UNL     1       4.585   6.205  17.489  0.00  0.00    +0.000 A 
ATOM      8  C   UNL     1       5.609   6.201  16.425  0.00  0.00    +0.000 A 
ATOM      9  O   UNL     1       5.529   6.917  15.435  0.00  0.00    +0.000 OA
ATOM     10  N   UNL     1       6.676   5.364  16.633  0.00  0.00    +0.000 N 
ATOM     11  C   UNL     1       6.786   4.560  17.730  0.00  0.00    +0.000 A 
ATOM     12  N   UNL     1       5.922   4.517  18.685  0.00  0.00    +0.000 NA
ATOM     13  C   UNL     1       4.809   5.371  18.594  0.00  0.00    +0.000 A 
ATOM     14  C   UNL     1       3.916   5.415  19.662  0.00  0.00    +0.000 A 
ATOM     15  C   UNL     1       2.849   6.308  19.629  0.00  0.00    +0.000 A 
ATOM     16  F   UNL     1       2.019   6.371  20.682  0.00  0.00    +0.000 F 
ATOM     17  H   UNL     1       7.391   5.369  15.922  0.00  0.00    +0.000 HD
ENDBRANCH   3   5
BRANCH   2  18
ATOM     18  C   UNL     1       0.327  10.076  18.396  0.00  0.00    +0.000 A 
ATOM     19  C   UNL     1       0.266  11.093  19.349  0.00  0.00    +0.000 A 
ATOM     20  C   UNL     1      -0.945  11.753  19.571  0.00  0.00    +0.000 A 
ATOM     21  C   UNL     1      -2.102  11.409  18.881  0.00  0.00    +0.000 A 
ATOM     22  N   UNL     1      -3.247  12.042  19.173  0.00  0.00    +0.000 NA
ATOM     23  C   UNL     1      -4.363  11.670  18.511  0.00  0.00    +0.000 A 
ATOM     24  C   UNL     1      -4.392  10.687  17.540  0.00  0.00    +0.000 A 
ATOM     25  C   UNL     1      -3.202  10.042  17.228  0.00  0.00    +0.000 A 
ATOM     26  C   UNL     1      -2.025  10.389  17.905  0.00  0.00    +0.000 A 
ATOM     27  C   UNL     1      -0.804   9.738  17.653  0.00  0.00    +0.000 A 
ENDBRANCH   2  18
TORSDOF 2
ENDMDL
MODEL 5
REMARK VINA RESULT:      -8.2      1.091      1.606
REMARK  Name = 
REMARK  2 active torsions:
REMARK  status: ('A' for Active; 'I' for Inactive)
REMARK    1  A    between atoms: C_2  and  C_16
REMARK    2  A    between atoms: N_3  and  C_4
REMARK                            x       y       z     vdW  Elec       q    Type
REMARK                         _______ _______ _______ _____ _____    ______ ____
ROOT
ATOM      1  O   UNL     1       2.264   7.081  20.628  0.00  0.00    +0.000 OA
ATOM      2  C   UNL     1       1.899   7.851  19.750  0.00  0.00    +0.000 C 
ATOM      3  N   UNL     1       2.368   7.895  18.452  0.00  0.00    +0.000 N 
ATOM      4  H   UNL     1       2.305   8.785  17.971  0.00  0.00    +0.000 HD
ENDROOT
BRANCH   3   5
ATOM      5  C   UNL     1       3.247   6.948  17.894  0.00  0.00    +0.000 A 
ATOM      6  C   UNL     1       4.554   7.259  17.530  0.00  0.00    +0.000 A 
ATOM      7  C   UNL     1       5.393   6.236  17.077  0.00  0.00    +0.000 A 
ATOM      8  C   UNL     1       6.825   6.482  16.810  0.00  0.00    +0.000 A 
ATOM      9  O   UNL     1       7.339   7.583  16.955  0.00  0.00    +0.000 OA
ATOM     10  N   UNL     1       7.550   5.385  16.421  0.00  0.00    +0.000 N 
ATOM     11  C   UNL     1       6.998   4.148  16.258  0.00  0.00    +0.000 A 
ATOM     12  N   UNL     1       5.756   3.877  16.468  0.00  0.00    +0.000 NA
ATOM     13  C   UNL     1       4.930   4.922  16.916  0.00  0.00    +0.000 A 
ATOM     14  C   UNL     1       3.609   4.630  17.248  0.00  0.00    +0.000 A 
ATOM     15  C   UNL     1       2.792   5.630  17.766  0.00  0.00    +0.000 A 
ATOM     16  F   UNL     1       1.535   5.327  18.121  0.00  0.00    +0.000 F 
ATOM     17  H   UNL     1       8.535   5.538  16.257  0.00  0.00    +0.000 HD
ENDBRANCH   3   5
BRANCH   2  18
ATOM     18  C   UNL     1       0.946   8.933  20.073  0.00  0.00    +0.000 A 
ATOM     19  C   UNL     1       0.552   9.831  19.080  0.00  0.00    +0.000 A 
ATOM     20  C   UNL     1      -0.312  10.879  19.406  0.00  0.00    +0.000 A 
ATOM     21  C   UNL     1      -0.776  11.067  20.703  0.00  0.00    +0.000 A 
ATOM     22  N   UNL     1      -1.562  12.120  20.968  0.00  0.00    +0.000 NA
ATOM     23  C   UNL     1      -1.974  12.298  22.241  0.00  0.00    +0.000 A 
ATOM     24  C   UNL     1      -1.648  11.451  23.283  0.00  0.00    +0.000 A 
ATOM     25  C   UNL     1      -0.847  10.352  23.004  0.00  0.00    +0.000 A 
ATOM     26  C   UNL     1      -0.384  10.142  21.698  0.00  0.00    +0.000 A 
ATOM     27  C   UNL     1       0.462   9.066  21.374  0.00  0.00    +0.000 A 
ENDBRANCH   2  18
TORSDOF 2
ENDMDL
MODEL 6
REMARK VINA RESULT:      -8.1      1.039      1.073
REMARK  Name = 
REMARK  2 active torsions:
REMARK  status: ('A' for Active; 'I' for Inactive)
REMARK    1  A    between atoms: C_2  and  C_16
REMARK    2  A    between atoms: N_3  and  C_4
REMARK                            x       y       z     vdW  Elec       q    Type
REMARK                         _______ _______ _______ _____ _____    ______ ____
ROOT
ATOM      1  O   UNL     1       1.825   8.695  18.106  0.00  0.00    +0.000 OA
ATOM      2  C   UNL     1       1.809   8.265  19.252  0.00  0.00    +0.000 C 
ATOM      3  N   UNL     1       2.309   7.049  19.677  0.00  0.00    +0.000 N 
ATOM      4  H   UNL     1       1.888   6.645  20.506  0.00  0.00    +0.000 HD
ENDROOT
BRANCH   3   5
ATOM      5  C   UNL     1       3.055   6.171  18.868  0.00  0.00    +0.000 A 
ATOM      6  C   UNL     1       3.624   6.565  17.660  0.00  0.00    +0.000 A 
ATOM      7  C   UNL     1       4.435   5.660  16.967  0.00  0.00    +0.000 A 
ATOM      8  C   UNL     1       5.174   6.068  15.755  0.00  0.00    +0.000 A 
ATOM      9  O   UNL     1       5.102   7.198  15.292  0.00  0.00    +0.000 OA
ATOM     10  N   UNL     1       5.975   5.103  15.199  0.00  0.00    +0.000 N 
ATOM     11  C   UNL     1       6.073   3.838  15.700  0.00  0.00    +0.000 A 
ATOM     12  N   UNL     1       5.448   3.425  16.748  0.00  0.00    +0.000 NA
ATOM     13  C   UNL     1       4.632   4.349  17.425  0.00  0.00    +0.000 A 
ATOM     14  C   UNL     1       4.028   3.955  18.617  0.00  0.00    +0.000 A 
ATOM     15  C   UNL     1       3.278   4.874  19.344  0.00  0.00    +0.000 A 
ATOM     16  F   UNL     1       2.736   4.495  20.511  0.00  0.00    +0.000 F 
ATOM     17  H   UNL     1       6.500   5.378  14.382  0.00  0.00    +0.000 HD
ENDBRANCH   3   5
BRANCH   2  18
ATOM     18  C   UNL     1       1.106   9.019  20.310  0.00  0.00    +0.000 A 
ATOM     19  C   UNL     1       1.242   8.635  21.645  0.00  0.00    +0.000 A 
ATOM     20  C   UNL     1       0.535   9.325  22.632  0.00  0.00    +0.000 A 
ATOM     21  C   UNL     1      -0.320  10.375  22.320  0.00  0.00    +0.000 A 
ATOM     22  N   UNL     1      -1.012  10.967  23.304  0.00  0.00    +0.000 NA
ATOM     23  C   UNL     1      -1.859  11.965  22.972  0.00  0.00    +0.000 A 
ATOM     24  C   UNL     1      -2.042  12.422  21.681  0.00  0.00    +0.000 A 
ATOM     25  C   UNL     1      -1.314  11.819  20.664  0.00  0.00    +0.000 A 
ATOM     26  C   UNL     1      -0.437  10.768  20.966  0.00  0.00    +0.000 A 
ATOM     27  C   UNL     1       0.292  10.099  19.967  0.00  0.00    +0.000 A 
ENDBRANCH   2  18
TORSDOF 2
ENDMDL
MODEL 7
REMARK VINA RESULT:      -8.1      2.295      8.631
REMARK  Name = 
REMARK  2 active torsions:
REMARK  status: ('A' for Active; 'I' for Inactive)
REMARK    1  A    between atoms: C_2  and  C_16
REMARK    2  A    between atoms: N_3  and  C_4
REMARK                            x       y       z     vdW  Elec       q    Type
REMARK                         _______ _______ _______ _____ _____    ______ ____
ROOT
ATOM      1  O   UNL     1       2.227   9.401  17.491  0.00  0.00    +0.000 OA
ATOM      2  C   UNL     1       2.028   8.482  18.274  0.00  0.00    +0.000 C 
ATOM      3  N   UNL     1       1.311   8.552  19.453  0.00  0.00    +0.000 N 
ATOM      4  H   UNL     1       1.555   7.886  20.178  0.00  0.00    +0.000 HD
ENDROOT
BRANCH   3   5
ATOM      5  C   UNL     1       0.567   9.673  19.864  0.00  0.00    +0.000 A 
ATOM      6  C   UNL     1      -0.367  10.297  19.041  0.00  0.00    +0.000 A 
ATOM      7  C   UNL     1      -1.137  11.342  19.561  0.00  0.00    +0.000 A 
ATOM      8  C   UNL     1      -2.235  11.946  18.780  0.00  0.00    +0.000 A 
ATOM      9  O   UNL     1      -2.514  11.578  17.647  0.00  0.00    +0.000 OA
ATOM     10  N   UNL     1      -2.947  12.927  19.422  0.00  0.00    +0.000 N 
ATOM     11  C   UNL     1      -2.657  13.350  20.686  0.00  0.00    +0.000 A 
ATOM     12  N   UNL     1      -1.708  12.866  21.411  0.00  0.00    +0.000 NA
ATOM     13  C   UNL     1      -0.942  11.821  20.865  0.00  0.00    +0.000 A 
ATOM     14  C   UNL     1       0.021  11.213  21.667  0.00  0.00    +0.000 A 
ATOM     15  C   UNL     1       0.739  10.127  21.176  0.00  0.00    +0.000 A 
ATOM     16  F   UNL     1       1.635   9.524  21.973  0.00  0.00    +0.000 F 
ATOM     17  H   UNL     1      -3.714  13.331  18.904  0.00  0.00    +0.000 HD
ENDBRANCH   3   5
BRANCH   2  18
ATOM     18  C   UNL     1       2.680   7.175  18.052  0.00  0.00    +0.000 A 
ATOM     19  C   UNL     1       3.974   7.123  17.533  0.00  0.00    +0.000 A 
ATOM     20  C   UNL     1       4.563   5.882  17.283  0.00  0.00    +0.000 A 
ATOM     21  C   UNL     1       3.885   4.691  17.516  0.00  0.00    +0.000 A 
ATOM     22  N   UNL     1       4.481   3.530  17.208  0.00  0.00    +0.000 NA
ATOM     23  C   UNL     1       3.791   2.388  17.415  0.00  0.00    +0.000 A 
ATOM     24  C   UNL     1       2.513   2.344  17.941  0.00  0.00    +0.000 A 
ATOM     25  C   UNL     1       1.903   3.546  18.274  0.00  0.00    +0.000 A 
ATOM     26  C   UNL     1       2.580   4.754  18.058  0.00  0.00    +0.000 A 
ATOM     27  C   UNL     1       1.989   5.998  18.341  0.00  0.00    +0.000 A 
ENDBRANCH   2  18
TORSDOF 2
ENDMDL
MODEL 8
REMARK VINA RESULT:      -8.0      1.076      1.166
REMARK  Name = 
REMARK  2 active torsions:
REMARK  status: ('A' for Active; 'I' for Inactive)
REMARK    1  A    between atoms: C_2  and  C_16
REMARK    2  A    between atoms: N_3  and  C_4
REMARK                            x       y       z     vdW  Elec       q    Type
REMARK                         _______ _______ _______ _____ _____    ______ ____
ROOT
ATOM      1  O   UNL     1       2.355   6.483  20.751  0.00  0.00    +0.000 OA
ATOM      2  C   UNL     1       2.069   7.426  20.025  0.00  0.00    +0.000 C 
ATOM      3  N   UNL     1       2.538   7.647  18.745  0.00  0.00    +0.000 N 
ATOM      4  H   UNL     1       2.565   8.609  18.426  0.00  0.00    +0.000 HD
ENDROOT
BRANCH   3   5
ATOM      5  C   UNL     1       3.316   6.727  18.015  0.00  0.00    +0.000 A 
ATOM      6  C   UNL     1       4.611   7.010  17.591  0.00  0.00    +0.000 A 
ATOM      7  C   UNL     1       5.352   6.005  16.960  0.00  0.00    +0.000 A 
ATOM      8  C   UNL     1       6.773   6.204  16.615  0.00  0.00    +0.000 A 
ATOM      9  O   UNL     1       7.364   7.251  16.846  0.00  0.00    +0.000 OA
ATOM     10  N   UNL     1       7.401   5.125  16.047  0.00  0.00    +0.000 N 
ATOM     11  C   UNL     1       6.763   3.947  15.785  0.00  0.00    +0.000 A 
ATOM     12  N   UNL     1       5.524   3.720  16.057  0.00  0.00    +0.000 NA
ATOM     13  C   UNL     1       4.797   4.747  16.684  0.00  0.00    +0.000 A 
ATOM     14  C   UNL     1       3.487   4.487  17.081  0.00  0.00    +0.000 A 
ATOM     15  C   UNL     1       2.772   5.461  17.771  0.00  0.00    +0.000 A 
ATOM     16  F   UNL     1       1.526   5.185  18.185  0.00  0.00    +0.000 F 
ATOM     17  H   UNL     1       8.379   5.243  15.827  0.00  0.00    +0.000 HD
ENDBRANCH   3   5
BRANCH   2  18
ATOM     18  C   UNL     1       1.231   8.525  20.548  0.00  0.00    +0.000 A 
ATOM     19  C   UNL     1       1.007   8.636  21.921  0.00  0.00    +0.000 A 
ATOM     20  C   UNL     1       0.176   9.650  22.400  0.00  0.00    +0.000 A 
ATOM     21  C   UNL     1      -0.456  10.543  21.543  0.00  0.00    +0.000 A 
ATOM     22  N   UNL     1      -1.285  11.464  22.056  0.00  0.00    +0.000 NA
ATOM     23  C   UNL     1      -1.910  12.301  21.201  0.00  0.00    +0.000 A 
ATOM     24  C   UNL     1      -1.734  12.275  19.831  0.00  0.00    +0.000 A 
ATOM     25  C   UNL     1      -0.864  11.331  19.301  0.00  0.00    +0.000 A 
ATOM     26  C   UNL     1      -0.209  10.433  20.155  0.00  0.00    +0.000 A 
ATOM     27  C   UNL     1       0.650   9.434  19.664  0.00  0.00    +0.000 A 
ENDBRANCH   2  18
TORSDOF 2
ENDMDL
MODEL 9
REMARK VINA RESULT:      -7.9      2.917      8.718
REMARK  Name = 
REMARK  2 active torsions:
REMARK  status: ('A' for Active; 'I' for Inactive)
REMARK    1  A    between atoms: C_2  and  C_16
REMARK    2  A    between atoms: N_3  and  C_4
REMARK                            x       y       z     vdW  Elec       q    Type
REMARK                         _______ _______ _______ _____ _____    ______ ____
ROOT
ATOM      1  O   UNL     1       1.702   9.306  18.943  0.00  0.00    +0.000 OA
ATOM      2  C   UNL     1       1.478   8.461  19.800  0.00  0.00    +0.000 C 
ATOM      3  N   UNL     1       0.722   8.634  20.943  0.00  0.00    +0.000 N 
ATOM      4  H   UNL     1       0.942   8.038  21.732  0.00  0.00    +0.000 HD
ENDROOT
BRANCH   3   5
ATOM      5  C   UNL     1      -0.038   9.785  21.225  0.00  0.00    +0.000 A 
ATOM      6  C   UNL     1      -0.583  10.588  20.228  0.00  0.00    +0.000 A 
ATOM      7  C   UNL     1      -1.410  11.655  20.594  0.00  0.00    +0.000 A 
ATOM      8  C   UNL     1      -2.125  12.453  19.578  0.00  0.00    +0.000 A 
ATOM      9  O   UNL     1      -2.019  12.234  18.378  0.00  0.00    +0.000 OA
ATOM     10  N   UNL     1      -2.944  13.437  20.068  0.00  0.00    +0.000 N 
ATOM     11  C   UNL     1      -3.079  13.697  21.401  0.00  0.00    +0.000 A 
ATOM     12  N   UNL     1      -2.476  13.039  22.330  0.00  0.00    +0.000 NA
ATOM     13  C   UNL     1      -1.644  11.975  21.939  0.00  0.00    +0.000 A 
ATOM     14  C   UNL     1      -1.063  11.187  22.930  0.00  0.00    +0.000 A 
ATOM     15  C   UNL     1      -0.298  10.082  22.568  0.00  0.00    +0.000 A 
ATOM     16  F   UNL     1       0.222   9.306  23.531  0.00  0.00    +0.000 F 
ATOM     17  H   UNL     1      -3.454  13.975  19.382  0.00  0.00    +0.000 HD
ENDBRANCH   3   5
BRANCH   2  18
ATOM     18  C   UNL     1       2.138   7.142  19.719  0.00  0.00    +0.000 A 
ATOM     19  C   UNL     1       3.025   6.871  18.675  0.00  0.00    +0.000 A 
ATOM     20  C   UNL     1       3.607   5.606  18.581  0.00  0.00    +0.000 A 
ATOM     21  C   UNL     1       3.310   4.595  19.488  0.00  0.00    +0.000 A 
ATOM     22  N   UNL     1       3.859   3.384  19.318  0.00  0.00    +0.000 NA
ATOM     23  C   UNL     1       3.532   2.411  20.195  0.00  0.00    +0.000 A 
ATOM     24  C   UNL     1       2.679   2.594  21.266  0.00  0.00    +0.000 A 
ATOM     25  C   UNL     1       2.123   3.853  21.451  0.00  0.00    +0.000 A 
ATOM     26  C   UNL     1       2.424   4.885  20.552  0.00  0.00    +0.000 A 
ATOM     27  C   UNL     1       1.855   6.165  20.673  0.00  0.00    +0.000 A 
ENDBRANCH   2  18
TORSDOF 2
ENDMDL
