MODEL 1
REMARK VINA RESULT:      -9.1      0.000      0.000
REMARK  Name = 
REMARK  7 active torsions:
REMARK  status: ('A' for Active; 'I' for Inactive)
REMARK    1  A    between atoms: C_1  and  N_2
REMARK    2  A    between atoms: C_6  and  C_7
REMARK    3  A    between atoms: C_7  and  C_8
REMARK    4  A    between atoms: C_8  and  O_9
REMARK    5  A    between atoms: C_8  and  C_10
REMARK    6  A    between atoms: C_14  and  N_15
REMARK    7  A    between atoms: C_22  and  C_23
REMARK                            x       y       z     vdW  Elec       q    Type
REMARK                         _______ _______ _______ _____ _____    ______ ____
ROOT
ATOM      1  C   UNL     1       4.553   5.363  17.711  0.00  0.00    +0.000 A 
ATOM      2  C   UNL     1       4.302   4.143  18.326  0.00  0.00    +0.000 A 
ATOM      3  C   UNL     1       3.279   4.068  19.261  0.00  0.00    +0.000 A 
ATOM      4  C   UNL     1       2.540   5.210  19.557  0.00  0.00    +0.000 A 
ATOM      5  C   UNL     1       2.852   6.410  18.919  0.00  0.00    +0.000 A 
ATOM      6  N   UNL     1       3.864   6.485  18.034  0.00  0.00    +0.000 NA
ENDROOT
BRANCH   5   7
ATOM      7  N   UNL     1       2.133   7.586  19.202  0.00  0.00    +0.000 N 
ATOM      8  C   UNL     1       1.477   7.827  20.471  0.00  0.00    +0.000 C 
ATOM      9  C   UNL     1       0.949   9.218  20.327  0.00  0.00    +0.000 A 
ATOM     10  C   UNL     1       1.242   9.690  19.048  0.00  0.00    +0.000 A 
ATOM     11  C   UNL     1       0.872  10.946  18.610  0.00  0.00    +0.000 A 
ATOM     12  C   UNL     1       0.181  11.761  19.503  0.00  0.00    +0.000 A 
ATOM     13  C   UNL     1      -0.113  11.307  20.802  0.00  0.00    +0.000 A 
ATOM     14  C   UNL     1       0.272  10.022  21.240  0.00  0.00    +0.000 A 
ATOM     15  C   UNL     1       1.995   8.657  18.324  0.00  0.00    +0.000 C 
ATOM     16  O   UNL     1       2.371   8.830  17.178  0.00  0.00    +0.000 OA
BRANCH  14  17
ATOM     17  C   UNL     1      -0.037   9.582  22.647  0.00  0.00    +0.000 C 
ATOM     18  F   UNL     1      -0.837   8.481  22.710  0.00  0.00    +0.000 F 
ATOM     19  F   UNL     1       1.086   9.264  23.347  0.00  0.00    +0.000 F 
ATOM     20  F   UNL     1      -0.673  10.545  23.368  0.00  0.00    +0.000 F 
ENDBRANCH  14  17
ENDBRANCH   5   7
BRANCH   1  21
ATOM     21  C   UNL     1       5.729   5.520  16.764  0.00  0.00    +0.000 C 
BRANCH  21  22
ATOM     22  O   UNL     1       5.566   6.779  16.080  0.00  0.00    +0.000 OA
ATOM     23  H   UNL     1       5.852   6.611  15.162  0.00  0.00    +0.000 HD
ENDBRANCH  21  22
BRANCH  21  24
ATOM     24  C   UNL     1       5.843   4.421  15.692  0.00  0.00    +0.000 C 
BRANCH  24  30
ATOM     25  C   UNL     1       5.626   3.457  12.736  0.00  0.00    +0.000 C 
ATOM     26  N   UNL     1       6.643   4.312  13.286  0.00  0.00    +0.000 N 
ATOM     27  C   UNL     1       7.673   4.868  12.592  0.00  0.00    +0.000 A 
ATOM     28  N   UNL     1       8.370   5.644  13.384  0.00  0.00    +0.000 NA
ATOM     29  N   UNL     1       7.790   5.593  14.629  0.00  0.00    +0.000 NA
ATOM     30  C   UNL     1       6.758   4.771  14.573  0.00  0.00    +0.000 A 
ENDBRANCH  24  30
ENDBRANCH  21  24
ENDBRANCH   1  21
TORSDOF 6
ENDMDL
MODEL 2
REMARK VINA RESULT:      -8.9      1.256      1.745
REMARK  Name = 
REMARK  7 active torsions:
REMARK  status: ('A' for Active; 'I' for Inactive)
REMARK    1  A    between atoms: C_1  and  N_2
REMARK    2  A    between atoms: C_6  and  C_7
REMARK    3  A    between atoms: C_7  and  C_8
REMARK    4  A    between atoms: C_8  and  O_9
REMARK    5  A    between atoms: C_8  and  C_10
REMARK    6  A    between atoms: C_14  and  N_15
REMARK    7  A    between atoms: C_22  and  C_23
REMARK                            x       y       z     vdW  Elec       q    Type
REMARK                         _______ _______ _______ _____ _____    ______ ____
ROOT
ATOM      1  C   UNL     1       4.557   4.869  19.239  0.00  0.00    +0.000 A 
ATOM      2  C   UNL     1       4.029   3.673  19.711  0.00  0.00    +0.000 A 
ATOM      3  C   UNL     1       2.757   3.681  20.265  0.00  0.00    +0.000 A 
ATOM      4  C   UNL     1       2.051   4.879  20.336  0.00  0.00    +0.000 A 
ATOM      5  C   UNL     1       2.641   6.049  19.861  0.00  0.00    +0.000 A 
ATOM      6  N   UNL     1       3.887   6.043  19.351  0.00  0.00    +0.000 NA
ENDROOT
BRANCH   5   7
ATOM      7  N   UNL     1       1.960   7.279  19.927  0.00  0.00    +0.000 N 
ATOM      8  C   UNL     1       1.228   7.717  21.098  0.00  0.00    +0.000 C 
ATOM      9  C   UNL     1       0.779   9.094  20.727  0.00  0.00    +0.000 A 
ATOM     10  C   UNL     1       1.184   9.374  19.423  0.00  0.00    +0.000 A 
ATOM     11  C   UNL     1       0.906  10.569  18.791  0.00  0.00    +0.000 A 
ATOM     12  C   UNL     1       0.192  11.525  19.510  0.00  0.00    +0.000 A 
ATOM     13  C   UNL     1      -0.214  11.267  20.833  0.00  0.00    +0.000 A 
ATOM     14  C   UNL     1       0.078  10.041  21.469  0.00  0.00    +0.000 A 
ATOM     15  C   UNL     1       1.936   8.223  18.904  0.00  0.00    +0.000 C 
ATOM     16  O   UNL     1       2.401   8.221  17.778  0.00  0.00    +0.000 OA
BRANCH  14  17
ATOM     17  C   UNL     1      -0.351   9.812  22.894  0.00  0.00    +0.000 C 
ATOM     18  F   UNL     1       0.687   9.570  23.743  0.00  0.00    +0.000 F 
ATOM     19  F   UNL     1      -1.012  10.883  23.413  0.00  0.00    +0.000 F 
ATOM     20  F   UNL     1      -1.192   8.750  23.022  0.00  0.00    +0.000 F 
ENDBRANCH  14  17
ENDBRANCH   5   7
BRANCH   1  21
ATOM     21  C   UNL     1       5.983   4.930  18.724  0.00  0.00    +0.000 C 
BRANCH  21  22
ATOM     22  O   UNL     1       6.840   5.177  19.857  0.00  0.00    +0.000 OA
ATOM     23  H   UNL     1       6.806   4.358  20.387  0.00  0.00    +0.000 HD
ENDBRANCH  21  22
BRANCH  21  24
ATOM     24  C   UNL     1       6.248   6.039  17.690  0.00  0.00    +0.000 C 
BRANCH  24  30
ATOM     25  C   UNL     1       4.600   3.989  16.018  0.00  0.00    +0.000 C 
ATOM     26  N   UNL     1       5.841   4.607  15.635  0.00  0.00    +0.000 N 
ATOM     27  C   UNL     1       6.492   4.416  14.455  0.00  0.00    +0.000 A 
ATOM     28  N   UNL     1       7.553   5.182  14.408  0.00  0.00    +0.000 NA
ATOM     29  N   UNL     1       7.605   5.890  15.585  0.00  0.00    +0.000 NA
ATOM     30  C   UNL     1       6.581   5.525  16.335  0.00  0.00    +0.000 A 
ENDBRANCH  24  30
ENDBRANCH  21  24
ENDBRANCH   1  21
TORSDOF 6
ENDMDL
MODEL 3
REMARK VINA RESULT:      -8.8      3.051      4.607
REMARK  Name = 
REMARK  7 active torsions:
REMARK  status: ('A' for Active; 'I' for Inactive)
REMARK    1  A    between atoms: C_1  and  N_2
REMARK    2  A    between atoms: C_6  and  C_7
REMARK    3  A    between atoms: C_7  and  C_8
REMARK    4  A    between atoms: C_8  and  O_9
REMARK    5  A    between atoms: C_8  and  C_10
REMARK    6  A    between atoms: C_14  and  N_15
REMARK    7  A    between atoms: C_22  and  C_23
REMARK                            x       y       z     vdW  Elec       q    Type
REMARK                         _______ _______ _______ _____ _____    ______ ____
ROOT
ATOM      1  C   UNL     1       2.967   4.783  17.750  0.00  0.00    +0.000 A 
ATOM      2  C   UNL     1       4.352   4.823  17.632  0.00  0.00    +0.000 A 
ATOM      3  C   UNL     1       5.014   5.991  17.982  0.00  0.00    +0.000 A 
ATOM      4  C   UNL     1       4.279   7.083  18.436  0.00  0.00    +0.000 A 
ATOM      5  C   UNL     1       2.891   6.986  18.517  0.00  0.00    +0.000 A 
ATOM      6  N   UNL     1       2.249   5.861  18.148  0.00  0.00    +0.000 NA
ENDROOT
BRANCH   5   7
ATOM      7  N   UNL     1       2.116   8.074  18.961  0.00  0.00    +0.000 N 
ATOM      8  C   UNL     1       1.481   8.113  20.263  0.00  0.00    +0.000 C 
ATOM      9  C   UNL     1       0.875   9.479  20.308  0.00  0.00    +0.000 A 
ATOM     10  C   UNL     1       1.108  10.126  19.095  0.00  0.00    +0.000 A 
ATOM     11  C   UNL     1       0.659  11.403  18.828  0.00  0.00    +0.000 A 
ATOM     12  C   UNL     1      -0.053  12.057  19.830  0.00  0.00    +0.000 A 
ATOM     13  C   UNL     1      -0.288  11.426  21.066  0.00  0.00    +0.000 A 
ATOM     14  C   UNL     1       0.178  10.121  21.329  0.00  0.00    +0.000 A 
ATOM     15  C   UNL     1       1.897   9.238  18.230  0.00  0.00    +0.000 C 
ATOM     16  O   UNL     1       2.234   9.576  17.109  0.00  0.00    +0.000 OA
BRANCH  14  17
ATOM     17  C   UNL     1      -0.070   9.489  22.673  0.00  0.00    +0.000 C 
ATOM     18  F   UNL     1      -0.761  10.290  23.532  0.00  0.00    +0.000 F 
ATOM     19  F   UNL     1      -0.793   8.339  22.578  0.00  0.00    +0.000 F 
ATOM     20  F   UNL     1       1.082   9.159  23.317  0.00  0.00    +0.000 F 
ENDBRANCH  14  17
ENDBRANCH   5   7
BRANCH   1  21
ATOM     21  C   UNL     1       2.191   3.567  17.279  0.00  0.00    +0.000 C 
BRANCH  21  22
ATOM     22  O   UNL     1       0.789   3.894  17.358  0.00  0.00    +0.000 OA
ATOM     23  H   UNL     1       0.398   3.212  17.937  0.00  0.00    +0.000 HD
ENDBRANCH  21  22
BRANCH  21  24
ATOM     24  C   UNL     1       2.419   2.293  18.112  0.00  0.00    +0.000 C 
BRANCH  24  30
ATOM     25  C   UNL     1       4.563   2.258  20.374  0.00  0.00    +0.000 C 
ATOM     26  N   UNL     1       3.146   2.440  20.539  0.00  0.00    +0.000 N 
ATOM     27  C   UNL     1       2.506   2.656  21.720  0.00  0.00    +0.000 A 
ATOM     28  N   UNL     1       1.228   2.846  21.501  0.00  0.00    +0.000 NA
ATOM     29  N   UNL     1       1.021   2.747  20.146  0.00  0.00    +0.000 NA
ATOM     30  C   UNL     1       2.179   2.481  19.567  0.00  0.00    +0.000 A 
ENDBRANCH  24  30
ENDBRANCH  21  24
ENDBRANCH   1  21
TORSDOF 6
ENDMDL
MODEL 4
REMARK VINA RESULT:      -8.7      1.881      2.567
REMARK  Name = 
REMARK  7 active torsions:
REMARK  status: ('A' for Active; 'I' for Inactive)
REMARK    1  A    between atoms: C_1  and  N_2
REMARK    2  A    between atoms: C_6  and  C_7
REMARK    3  A    between atoms: C_7  and  C_8
REMARK    4  A    between atoms: C_8  and  O_9
REMARK    5  A    between atoms: C_8  and  C_10
REMARK    6  A    between atoms: C_14  and  N_15
REMARK    7  A    between atoms: C_22  and  C_23
REMARK                            x       y       z     vdW  Elec       q    Type
REMARK                         _______ _______ _______ _____ _____    ______ ____
ROOT
ATOM      1  C   UNL     1       2.890   3.475  18.920  0.00  0.00    +0.000 A 
ATOM      2  C   UNL     1       2.879   2.702  20.075  0.00  0.00    +0.000 A 
ATOM      3  C   UNL     1       2.471   3.290  21.264  0.00  0.00    +0.000 A 
ATOM      4  C   UNL     1       2.090   4.630  21.267  0.00  0.00    +0.000 A 
ATOM      5  C   UNL     1       2.139   5.357  20.080  0.00  0.00    +0.000 A 
ATOM      6  N   UNL     1       2.563   4.791  18.934  0.00  0.00    +0.000 NA
ENDROOT
BRANCH   5   7
ATOM      7  N   UNL     1       1.771   6.715  20.049  0.00  0.00    +0.000 N 
ATOM      8  C   UNL     1       1.078   7.372  21.138  0.00  0.00    +0.000 C 
ATOM      9  C   UNL     1       1.003   8.796  20.690  0.00  0.00    +0.000 A 
ATOM     10  C   UNL     1       1.563   8.906  19.417  0.00  0.00    +0.000 A 
ATOM     11  C   UNL     1       1.631  10.101  18.729  0.00  0.00    +0.000 A 
ATOM     12  C   UNL     1       1.115  11.233  19.355  0.00  0.00    +0.000 A 
ATOM     13  C   UNL     1       0.557  11.145  20.644  0.00  0.00    +0.000 A 
ATOM     14  C   UNL     1       0.496   9.918  21.339  0.00  0.00    +0.000 A 
ATOM     15  C   UNL     1       2.054   7.586  19.000  0.00  0.00    +0.000 C 
ATOM     16  O   UNL     1       2.590   7.418  17.919  0.00  0.00    +0.000 OA
BRANCH  14  17
ATOM     17  C   UNL     1      -0.085   9.868  22.727  0.00  0.00    +0.000 C 
ATOM     18  F   UNL     1      -1.113   8.983  22.857  0.00  0.00    +0.000 F 
ATOM     19  F   UNL     1       0.837   9.503  23.660  0.00  0.00    +0.000 F 
ATOM     20  F   UNL     1      -0.576  11.070  23.132  0.00  0.00    +0.000 F 
ENDBRANCH  14  17
ENDBRANCH   5   7
BRANCH   1  21
ATOM     21  C   UNL     1       3.429   2.908  17.620  0.00  0.00    +0.000 C 
BRANCH  21  22
ATOM     22  O   UNL     1       4.310   1.818  17.959  0.00  0.00    +0.000 OA
ATOM     23  H   UNL     1       5.029   1.854  17.299  0.00  0.00    +0.000 HD
ENDBRANCH  21  22
BRANCH  21  24
ATOM     24  C   UNL     1       4.231   3.905  16.764  0.00  0.00    +0.000 C 
BRANCH  24  30
ATOM     25  C   UNL     1       6.791   4.472  15.078  0.00  0.00    +0.000 C 
ATOM     26  N   UNL     1       6.707   4.402  16.513  0.00  0.00    +0.000 N 
ATOM     27  C   UNL     1       7.738   4.600  17.379  0.00  0.00    +0.000 A 
ATOM     28  N   UNL     1       7.298   4.529  18.611  0.00  0.00    +0.000 NA
ATOM     29  N   UNL     1       5.949   4.272  18.555  0.00  0.00    +0.000 NA
ATOM     30  C   UNL     1       5.597   4.175  17.286  0.00  0.00    +0.000 A 
ENDBRANCH  24  30
ENDBRANCH  21  24
ENDBRANCH   1  21
TORSDOF 6
ENDMDL
MODEL 5
REMARK VINA RESULT:      -8.7      0.874      1.306
REMARK  Name = 
REMARK  7 active torsions:
REMARK  status: ('A' for Active; 'I' for Inactive)
REMARK    1  A    between atoms: C_1  and  N_2
REMARK    2  A    between atoms: C_6  and  C_7
REMARK    3  A    between atoms: C_7  and  C_8
REMARK    4  A    between atoms: C_8  and  O_9
REMARK    5  A    between atoms: C_8  and  C_10
REMARK    6  A    between atoms: C_14  and  N_15
REMARK    7  A    between atoms: C_22  and  C_23
REMARK                            x       y       z     vdW  Elec       q    Type
REMARK                         _______ _______ _______ _____ _____    ______ ____
ROOT
ATOM      1  C   UNL     1       5.187   5.658  18.552  0.00  0.00    +0.000 A 
ATOM      2  C   UNL     1       4.894   4.374  18.997  0.00  0.00    +0.000 A 
ATOM      3  C   UNL     1       3.668   4.145  19.604  0.00  0.00    +0.000 A 
ATOM      4  C   UNL     1       2.772   5.200  19.753  0.00  0.00    +0.000 A 
ATOM      5  C   UNL     1       3.131   6.469  19.302  0.00  0.00    +0.000 A 
ATOM      6  N   UNL     1       4.333   6.694  18.740  0.00  0.00    +0.000 NA
ENDROOT
BRANCH   5   7
ATOM      7  N   UNL     1       2.254   7.561  19.446  0.00  0.00    +0.000 N 
ATOM      8  C   UNL     1       1.536   7.843  20.673  0.00  0.00    +0.000 C 
ATOM      9  C   UNL     1       0.833   9.128  20.372  0.00  0.00    +0.000 A 
ATOM     10  C   UNL     1       1.097   9.498  19.054  0.00  0.00    +0.000 A 
ATOM     11  C   UNL     1       0.577  10.639  18.477  0.00  0.00    +0.000 A 
ATOM     12  C   UNL     1      -0.242  11.443  19.267  0.00  0.00    +0.000 A 
ATOM     13  C   UNL     1      -0.510  11.093  20.603  0.00  0.00    +0.000 A 
ATOM     14  C   UNL     1       0.030   9.925  21.183  0.00  0.00    +0.000 A 
ATOM     15  C   UNL     1       2.001   8.506  18.456  0.00  0.00    +0.000 C 
ATOM     16  O   UNL     1       2.384   8.606  17.304  0.00  0.00    +0.000 OA
BRANCH  14  17
ATOM     17  C   UNL     1      -0.259   9.597  22.625  0.00  0.00    +0.000 C 
ATOM     18  F   UNL     1       0.863   9.434  23.381  0.00  0.00    +0.000 F 
ATOM     19  F   UNL     1      -0.982  10.571  23.241  0.00  0.00    +0.000 F 
ATOM     20  F   UNL     1      -0.973   8.448  22.766  0.00  0.00    +0.000 F 
ENDBRANCH  14  17
ENDBRANCH   5   7
BRANCH   1  21
ATOM     21  C   UNL     1       6.555   5.981  17.980  0.00  0.00    +0.000 C 
BRANCH  21  22
ATOM     22  O   UNL     1       6.374   7.007  16.984  0.00  0.00    +0.000 OA
ATOM     23  H   UNL     1       6.876   7.777  17.314  0.00  0.00    +0.000 HD
ENDBRANCH  21  22
BRANCH  21  24
ATOM     24  C   UNL     1       7.266   4.795  17.302  0.00  0.00    +0.000 C 
BRANCH  24  30
ATOM     25  C   UNL     1       5.187   3.046  15.775  0.00  0.00    +0.000 C 
ATOM     26  N   UNL     1       6.149   3.942  15.190  0.00  0.00    +0.000 N 
ATOM     27  C   UNL     1       6.292   4.194  13.861  0.00  0.00    +0.000 A 
ATOM     28  N   UNL     1       7.215   5.107  13.682  0.00  0.00    +0.000 NA
ATOM     29  N   UNL     1       7.694   5.460  14.921  0.00  0.00    +0.000 NA
ATOM     30  C   UNL     1       7.063   4.739  15.831  0.00  0.00    +0.000 A 
ENDBRANCH  24  30
ENDBRANCH  21  24
ENDBRANCH   1  21
TORSDOF 6
ENDMDL
MODEL 6
REMARK VINA RESULT:      -8.7      1.318      1.732
REMARK  Name = 
REMARK  7 active torsions:
REMARK  status: ('A' for Active; 'I' for Inactive)
REMARK    1  A    between atoms: C_1  and  N_2
REMARK    2  A    between atoms: C_6  and  C_7
REMARK    3  A    between atoms: C_7  and  C_8
REMARK    4  A    between atoms: C_8  and  O_9
REMARK    5  A    between atoms: C_8  and  C_10
REMARK    6  A    between atoms: C_14  and  N_15
REMARK    7  A    between atoms: C_22  and  C_23
REMARK                            x       y       z     vdW  Elec       q    Type
REMARK                         _______ _______ _______ _____ _____    ______ ____
ROOT
ATOM      1  C   UNL     1       4.983   4.900  19.045  0.00  0.00    +0.000 A 
ATOM      2  C   UNL     1       4.375   3.653  19.139  0.00  0.00    +0.000 A 
ATOM      3  C   UNL     1       3.005   3.597  19.351  0.00  0.00    +0.000 A 
ATOM      4  C   UNL     1       2.282   4.782  19.465  0.00  0.00    +0.000 A 
ATOM      5  C   UNL     1       2.952   6.001  19.378  0.00  0.00    +0.000 A 
ATOM      6  N   UNL     1       4.286   6.052  19.203  0.00  0.00    +0.000 NA
ENDROOT
BRANCH   5   7
ATOM      7  N   UNL     1       2.255   7.218  19.500  0.00  0.00    +0.000 N 
ATOM      8  C   UNL     1       1.539   7.603  20.699  0.00  0.00    +0.000 C 
ATOM      9  C   UNL     1       1.063   8.986  20.385  0.00  0.00    +0.000 A 
ATOM     10  C   UNL     1       1.439   9.316  19.084  0.00  0.00    +0.000 A 
ATOM     11  C   UNL     1       1.131  10.529  18.500  0.00  0.00    +0.000 A 
ATOM     12  C   UNL     1       0.418  11.448  19.265  0.00  0.00    +0.000 A 
ATOM     13  C   UNL     1       0.041  11.138  20.585  0.00  0.00    +0.000 A 
ATOM     14  C   UNL     1       0.363   9.896  21.172  0.00  0.00    +0.000 A 
ATOM     15  C   UNL     1       2.197   8.196  18.511  0.00  0.00    +0.000 C 
ATOM     16  O   UNL     1       2.640   8.240  17.377  0.00  0.00    +0.000 OA
BRANCH  14  17
ATOM     17  C   UNL     1      -0.036   9.610  22.596  0.00  0.00    +0.000 C 
ATOM     18  F   UNL     1      -0.884   8.551  22.723  0.00  0.00    +0.000 F 
ATOM     19  F   UNL     1       1.036   9.322  23.385  0.00  0.00    +0.000 F 
ATOM     20  F   UNL     1      -0.665  10.663  23.184  0.00  0.00    +0.000 F 
ENDBRANCH  14  17
ENDBRANCH   5   7
BRANCH   1  21
ATOM     21  C   UNL     1       6.491   5.012  18.921  0.00  0.00    +0.000 C 
BRANCH  21  22
ATOM     22  O   UNL     1       6.990   5.507  20.180  0.00  0.00    +0.000 OA
ATOM     23  H   UNL     1       6.347   6.187  20.462  0.00  0.00    +0.000 HD
ENDBRANCH  21  22
BRANCH  21  24
ATOM     24  C   UNL     1       6.979   5.970  17.819  0.00  0.00    +0.000 C 
BRANCH  24  30
ATOM     25  C   UNL     1       4.827   6.734  15.697  0.00  0.00    +0.000 C 
ATOM     26  N   UNL     1       5.875   5.761  15.544  0.00  0.00    +0.000 N 
ATOM     27  C   UNL     1       6.118   5.027  14.424  0.00  0.00    +0.000 A 
ATOM     28  N   UNL     1       7.187   4.290  14.603  0.00  0.00    +0.000 NA
ATOM     29  N   UNL     1       7.654   4.540  15.872  0.00  0.00    +0.000 NA
ATOM     30  C   UNL     1       6.848   5.415  16.446  0.00  0.00    +0.000 A 
ENDBRANCH  24  30
ENDBRANCH  21  24
ENDBRANCH   1  21
TORSDOF 6
ENDMDL
MODEL 7
REMARK VINA RESULT:      -8.5      0.983      1.289
REMARK  Name = 
REMARK  7 active torsions:
REMARK  status: ('A' for Active; 'I' for Inactive)
REMARK    1  A    between atoms: C_1  and  N_2
REMARK    2  A    between atoms: C_6  and  C_7
REMARK    3  A    between atoms: C_7  and  C_8
REMARK    4  A    between atoms: C_8  and  O_9
REMARK    5  A    between atoms: C_8  and  C_10
REMARK    6  A    between atoms: C_14  and  N_15
REMARK    7  A    between atoms: C_22  and  C_23
REMARK                            x       y       z     vdW  Elec       q    Type
REMARK                         _______ _______ _______ _____ _____    ______ ____
ROOT
ATOM      1  C   UNL     1       3.876   4.267  18.238  0.00  0.00    +0.000 A 
ATOM      2  C   UNL     1       3.757   3.297  19.226  0.00  0.00    +0.000 A 
ATOM      3  C   UNL     1       3.042   3.603  20.375  0.00  0.00    +0.000 A 
ATOM      4  C   UNL     1       2.471   4.866  20.508  0.00  0.00    +0.000 A 
ATOM      5  C   UNL     1       2.640   5.802  19.489  0.00  0.00    +0.000 A 
ATOM      6  N   UNL     1       3.359   5.511  18.388  0.00  0.00    +0.000 NA
ENDROOT
BRANCH   5   7
ATOM      7  N   UNL     1       2.085   7.091  19.594  0.00  0.00    +0.000 N 
ATOM      8  C   UNL     1       1.352   7.545  20.759  0.00  0.00    +0.000 C 
ATOM      9  C   UNL     1       1.061   8.978  20.445  0.00  0.00    +0.000 A 
ATOM     10  C   UNL     1       1.547   9.277  19.173  0.00  0.00    +0.000 A 
ATOM     11  C   UNL     1       1.419  10.524  18.596  0.00  0.00    +0.000 A 
ATOM     12  C   UNL     1       0.776  11.513  19.338  0.00  0.00    +0.000 A 
ATOM     13  C   UNL     1       0.290  11.234  20.629  0.00  0.00    +0.000 A 
ATOM     14  C   UNL     1       0.429   9.955  21.209  0.00  0.00    +0.000 A 
ATOM     15  C   UNL     1       2.200   8.082  18.623  0.00  0.00    +0.000 C 
ATOM     16  O   UNL     1       2.709   8.087  17.516  0.00  0.00    +0.000 OA
BRANCH  14  17
ATOM     17  C   UNL     1      -0.081   9.702  22.604  0.00  0.00    +0.000 C 
ATOM     18  F   UNL     1      -0.710  10.777  23.157  0.00  0.00    +0.000 F 
ATOM     19  F   UNL     1      -0.982   8.683  22.647  0.00  0.00    +0.000 F 
ATOM     20  F   UNL     1       0.913   9.366  23.470  0.00  0.00    +0.000 F 
ENDBRANCH  14  17
ENDBRANCH   5   7
BRANCH   1  21
ATOM     21  C   UNL     1       4.736   4.016  17.014  0.00  0.00    +0.000 C 
BRANCH  21  22
ATOM     22  O   UNL     1       6.076   3.754  17.476  0.00  0.00    +0.000 OA
ATOM     23  H   UNL     1       6.437   4.626  17.726  0.00  0.00    +0.000 HD
ENDBRANCH  21  22
BRANCH  21  24
ATOM     24  C   UNL     1       4.808   5.193  16.024  0.00  0.00    +0.000 C 
BRANCH  24  30
ATOM     25  C   UNL     1       5.122   3.778  13.264  0.00  0.00    +0.000 C 
ATOM     26  N   UNL     1       6.131   4.527  13.963  0.00  0.00    +0.000 N 
ATOM     27  C   UNL     1       7.394   4.766  13.516  0.00  0.00    +0.000 A 
ATOM     28  N   UNL     1       8.025   5.537  14.368  0.00  0.00    +0.000 NA
ATOM     29  N   UNL     1       7.160   5.806  15.402  0.00  0.00    +0.000 NA
ATOM     30  C   UNL     1       6.022   5.178  15.165  0.00  0.00    +0.000 A 
ENDBRANCH  24  30
ENDBRANCH  21  24
ENDBRANCH   1  21
TORSDOF 6
ENDMDL
MODEL 8
REMARK VINA RESULT:      -8.4      2.144      2.666
REMARK  Name = 
REMARK  7 active torsions:
REMARK  status: ('A' for Active; 'I' for Inactive)
REMARK    1  A    between atoms: C_1  and  N_2
REMARK    2  A    between atoms: C_6  and  C_7
REMARK    3  A    between atoms: C_7  and  C_8
REMARK    4  A    between atoms: C_8  and  O_9
REMARK    5  A    between atoms: C_8  and  C_10
REMARK    6  A    between atoms: C_14  and  N_15
REMARK    7  A    between atoms: C_22  and  C_23
REMARK                            x       y       z     vdW  Elec       q    Type
REMARK                         _______ _______ _______ _____ _____    ______ ____
ROOT
ATOM      1  C   UNL     1       4.491   4.990  16.960  0.00  0.00    +0.000 A 
ATOM      2  C   UNL     1       3.819   3.795  16.731  0.00  0.00    +0.000 A 
ATOM      3  C   UNL     1       2.567   3.617  17.301  0.00  0.00    +0.000 A 
ATOM      4  C   UNL     1       2.023   4.632  18.084  0.00  0.00    +0.000 A 
ATOM      5  C   UNL     1       2.753   5.800  18.291  0.00  0.00    +0.000 A 
ATOM      6  N   UNL     1       3.980   5.958  17.760  0.00  0.00    +0.000 NA
ENDROOT
BRANCH   5   7
ATOM      7  N   UNL     1       2.238   6.842  19.085  0.00  0.00    +0.000 N 
ATOM      8  C   UNL     1       1.959   8.167  18.570  0.00  0.00    +0.000 C 
ATOM      9  C   UNL     1       1.346   8.869  19.739  0.00  0.00    +0.000 A 
ATOM     10  C   UNL     1       1.341   8.011  20.838  0.00  0.00    +0.000 A 
ATOM     11  C   UNL     1       0.847   8.379  22.074  0.00  0.00    +0.000 A 
ATOM     12  C   UNL     1       0.331   9.667  22.202  0.00  0.00    +0.000 A 
ATOM     13  C   UNL     1       0.315  10.543  21.101  0.00  0.00    +0.000 A 
ATOM     14  C   UNL     1       0.822  10.155  19.842  0.00  0.00    +0.000 A 
ATOM     15  C   UNL     1       1.908   6.718  20.432  0.00  0.00    +0.000 C 
ATOM     16  O   UNL     1       2.013   5.794  21.219  0.00  0.00    +0.000 OA
BRANCH  14  17
ATOM     17  C   UNL     1       0.764  11.111  18.680  0.00  0.00    +0.000 C 
ATOM     18  F   UNL     1      -0.072  10.706  17.682  0.00  0.00    +0.000 F 
ATOM     19  F   UNL     1       0.327  12.346  19.049  0.00  0.00    +0.000 F 
ATOM     20  F   UNL     1       1.978  11.297  18.096  0.00  0.00    +0.000 F 
ENDBRANCH  14  17
ENDBRANCH   5   7
BRANCH   1  21
ATOM     21  C   UNL     1       5.905   5.188  16.447  0.00  0.00    +0.000 C 
BRANCH  21  22
ATOM     22  O   UNL     1       5.932   6.439  15.731  0.00  0.00    +0.000 OA
ATOM     23  H   UNL     1       5.002   6.620  15.496  0.00  0.00    +0.000 HD
ENDBRANCH  21  22
BRANCH  21  24
ATOM     24  C   UNL     1       6.402   4.092  15.487  0.00  0.00    +0.000 C 
BRANCH  24  30
ATOM     25  C   UNL     1       5.668   3.374  12.544  0.00  0.00    +0.000 C 
ATOM     26  N   UNL     1       6.708   4.270  12.974  0.00  0.00    +0.000 N 
ATOM     27  C   UNL     1       7.533   4.979  12.156  0.00  0.00    +0.000 A 
ATOM     28  N   UNL     1       8.316   5.744  12.876  0.00  0.00    +0.000 NA
ATOM     29  N   UNL     1       8.003   5.530  14.197  0.00  0.00    +0.000 NA
ATOM     30  C   UNL     1       7.044   4.623  14.256  0.00  0.00    +0.000 A 
ENDBRANCH  24  30
ENDBRANCH  21  24
ENDBRANCH   1  21
TORSDOF 6
ENDMDL
MODEL 9
REMARK VINA RESULT:      -8.4      1.478      2.077
REMARK  Name = 
REMARK  7 active torsions:
REMARK  status: ('A' for Active; 'I' for Inactive)
REMARK    1  A    between atoms: C_1  and  N_2
REMARK    2  A    between atoms: C_6  and  C_7
REMARK    3  A    between atoms: C_7  and  C_8
REMARK    4  A    between atoms: C_8  and  O_9
REMARK    5  A    between atoms: C_8  and  C_10
REMARK    6  A    between atoms: C_14  and  N_15
REMARK    7  A    between atoms: C_22  and  C_23
REMARK                            x       y       z     vdW  Elec       q    Type
REMARK                         _______ _______ _______ _____ _____    ______ ____
ROOT
ATOM      1  C   UNL     1       3.538   3.682  19.172  0.00  0.00    +0.000 A 
ATOM      2  C   UNL     1       3.219   2.819  20.213  0.00  0.00    +0.000 A 
ATOM      3  C   UNL     1       2.413   3.288  21.241  0.00  0.00    +0.000 A 
ATOM      4  C   UNL     1       1.953   4.601  21.203  0.00  0.00    +0.000 A 
ATOM      5  C   UNL     1       2.323   5.423  20.140  0.00  0.00    +0.000 A 
ATOM      6  N   UNL     1       3.129   4.974  19.159  0.00  0.00    +0.000 NA
ENDROOT
BRANCH   5   7
ATOM      7  N   UNL     1       1.885   6.760  20.074  0.00  0.00    +0.000 N 
ATOM      8  C   UNL     1       1.174   7.413  21.154  0.00  0.00    +0.000 C 
ATOM      9  C   UNL     1       1.019   8.817  20.664  0.00  0.00    +0.000 A 
ATOM     10  C   UNL     1       1.555   8.917  19.380  0.00  0.00    +0.000 A 
ATOM     11  C   UNL     1       1.551  10.092  18.656  0.00  0.00    +0.000 A 
ATOM     12  C   UNL     1       0.985  11.215  19.255  0.00  0.00    +0.000 A 
ATOM     13  C   UNL     1       0.452  11.138  20.555  0.00  0.00    +0.000 A 
ATOM     14  C   UNL     1       0.463   9.931  21.287  0.00  0.00    +0.000 A 
ATOM     15  C   UNL     1       2.107   7.611  18.996  0.00  0.00    +0.000 C 
ATOM     16  O   UNL     1       2.636   7.438  17.912  0.00  0.00    +0.000 OA
BRANCH  14  17
ATOM     17  C   UNL     1      -0.094   9.894  22.686  0.00  0.00    +0.000 C 
ATOM     18  F   UNL     1      -0.607  11.087  23.100  0.00  0.00    +0.000 F 
ATOM     19  F   UNL     1      -1.105   8.992  22.815  0.00  0.00    +0.000 F 
ATOM     20  F   UNL     1       0.841   9.550  23.612  0.00  0.00    +0.000 F 
ENDBRANCH  14  17
ENDBRANCH   5   7
BRANCH   1  21
ATOM     21  C   UNL     1       4.502   3.248  18.083  0.00  0.00    +0.000 C 
BRANCH  21  22
ATOM     22  O   UNL     1       5.837   3.513  18.559  0.00  0.00    +0.000 OA
ATOM     23  H   UNL     1       6.030   4.431  18.286  0.00  0.00    +0.000 HD
ENDBRANCH  21  22
BRANCH  21  24
ATOM     24  C   UNL     1       4.333   3.984  16.742  0.00  0.00    +0.000 C 
BRANCH  24  30
ATOM     25  C   UNL     1       6.176   3.773  14.237  0.00  0.00    +0.000 C 
ATOM     26  N   UNL     1       6.278   4.740  15.297  0.00  0.00    +0.000 N 
ATOM     27  C   UNL     1       7.189   5.748  15.368  0.00  0.00    +0.000 A 
ATOM     28  N   UNL     1       6.956   6.481  16.429  0.00  0.00    +0.000 NA
ATOM     29  N   UNL     1       5.870   5.939  17.075  0.00  0.00    +0.000 NA
ATOM     30  C   UNL     1       5.474   4.874  16.400  0.00  0.00    +0.000 A 
ENDBRANCH  24  30
ENDBRANCH  21  24
ENDBRANCH   1  21
TORSDOF 6
ENDMDL
