MODEL 1
REMARK VINA RESULT:      -8.2      0.000      0.000
REMARK  Name = 
REMARK  9 active torsions:
REMARK  status: ('A' for Active; 'I' for Inactive)
REMARK    1  A    between atoms: C_1  and  C_2
REMARK    2  A    between atoms: C_2  and  C_3
REMARK    3  A    between atoms: C_2  and  C_10
REMARK    4  A    between atoms: C_3  and  C_4
REMARK    5  A    between atoms: N_8  and  C_9
REMARK    6  A    between atoms: C_14  and  N_15
REMARK    7  A    between atoms: C_16  and  C_18
REMARK    8  A    between atoms: C_19  and  C_20
REMARK    9  A    between atoms: N_24  and  C_25
REMARK                            x       y       z     vdW  Elec       q    Type
REMARK                         _______ _______ _______ _____ _____    ______ ____
ROOT
ATOM      1  C   UNL     1       0.076  10.233  20.150  0.00  0.00    +0.000 A 
ATOM      2  C   UNL     1      -0.139  10.550  21.499  0.00  0.00    +0.000 A 
ATOM      3  C   UNL     1       0.392   9.751  22.507  0.00  0.00    +0.000 A 
ATOM      4  C   UNL     1       1.128   8.611  22.186  0.00  0.00    +0.000 A 
ATOM      5  C   UNL     1       1.333   8.247  20.855  0.00  0.00    +0.000 A 
ATOM      6  C   UNL     1       0.810   9.071  19.843  0.00  0.00    +0.000 A 
ENDROOT
BRANCH   5   7
ATOM      7  N   UNL     1       2.005   7.064  20.463  0.00  0.00    +0.000 N 
ATOM      8  C   UNL     1       2.577   6.807  19.231  0.00  0.00    +0.000 C 
ATOM      9  O   UNL     1       2.491   7.513  18.236  0.00  0.00    +0.000 OA
ATOM     10  H   UNL     1       2.073   6.352  21.178  0.00  0.00    +0.000 HD
BRANCH   8  11
ATOM     11  C   UNL     1       3.382   5.560  19.176  0.00  0.00    +0.000 C 
ATOM     12  C   UNL     1       2.895   4.321  18.926  0.00  0.00    +0.000 C 
ATOM     13  N   UNL     1       3.978   3.409  18.937  0.00  0.00    +0.000 N 
ATOM     14  C   UNL     1       3.969   1.971  18.782  0.00  0.00    +0.000 C 
ATOM     15  C   UNL     1       5.249   4.119  18.852  0.00  0.00    +0.000 C 
ATOM     16  C   UNL     1       4.879   5.528  19.337  0.00  0.00    +0.000 C 
BRANCH  12  17
ATOM     17  C   UNL     1       1.429   3.970  18.671  0.00  0.00    +0.000 C 
ATOM     18  F   UNL     1       0.906   4.653  17.613  0.00  0.00    +0.000 F 
ATOM     19  F   UNL     1       1.264   2.654  18.380  0.00  0.00    +0.000 F 
ATOM     20  F   UNL     1       0.622   4.278  19.719  0.00  0.00    +0.000 F 
ENDBRANCH  12  17
ENDBRANCH   8  11
ENDBRANCH   5   7
BRANCH   1  22
ATOM     21  C   UNL     1       0.448  12.193  18.525  0.00  0.00    +0.000 C 
ATOM     22  C   UNL     1      -0.523  11.144  19.083  0.00  0.00    +0.000 C 
BRANCH  22  23
ATOM     23  C   UNL     1      -1.254  10.349  17.980  0.00  0.00    +0.000 C 
BRANCH  23  24
ATOM     24  C   UNL     1      -2.629  10.857  17.679  0.00  0.00    +0.000 A 
ATOM     25  N   UNL     1      -3.443  11.444  18.536  0.00  0.00    +0.000 NA
ATOM     26  N   UNL     1      -4.585  11.803  17.863  0.00  0.00    +0.000 NA
ATOM     27  C   UNL     1      -4.460  11.396  16.623  0.00  0.00    +0.000 A 
ATOM     28  N   UNL     1      -3.255  10.779  16.466  0.00  0.00    +0.000 N 
ATOM     29  C   UNL     1      -2.779  10.153  15.264  0.00  0.00    +0.000 C 
ENDBRANCH  23  24
ENDBRANCH  22  23
ENDBRANCH   1  22
TORSDOF 6
ENDMDL
MODEL 2
REMARK VINA RESULT:      -8.1      3.647      8.803
REMARK  Name = 
REMARK  9 active torsions:
REMARK  status: ('A' for Active; 'I' for Inactive)
REMARK    1  A    between atoms: C_1  and  C_2
REMARK    2  A    between atoms: C_2  and  C_3
REMARK    3  A    between atoms: C_2  and  C_10
REMARK    4  A    between atoms: C_3  and  C_4
REMARK    5  A    between atoms: N_8  and  C_9
REMARK    6  A    between atoms: C_14  and  N_15
REMARK    7  A    between atoms: C_16  and  C_18
REMARK    8  A    between atoms: C_19  and  C_20
REMARK    9  A    between atoms: N_24  and  C_25
REMARK                            x       y       z     vdW  Elec       q    Type
REMARK                         _______ _______ _______ _____ _____    ______ ____
ROOT
ATOM      1  C   UNL     1       2.533   7.073  19.365  0.00  0.00    +0.000 A 
ATOM      2  C   UNL     1       2.831   7.492  18.060  0.00  0.00    +0.000 A 
ATOM      3  C   UNL     1       2.314   8.684  17.564  0.00  0.00    +0.000 A 
ATOM      4  C   UNL     1       1.473   9.468  18.353  0.00  0.00    +0.000 A 
ATOM      5  C   UNL     1       1.128   9.066  19.643  0.00  0.00    +0.000 A 
ATOM      6  C   UNL     1       1.671   7.870  20.145  0.00  0.00    +0.000 A 
ENDROOT
BRANCH   5   7
ATOM      7  N   UNL     1       0.222   9.777  20.467  0.00  0.00    +0.000 N 
ATOM      8  C   UNL     1       0.295  11.112  20.817  0.00  0.00    +0.000 C 
ATOM      9  O   UNL     1       1.221  11.872  20.570  0.00  0.00    +0.000 OA
ATOM     10  H   UNL     1      -0.558   9.235  20.814  0.00  0.00    +0.000 HD
BRANCH   8  11
ATOM     11  C   UNL     1      -0.902  11.625  21.532  0.00  0.00    +0.000 C 
ATOM     12  C   UNL     1      -2.052  12.035  20.946  0.00  0.00    +0.000 C 
ATOM     13  N   UNL     1      -2.954  12.427  21.964  0.00  0.00    +0.000 N 
ATOM     14  C   UNL     1      -4.281  12.989  21.850  0.00  0.00    +0.000 C 
ATOM     15  C   UNL     1      -2.507  11.936  23.264  0.00  0.00    +0.000 C 
ATOM     16  C   UNL     1      -1.008  11.696  23.033  0.00  0.00    +0.000 C 
BRANCH  12  17
ATOM     17  C   UNL     1      -2.329  12.066  19.443  0.00  0.00    +0.000 C 
ATOM     18  F   UNL     1      -1.502  12.922  18.778  0.00  0.00    +0.000 F 
ATOM     19  F   UNL     1      -2.143  10.851  18.866  0.00  0.00    +0.000 F 
ATOM     20  F   UNL     1      -3.584  12.490  19.144  0.00  0.00    +0.000 F 
ENDBRANCH  12  17
ENDBRANCH   8  11
ENDBRANCH   5   7
BRANCH   1  22
ATOM     21  C   UNL     1       2.199   4.944  20.770  0.00  0.00    +0.000 C 
ATOM     22  C   UNL     1       3.129   5.761  19.864  0.00  0.00    +0.000 C 
BRANCH  22  23
ATOM     23  C   UNL     1       3.746   4.927  18.720  0.00  0.00    +0.000 C 
BRANCH  23  24
ATOM     24  C   UNL     1       5.240   4.977  18.674  0.00  0.00    +0.000 A 
ATOM     25  N   UNL     1       6.046   5.067  19.715  0.00  0.00    +0.000 NA
ATOM     26  N   UNL     1       7.340   5.038  19.258  0.00  0.00    +0.000 NA
ATOM     27  C   UNL     1       7.298   4.968  17.950  0.00  0.00    +0.000 A 
ATOM     28  N   UNL     1       6.000   4.947  17.537  0.00  0.00    +0.000 N 
ATOM     29  C   UNL     1       5.549   4.930  16.173  0.00  0.00    +0.000 C 
ENDBRANCH  23  24
ENDBRANCH  22  23
ENDBRANCH   1  22
TORSDOF 6
ENDMDL
MODEL 3
REMARK VINA RESULT:      -8.1      1.871      2.831
REMARK  Name = 
REMARK  9 active torsions:
REMARK  status: ('A' for Active; 'I' for Inactive)
REMARK    1  A    between atoms: C_1  and  C_2
REMARK    2  A    between atoms: C_2  and  C_3
REMARK    3  A    between atoms: C_2  and  C_10
REMARK    4  A    between atoms: C_3  and  C_4
REMARK    5  A    between atoms: N_8  and  C_9
REMARK    6  A    between atoms: C_14  and  N_15
REMARK    7  A    between atoms: C_16  and  C_18
REMARK    8  A    between atoms: C_19  and  C_20
REMARK    9  A    between atoms: N_24  and  C_25
REMARK                            x       y       z     vdW  Elec       q    Type
REMARK                         _______ _______ _______ _____ _____    ______ ____
ROOT
ATOM      1  C   UNL     1      -1.375  10.284  17.962  0.00  0.00    +0.000 A 
ATOM      2  C   UNL     1      -1.372  10.951  19.195  0.00  0.00    +0.000 A 
ATOM      3  C   UNL     1      -0.258  10.897  20.026  0.00  0.00    +0.000 A 
ATOM      4  C   UNL     1       0.865  10.160  19.651  0.00  0.00    +0.000 A 
ATOM      5  C   UNL     1       0.885   9.457  18.446  0.00  0.00    +0.000 A 
ATOM      6  C   UNL     1      -0.237   9.533  17.603  0.00  0.00    +0.000 A 
ENDROOT
BRANCH   5   7
ATOM      7  N   UNL     1       1.962   8.632  18.041  0.00  0.00    +0.000 N 
ATOM      8  C   UNL     1       2.458   7.530  18.713  0.00  0.00    +0.000 C 
ATOM      9  O   UNL     1       2.126   7.159  19.830  0.00  0.00    +0.000 OA
ATOM     10  H   UNL     1       2.389   8.885  17.160  0.00  0.00    +0.000 HD
BRANCH   8  11
ATOM     11  C   UNL     1       3.463   6.748  17.950  0.00  0.00    +0.000 C 
ATOM     12  C   UNL     1       3.328   5.456  17.566  0.00  0.00    +0.000 C 
ATOM     13  N   UNL     1       4.486   5.084  16.842  0.00  0.00    +0.000 N 
ATOM     14  C   UNL     1       4.844   3.802  16.279  0.00  0.00    +0.000 C 
ATOM     15  C   UNL     1       5.247   6.264  16.447  0.00  0.00    +0.000 C 
ATOM     16  C   UNL     1       4.759   7.326  17.445  0.00  0.00    +0.000 C 
BRANCH  12  17
ATOM     17  C   UNL     1       2.128   4.556  17.862  0.00  0.00    +0.000 C 
ATOM     18  F   UNL     1       1.943   4.356  19.198  0.00  0.00    +0.000 F 
ATOM     19  F   UNL     1       0.966   5.090  17.404  0.00  0.00    +0.000 F 
ATOM     20  F   UNL     1       2.258   3.311  17.337  0.00  0.00    +0.000 F 
ENDBRANCH  12  17
ENDBRANCH   8  11
ENDBRANCH   5   7
BRANCH   1  22
ATOM     21  C   UNL     1      -2.497   9.667  15.730  0.00  0.00    +0.000 C 
ATOM     22  C   UNL     1      -2.618  10.377  17.085  0.00  0.00    +0.000 C 
BRANCH  22  23
ATOM     23  C   UNL     1      -3.904  10.000  17.852  0.00  0.00    +0.000 C 
BRANCH  23  24
ATOM     24  C   UNL     1      -5.014  10.991  17.696  0.00  0.00    +0.000 A 
ATOM     25  N   UNL     1      -4.967  12.102  16.987  0.00  0.00    +0.000 NA
ATOM     26  N   UNL     1      -6.197  12.709  17.060  0.00  0.00    +0.000 NA
ATOM     27  C   UNL     1      -6.954  11.978  17.840  0.00  0.00    +0.000 A 
ATOM     28  N   UNL     1      -6.247  10.899  18.279  0.00  0.00    +0.000 N 
ATOM     29  C   UNL     1      -6.719   9.898  19.196  0.00  0.00    +0.000 C 
ENDBRANCH  23  24
ENDBRANCH  22  23
ENDBRANCH   1  22
TORSDOF 6
ENDMDL
MODEL 4
REMARK VINA RESULT:      -8.1      3.887      8.708
REMARK  Name = 
REMARK  9 active torsions:
REMARK  status: ('A' for Active; 'I' for Inactive)
REMARK    1  A    between atoms: C_1  and  C_2
REMARK    2  A    between atoms: C_2  and  C_3
REMARK    3  A    between atoms: C_2  and  C_10
REMARK    4  A    between atoms: C_3  and  C_4
REMARK    5  A    between atoms: N_8  and  C_9
REMARK    6  A    between atoms: C_14  and  N_15
REMARK    7  A    between atoms: C_16  and  C_18
REMARK    8  A    between atoms: C_19  and  C_20
REMARK    9  A    between atoms: N_24  and  C_25
REMARK                            x       y       z     vdW  Elec       q    Type
REMARK                         _______ _______ _______ _____ _____    ______ ____
ROOT
ATOM      1  C   UNL     1       4.538   5.380  17.151  0.00  0.00    +0.000 A 
ATOM      2  C   UNL     1       3.937   4.122  17.306  0.00  0.00    +0.000 A 
ATOM      3  C   UNL     1       2.625   4.016  17.756  0.00  0.00    +0.000 A 
ATOM      4  C   UNL     1       1.896   5.160  18.079  0.00  0.00    +0.000 A 
ATOM      5  C   UNL     1       2.473   6.426  17.968  0.00  0.00    +0.000 A 
ATOM      6  C   UNL     1       3.793   6.526  17.494  0.00  0.00    +0.000 A 
ENDROOT
BRANCH   5   7
ATOM      7  N   UNL     1       1.816   7.620  18.350  0.00  0.00    +0.000 N 
ATOM      8  C   UNL     1       1.739   8.151  19.624  0.00  0.00    +0.000 C 
ATOM      9  O   UNL     1       2.124   7.613  20.653  0.00  0.00    +0.000 OA
ATOM     10  H   UNL     1       1.375   8.127  17.594  0.00  0.00    +0.000 HD
BRANCH   8  11
ATOM     11  C   UNL     1       1.151   9.514  19.686  0.00  0.00    +0.000 C 
ATOM     12  C   UNL     1       0.359   9.984  20.679  0.00  0.00    +0.000 C 
ATOM     13  N   UNL     1       0.026  11.328  20.382  0.00  0.00    +0.000 N 
ATOM     14  C   UNL     1      -0.838  12.240  21.098  0.00  0.00    +0.000 C 
ATOM     15  C   UNL     1       0.903  11.857  19.343  0.00  0.00    +0.000 C 
ATOM     16  C   UNL     1       1.419  10.583  18.659  0.00  0.00    +0.000 C 
BRANCH  12  17
ATOM     17  C   UNL     1      -0.094   9.199  21.910  0.00  0.00    +0.000 C 
ATOM     18  F   UNL     1      -0.639   7.992  21.587  0.00  0.00    +0.000 F 
ATOM     19  F   UNL     1       0.940   8.926  22.747  0.00  0.00    +0.000 F 
ATOM     20  F   UNL     1      -1.058   9.839  22.621  0.00  0.00    +0.000 F 
ENDBRANCH  12  17
ENDBRANCH   8  11
ENDBRANCH   5   7
BRANCH   1  22
ATOM     21  C   UNL     1       7.025   5.646  17.751  0.00  0.00    +0.000 C 
ATOM     22  C   UNL     1       5.976   5.444  16.650  0.00  0.00    +0.000 C 
BRANCH  22  23
ATOM     23  C   UNL     1       6.316   4.276  15.698  0.00  0.00    +0.000 C 
BRANCH  23  24
ATOM     24  C   UNL     1       6.973   4.706  14.424  0.00  0.00    +0.000 A 
ATOM     25  N   UNL     1       7.965   5.570  14.317  0.00  0.00    +0.000 NA
ATOM     26  N   UNL     1       8.314   5.658  12.991  0.00  0.00    +0.000 NA
ATOM     27  C   UNL     1       7.506   4.877  12.316  0.00  0.00    +0.000 A 
ATOM     28  N   UNL     1       6.635   4.274  13.172  0.00  0.00    +0.000 N 
ATOM     29  C   UNL     1       5.564   3.391  12.801  0.00  0.00    +0.000 C 
ENDBRANCH  23  24
ENDBRANCH  22  23
ENDBRANCH   1  22
TORSDOF 6
ENDMDL
MODEL 5
REMARK VINA RESULT:      -7.9      3.318      8.387
REMARK  Name = 
REMARK  9 active torsions:
REMARK  status: ('A' for Active; 'I' for Inactive)
REMARK    1  A    between atoms: C_1  and  C_2
REMARK    2  A    between atoms: C_2  and  C_3
REMARK    3  A    between atoms: C_2  and  C_10
REMARK    4  A    between atoms: C_3  and  C_4
REMARK    5  A    between atoms: N_8  and  C_9
REMARK    6  A    between atoms: C_14  and  N_15
REMARK    7  A    between atoms: C_16  and  C_18
REMARK    8  A    between atoms: C_19  and  C_20
REMARK    9  A    between atoms: N_24  and  C_25
REMARK                            x       y       z     vdW  Elec       q    Type
REMARK                         _______ _______ _______ _____ _____    ______ ____
ROOT
ATOM      1  C   UNL     1       3.142   5.215  18.929  0.00  0.00    +0.000 A 
ATOM      2  C   UNL     1       2.545   4.582  20.028  0.00  0.00    +0.000 A 
ATOM      3  C   UNL     1       1.730   5.297  20.900  0.00  0.00    +0.000 A 
ATOM      4  C   UNL     1       1.513   6.660  20.702  0.00  0.00    +0.000 A 
ATOM      5  C   UNL     1       2.118   7.330  19.638  0.00  0.00    +0.000 A 
ATOM      6  C   UNL     1       2.924   6.596  18.750  0.00  0.00    +0.000 A 
ENDROOT
BRANCH   5   7
ATOM      7  N   UNL     1       2.000   8.724  19.424  0.00  0.00    +0.000 N 
ATOM      8  C   UNL     1       1.542   9.350  18.279  0.00  0.00    +0.000 C 
ATOM      9  O   UNL     1       1.275   8.804  17.218  0.00  0.00    +0.000 OA
ATOM     10  H   UNL     1       2.274   9.303  20.207  0.00  0.00    +0.000 HD
BRANCH   8  11
ATOM     11  C   UNL     1       1.347  10.816  18.418  0.00  0.00    +0.000 C 
ATOM     12  C   UNL     1       0.215  11.421  18.853  0.00  0.00    +0.000 C 
ATOM     13  N   UNL     1       0.436  12.819  18.865  0.00  0.00    +0.000 N 
ATOM     14  C   UNL     1      -0.478  13.890  19.192  0.00  0.00    +0.000 C 
ATOM     15  C   UNL     1       1.861  13.116  18.763  0.00  0.00    +0.000 C 
ATOM     16  C   UNL     1       2.427  11.829  18.144  0.00  0.00    +0.000 C 
BRANCH  12  17
ATOM     17  C   UNL     1      -1.076  10.713  19.264  0.00  0.00    +0.000 C 
ATOM     18  F   UNL     1      -0.870   9.771  20.229  0.00  0.00    +0.000 F 
ATOM     19  F   UNL     1      -1.988  11.577  19.779  0.00  0.00    +0.000 F 
ATOM     20  F   UNL     1      -1.660  10.040  18.239  0.00  0.00    +0.000 F 
ENDBRANCH  12  17
ENDBRANCH   8  11
ENDBRANCH   5   7
BRANCH   1  22
ATOM     21  C   UNL     1       3.252   3.583  16.943  0.00  0.00    +0.000 C 
ATOM     22  C   UNL     1       4.022   4.386  18.000  0.00  0.00    +0.000 C 
BRANCH  22  23
ATOM     23  C   UNL     1       5.183   5.211  17.404  0.00  0.00    +0.000 C 
BRANCH  23  24
ATOM     24  C   UNL     1       6.313   5.441  18.359  0.00  0.00    +0.000 A 
ATOM     25  N   UNL     1       6.543   4.761  19.466  0.00  0.00    +0.000 NA
ATOM     26  N   UNL     1       7.696   5.245  20.034  0.00  0.00    +0.000 NA
ATOM     27  C   UNL     1       8.123   6.232  19.284  0.00  0.00    +0.000 A 
ATOM     28  N   UNL     1       7.275   6.404  18.231  0.00  0.00    +0.000 N 
ATOM     29  C   UNL     1       7.379   7.422  17.223  0.00  0.00    +0.000 C 
ENDBRANCH  23  24
ENDBRANCH  22  23
ENDBRANCH   1  22
TORSDOF 6
ENDMDL
MODEL 6
REMARK VINA RESULT:      -7.9      4.055      8.878
REMARK  Name = 
REMARK  9 active torsions:
REMARK  status: ('A' for Active; 'I' for Inactive)
REMARK    1  A    between atoms: C_1  and  C_2
REMARK    2  A    between atoms: C_2  and  C_3
REMARK    3  A    between atoms: C_2  and  C_10
REMARK    4  A    between atoms: C_3  and  C_4
REMARK    5  A    between atoms: N_8  and  C_9
REMARK    6  A    between atoms: C_14  and  N_15
REMARK    7  A    between atoms: C_16  and  C_18
REMARK    8  A    between atoms: C_19  and  C_20
REMARK    9  A    between atoms: N_24  and  C_25
REMARK                            x       y       z     vdW  Elec       q    Type
REMARK                         _______ _______ _______ _____ _____    ______ ____
ROOT
ATOM      1  C   UNL     1       4.503   5.569  17.356  0.00  0.00    +0.000 A 
ATOM      2  C   UNL     1       3.726   4.533  17.893  0.00  0.00    +0.000 A 
ATOM      3  C   UNL     1       2.437   4.782  18.354  0.00  0.00    +0.000 A 
ATOM      4  C   UNL     1       1.909   6.072  18.307  0.00  0.00    +0.000 A 
ATOM      5  C   UNL     1       2.667   7.133  17.810  0.00  0.00    +0.000 A 
ATOM      6  C   UNL     1       3.961   6.869  17.328  0.00  0.00    +0.000 A 
ENDROOT
BRANCH   5   7
ATOM      7  N   UNL     1       2.220   8.476  17.803  0.00  0.00    +0.000 N 
ATOM      8  C   UNL     1       1.690   9.177  18.871  0.00  0.00    +0.000 C 
ATOM      9  O   UNL     1       1.407   8.714  19.967  0.00  0.00    +0.000 OA
ATOM     10  H   UNL     1       2.320   8.957  16.919  0.00  0.00    +0.000 HD
BRANCH   8  11
ATOM     11  C   UNL     1       1.492  10.626  18.615  0.00  0.00    +0.000 C 
ATOM     12  C   UNL     1       0.367  11.328  18.893  0.00  0.00    +0.000 C 
ATOM     13  N   UNL     1       0.583  12.677  18.525  0.00  0.00    +0.000 N 
ATOM     14  C   UNL     1      -0.329  13.799  18.569  0.00  0.00    +0.000 C 
ATOM     15  C   UNL     1       2.005  12.933  18.319  0.00  0.00    +0.000 C 
ATOM     16  C   UNL     1       2.563  11.527  18.058  0.00  0.00    +0.000 C 
BRANCH  12  17
ATOM     17  C   UNL     1      -0.914  10.759  19.503  0.00  0.00    +0.000 C 
ATOM     18  F   UNL     1      -1.929  11.669  19.528  0.00  0.00    +0.000 F 
ATOM     19  F   UNL     1      -1.386   9.698  18.800  0.00  0.00    +0.000 F 
ATOM     20  F   UNL     1      -0.758  10.375  20.797  0.00  0.00    +0.000 F 
ENDBRANCH  12  17
ENDBRANCH   8  11
ENDBRANCH   5   7
BRANCH   1  22
ATOM     21  C   UNL     1       6.889   4.818  17.960  0.00  0.00    +0.000 C 
ATOM     22  C   UNL     1       5.908   5.244  16.860  0.00  0.00    +0.000 C 
BRANCH  22  23
ATOM     23  C   UNL     1       5.893   4.278  15.655  0.00  0.00    +0.000 C 
BRANCH  23  24
ATOM     24  C   UNL     1       6.767   4.712  14.521  0.00  0.00    +0.000 A 
ATOM     25  N   UNL     1       7.763   5.575  14.596  0.00  0.00    +0.000 NA
ATOM     26  N   UNL     1       8.343   5.668  13.354  0.00  0.00    +0.000 NA
ATOM     27  C   UNL     1       7.667   4.892  12.542  0.00  0.00    +0.000 A 
ATOM     28  N   UNL     1       6.656   4.287  13.226  0.00  0.00    +0.000 N 
ATOM     29  C   UNL     1       5.667   3.408  12.666  0.00  0.00    +0.000 C 
ENDBRANCH  23  24
ENDBRANCH  22  23
ENDBRANCH   1  22
TORSDOF 6
ENDMDL
MODEL 7
REMARK VINA RESULT:      -7.9      4.287      8.951
REMARK  Name = 
REMARK  9 active torsions:
REMARK  status: ('A' for Active; 'I' for Inactive)
REMARK    1  A    between atoms: C_1  and  C_2
REMARK    2  A    between atoms: C_2  and  C_3
REMARK    3  A    between atoms: C_2  and  C_10
REMARK    4  A    between atoms: C_3  and  C_4
REMARK    5  A    between atoms: N_8  and  C_9
REMARK    6  A    between atoms: C_14  and  N_15
REMARK    7  A    between atoms: C_16  and  C_18
REMARK    8  A    between atoms: C_19  and  C_20
REMARK    9  A    between atoms: N_24  and  C_25
REMARK                            x       y       z     vdW  Elec       q    Type
REMARK                         _______ _______ _______ _____ _____    ______ ____
ROOT
ATOM      1  C   UNL     1       2.231   7.261  19.659  0.00  0.00    +0.000 A 
ATOM      2  C   UNL     1       2.530   7.637  18.341  0.00  0.00    +0.000 A 
ATOM      3  C   UNL     1       2.054   8.837  17.823  0.00  0.00    +0.000 A 
ATOM      4  C   UNL     1       1.255   9.673  18.602  0.00  0.00    +0.000 A 
ATOM      5  C   UNL     1       0.911   9.315  19.906  0.00  0.00    +0.000 A 
ATOM      6  C   UNL     1       1.412   8.110  20.429  0.00  0.00    +0.000 A 
ENDROOT
BRANCH   5   7
ATOM      7  N   UNL     1       0.045  10.081  20.723  0.00  0.00    +0.000 N 
ATOM      8  C   UNL     1       0.335  11.288  21.333  0.00  0.00    +0.000 C 
ATOM      9  O   UNL     1       1.428  11.834  21.366  0.00  0.00    +0.000 OA
ATOM     10  H   UNL     1      -0.880   9.692  20.851  0.00  0.00    +0.000 HD
BRANCH   8  11
ATOM     11  C   UNL     1      -0.834  11.950  21.967  0.00  0.00    +0.000 C 
ATOM     12  C   UNL     1      -1.413  13.098  21.542  0.00  0.00    +0.000 C 
ATOM     13  N   UNL     1      -2.506  13.386  22.394  0.00  0.00    +0.000 N 
ATOM     14  C   UNL     1      -3.398  14.524  22.392  0.00  0.00    +0.000 C 
ATOM     15  C   UNL     1      -2.861  12.215  23.188  0.00  0.00    +0.000 C 
ATOM     16  C   UNL     1      -1.572  11.382  23.151  0.00  0.00    +0.000 C 
BRANCH  12  17
ATOM     17  C   UNL     1      -0.964  13.937  20.345  0.00  0.00    +0.000 C 
ATOM     18  F   UNL     1       0.277  14.473  20.520  0.00  0.00    +0.000 F 
ATOM     19  F   UNL     1      -0.891  13.200  19.207  0.00  0.00    +0.000 F 
ATOM     20  F   UNL     1      -1.774  15.001  20.111  0.00  0.00    +0.000 F 
ENDBRANCH  12  17
ENDBRANCH   8  11
ENDBRANCH   5   7
BRANCH   1  22
ATOM     21  C   UNL     1       1.710   4.951  20.665  0.00  0.00    +0.000 C 
ATOM     22  C   UNL     1       2.781   5.939  20.182  0.00  0.00    +0.000 C 
BRANCH  22  23
ATOM     23  C   UNL     1       3.796   5.302  19.209  0.00  0.00    +0.000 C 
BRANCH  23  24
ATOM     24  C   UNL     1       3.290   4.070  18.528  0.00  0.00    +0.000 A 
ATOM     25  N   UNL     1       2.472   4.036  17.493  0.00  0.00    +0.000 NA
ATOM     26  N   UNL     1       2.285   2.723  17.136  0.00  0.00    +0.000 NA
ATOM     27  C   UNL     1       2.961   1.983  17.981  0.00  0.00    +0.000 A 
ATOM     28  N   UNL     1       3.592   2.785  18.884  0.00  0.00    +0.000 N 
ATOM     29  C   UNL     1       4.384   2.340  19.998  0.00  0.00    +0.000 C 
ENDBRANCH  23  24
ENDBRANCH  22  23
ENDBRANCH   1  22
TORSDOF 6
ENDMDL
MODEL 8
REMARK VINA RESULT:      -7.9      3.689      8.656
REMARK  Name = 
REMARK  9 active torsions:
REMARK  status: ('A' for Active; 'I' for Inactive)
REMARK    1  A    between atoms: C_1  and  C_2
REMARK    2  A    between atoms: C_2  and  C_3
REMARK    3  A    between atoms: C_2  and  C_10
REMARK    4  A    between atoms: C_3  and  C_4
REMARK    5  A    between atoms: N_8  and  C_9
REMARK    6  A    between atoms: C_14  and  N_15
REMARK    7  A    between atoms: C_16  and  C_18
REMARK    8  A    between atoms: C_19  and  C_20
REMARK    9  A    between atoms: N_24  and  C_25
REMARK                            x       y       z     vdW  Elec       q    Type
REMARK                         _______ _______ _______ _____ _____    ______ ____
ROOT
ATOM      1  C   UNL     1       2.322   7.308  19.426  0.00  0.00    +0.000 A 
ATOM      2  C   UNL     1       2.670   7.786  18.155  0.00  0.00    +0.000 A 
ATOM      3  C   UNL     1       2.170   9.000  17.694  0.00  0.00    +0.000 A 
ATOM      4  C   UNL     1       1.298   9.748  18.485  0.00  0.00    +0.000 A 
ATOM      5  C   UNL     1       0.905   9.287  19.742  0.00  0.00    +0.000 A 
ATOM      6  C   UNL     1       1.430   8.069  20.208  0.00  0.00    +0.000 A 
ENDROOT
BRANCH   5   7
ATOM      7  N   UNL     1      -0.033   9.959  20.562  0.00  0.00    +0.000 N 
ATOM      8  C   UNL     1       0.099  11.225  21.103  0.00  0.00    +0.000 C 
ATOM      9  O   UNL     1       1.100  11.925  21.061  0.00  0.00    +0.000 OA
ATOM     10  H   UNL     1      -0.885   9.447  20.749  0.00  0.00    +0.000 HD
BRANCH   8  11
ATOM     11  C   UNL     1      -1.129  11.742  21.759  0.00  0.00    +0.000 C 
ATOM     12  C   UNL     1      -2.233  12.195  21.116  0.00  0.00    +0.000 C 
ATOM     13  N   UNL     1      -3.188  12.575  22.089  0.00  0.00    +0.000 N 
ATOM     14  C   UNL     1      -4.494  13.170  21.911  0.00  0.00    +0.000 C 
ATOM     15  C   UNL     1      -2.832  12.036  23.398  0.00  0.00    +0.000 C 
ATOM     16  C   UNL     1      -1.327  11.771  23.252  0.00  0.00    +0.000 C 
BRANCH  12  17
ATOM     17  C   UNL     1      -2.415  12.277  19.601  0.00  0.00    +0.000 C 
ATOM     18  F   UNL     1      -1.481  13.072  19.006  0.00  0.00    +0.000 F 
ATOM     19  F   UNL     1      -2.297  11.061  19.008  0.00  0.00    +0.000 F 
ATOM     20  F   UNL     1      -3.610  12.811  19.239  0.00  0.00    +0.000 F 
ENDBRANCH  12  17
ENDBRANCH   8  11
ENDBRANCH   5   7
BRANCH   1  22
ATOM     21  C   UNL     1       1.887   5.040  20.560  0.00  0.00    +0.000 C 
ATOM     22  C   UNL     1       2.901   5.975  19.887  0.00  0.00    +0.000 C 
BRANCH  22  23
ATOM     23  C   UNL     1       3.723   5.280  18.780  0.00  0.00    +0.000 C 
BRANCH  23  24
ATOM     24  C   UNL     1       3.165   3.959  18.352  0.00  0.00    +0.000 A 
ATOM     25  N   UNL     1       2.239   3.771  17.431  0.00  0.00    +0.000 NA
ATOM     26  N   UNL     1       2.037   2.419  17.298  0.00  0.00    +0.000 NA
ATOM     27  C   UNL     1       2.814   1.815  18.164  0.00  0.00    +0.000 A 
ATOM     28  N   UNL     1       3.526   2.743  18.862  0.00  0.00    +0.000 N 
ATOM     29  C   UNL     1       4.442   2.471  19.935  0.00  0.00    +0.000 C 
ENDBRANCH  23  24
ENDBRANCH  22  23
ENDBRANCH   1  22
TORSDOF 6
ENDMDL
MODEL 9
REMARK VINA RESULT:      -7.9      3.641      8.845
REMARK  Name = 
REMARK  9 active torsions:
REMARK  status: ('A' for Active; 'I' for Inactive)
REMARK    1  A    between atoms: C_1  and  C_2
REMARK    2  A    between atoms: C_2  and  C_3
REMARK    3  A    between atoms: C_2  and  C_10
REMARK    4  A    between atoms: C_3  and  C_4
REMARK    5  A    between atoms: N_8  and  C_9
REMARK    6  A    between atoms: C_14  and  N_15
REMARK    7  A    between atoms: C_16  and  C_18
REMARK    8  A    between atoms: C_19  and  C_20
REMARK    9  A    between atoms: N_24  and  C_25
REMARK                            x       y       z     vdW  Elec       q    Type
REMARK                         _______ _______ _______ _____ _____    ______ ____
ROOT
ATOM      1  C   UNL     1       2.357   7.222  19.415  0.00  0.00    +0.000 A 
ATOM      2  C   UNL     1       2.716   7.686  18.142  0.00  0.00    +0.000 A 
ATOM      3  C   UNL     1       2.243   8.908  17.675  0.00  0.00    +0.000 A 
ATOM      4  C   UNL     1       1.387   9.679  18.462  0.00  0.00    +0.000 A 
ATOM      5  C   UNL     1       0.983   9.233  19.720  0.00  0.00    +0.000 A 
ATOM      6  C   UNL     1       1.481   8.006  20.193  0.00  0.00    +0.000 A 
ENDROOT
BRANCH   5   7
ATOM      7  N   UNL     1       0.060   9.930  20.537  0.00  0.00    +0.000 N 
ATOM      8  C   UNL     1       0.123  11.261  20.905  0.00  0.00    +0.000 C 
ATOM      9  O   UNL     1       1.051  12.026  20.686  0.00  0.00    +0.000 OA
ATOM     10  H   UNL     1      -0.725   9.381  20.862  0.00  0.00    +0.000 HD
BRANCH   8  11
ATOM     11  C   UNL     1      -1.089  11.761  21.605  0.00  0.00    +0.000 C 
ATOM     12  C   UNL     1      -2.237  12.155  21.004  0.00  0.00    +0.000 C 
ATOM     13  N   UNL     1      -3.155  12.538  22.011  0.00  0.00    +0.000 N 
ATOM     14  C   UNL     1      -4.488  13.084  21.879  0.00  0.00    +0.000 C 
ATOM     15  C   UNL     1      -2.717  12.057  23.317  0.00  0.00    +0.000 C 
ATOM     16  C   UNL     1      -1.213  11.835  23.104  0.00  0.00    +0.000 C 
BRANCH  12  17
ATOM     17  C   UNL     1      -2.497  12.178  19.498  0.00  0.00    +0.000 C 
ATOM     18  F   UNL     1      -1.634  12.998  18.833  0.00  0.00    +0.000 F 
ATOM     19  F   UNL     1      -2.347  10.951  18.937  0.00  0.00    +0.000 F 
ATOM     20  F   UNL     1      -3.733  12.641  19.181  0.00  0.00    +0.000 F 
ENDBRANCH  12  17
ENDBRANCH   8  11
ENDBRANCH   5   7
BRANCH   1  22
ATOM     21  C   UNL     1       1.886   4.994  20.614  0.00  0.00    +0.000 C 
ATOM     22  C   UNL     1       2.906   5.879  19.883  0.00  0.00    +0.000 C 
BRANCH  22  23
ATOM     23  C   UNL     1       3.660   5.132  18.761  0.00  0.00    +0.000 C 
BRANCH  23  24
ATOM     24  C   UNL     1       4.003   3.716  19.102  0.00  0.00    +0.000 A 
ATOM     25  N   UNL     1       4.962   3.327  19.921  0.00  0.00    +0.000 NA
ATOM     26  N   UNL     1       4.925   1.956  20.002  0.00  0.00    +0.000 NA
ATOM     27  C   UNL     1       3.972   1.538  19.206  0.00  0.00    +0.000 A 
ATOM     28  N   UNL     1       3.379   2.607  18.604  0.00  0.00    +0.000 N 
ATOM     29  C   UNL     1       2.330   2.548  17.623  0.00  0.00    +0.000 C 
ENDBRANCH  23  24
ENDBRANCH  22  23
ENDBRANCH   1  22
TORSDOF 6
ENDMDL
