MODEL 1
REMARK VINA RESULT:      -9.0      0.000      0.000
REMARK  Name = 
REMARK  8 active torsions:
REMARK  status: ('A' for Active; 'I' for Inactive)
REMARK    1  A    between atoms: C_1  and  N_2
REMARK    2  A    between atoms: C_6  and  C_7
REMARK    3  A    between atoms: C_7  and  C_8
REMARK    4  A    between atoms: C_8  and  C_9
REMARK    5  A    between atoms: C_13  and  N_14
REMARK    6  A    between atoms: N_14  and  C_15
REMARK    7  A    between atoms: C_15  and  C_16
REMARK    8  A    between atoms: C_22  and  C_23
REMARK                            x       y       z     vdW  Elec       q    Type
REMARK                         _______ _______ _______ _____ _____    ______ ____
ROOT
ATOM      1  C   UNL     1       4.588   4.883  17.584  0.00  0.00    +0.000 A 
ATOM      2  C   UNL     1       3.597   4.011  17.107  0.00  0.00    +0.000 A 
ATOM      3  C   UNL     1       2.336   3.946  17.699  0.00  0.00    +0.000 A 
ATOM      4  C   UNL     1       2.018   4.777  18.774  0.00  0.00    +0.000 A 
ATOM      5  C   UNL     1       2.944   5.711  19.245  0.00  0.00    +0.000 A 
ATOM      6  C   UNL     1       4.225   5.698  18.684  0.00  0.00    +0.000 A 
ENDROOT
BRANCH   1   7
ATOM      7  C   UNL     1       6.054   4.970  16.938  0.00  0.00    +0.000 C 
ATOM      8  C   UNL     1       6.707   6.372  16.790  0.00  0.00    +0.000 C 
ATOM      9  O   UNL     1       7.808   6.024  17.655  0.00  0.00    +0.000 OA
ATOM     10  C   UNL     1       7.236   4.732  17.927  0.00  0.00    +0.000 C 
BRANCH   7  11
ATOM     11  C   UNL     1       6.163   4.045  15.711  0.00  0.00    +0.000 C 
BRANCH  11  17
ATOM     12  C   UNL     1       5.688   3.385  12.623  0.00  0.00    +0.000 C 
ATOM     13  N   UNL     1       6.639   4.295  13.198  0.00  0.00    +0.000 N 
ATOM     14  C   UNL     1       7.572   4.990  12.487  0.00  0.00    +0.000 A 
ATOM     15  N   UNL     1       8.281   5.737  13.298  0.00  0.00    +0.000 NA
ATOM     16  N   UNL     1       7.813   5.521  14.569  0.00  0.00    +0.000 NA
ATOM     17  C   UNL     1       6.837   4.636  14.514  0.00  0.00    +0.000 A 
ENDBRANCH  11  17
ENDBRANCH   7  11
ENDBRANCH   1   7
BRANCH   5  18
ATOM     18  N   UNL     1       2.728   6.561  20.332  0.00  0.00    +0.000 N 
ATOM     19  H   UNL     1       3.002   6.087  21.202  0.00  0.00    +0.000 HD
BRANCH  18  20
ATOM     20  C   UNL     1       1.385   7.123  20.529  0.00  0.00    +0.000 C 
BRANCH  20  21
ATOM     21  C   UNL     1       1.307   8.558  20.010  0.00  0.00    +0.000 A 
ATOM     22  N   UNL     1       1.780   8.758  18.736  0.00  0.00    +0.000 NA
ATOM     23  C   UNL     1       1.711  10.007  18.219  0.00  0.00    +0.000 A 
ATOM     24  C   UNL     1       1.199  11.083  18.911  0.00  0.00    +0.000 A 
ATOM     25  F   UNL     1       1.155  12.299  18.355  0.00  0.00    +0.000 F 
ATOM     26  C   UNL     1       0.728  10.884  20.197  0.00  0.00    +0.000 A 
ATOM     27  C   UNL     1       0.772   9.602  20.776  0.00  0.00    +0.000 A 
BRANCH  27  28
ATOM     28  C   UNL     1       0.240   9.434  22.172  0.00  0.00    +0.000 C 
ATOM     29  F   UNL     1       1.160   9.068  23.100  0.00  0.00    +0.000 F 
ATOM     30  F   UNL     1      -0.317  10.585  22.642  0.00  0.00    +0.000 F 
ATOM     31  F   UNL     1      -0.741   8.493  22.235  0.00  0.00    +0.000 F 
ENDBRANCH  27  28
ENDBRANCH  20  21
ENDBRANCH  18  20
ENDBRANCH   5  18
TORSDOF 7
ENDMDL
MODEL 2
REMARK VINA RESULT:      -8.9      1.368      2.551
REMARK  Name = 
REMARK  8 active torsions:
REMARK  status: ('A' for Active; 'I' for Inactive)
REMARK    1  A    between atoms: C_1  and  N_2
REMARK    2  A    between atoms: C_6  and  C_7
REMARK    3  A    between atoms: C_7  and  C_8
REMARK    4  A    between atoms: C_8  and  C_9
REMARK    5  A    between atoms: C_13  and  N_14
REMARK    6  A    between atoms: N_14  and  C_15
REMARK    7  A    between atoms: C_15  and  C_16
REMARK    8  A    between atoms: C_22  and  C_23
REMARK                            x       y       z     vdW  Elec       q    Type
REMARK                         _______ _______ _______ _____ _____    ______ ____
ROOT
ATOM      1  C   UNL     1       4.185   5.057  17.962  0.00  0.00    +0.000 A 
ATOM      2  C   UNL     1       3.796   3.715  18.086  0.00  0.00    +0.000 A 
ATOM      3  C   UNL     1       2.819   3.320  19.001  0.00  0.00    +0.000 A 
ATOM      4  C   UNL     1       2.180   4.266  19.802  0.00  0.00    +0.000 A 
ATOM      5  C   UNL     1       2.481   5.624  19.671  0.00  0.00    +0.000 A 
ATOM      6  C   UNL     1       3.518   5.981  18.803  0.00  0.00    +0.000 A 
ENDROOT
BRANCH   1   7
ATOM      7  C   UNL     1       5.317   5.543  16.933  0.00  0.00    +0.000 C 
ATOM      8  C   UNL     1       5.064   6.849  16.130  0.00  0.00    +0.000 C 
ATOM      9  O   UNL     1       6.213   7.504  16.706  0.00  0.00    +0.000 OA
ATOM     10  C   UNL     1       6.477   6.376  17.560  0.00  0.00    +0.000 C 
BRANCH   7  11
ATOM     11  C   UNL     1       5.864   4.351  16.124  0.00  0.00    +0.000 C 
BRANCH  11  17
ATOM     12  C   UNL     1       5.191   3.523  13.115  0.00  0.00    +0.000 C 
ATOM     13  N   UNL     1       6.306   4.291  13.594  0.00  0.00    +0.000 N 
ATOM     14  C   UNL     1       7.329   4.741  12.812  0.00  0.00    +0.000 A 
ATOM     15  N   UNL     1       8.182   5.414  13.544  0.00  0.00    +0.000 NA
ATOM     16  N   UNL     1       7.719   5.398  14.834  0.00  0.00    +0.000 NA
ATOM     17  C   UNL     1       6.599   4.704  14.871  0.00  0.00    +0.000 A 
ENDBRANCH  11  17
ENDBRANCH   7  11
ENDBRANCH   1   7
BRANCH   5  18
ATOM     18  N   UNL     1       1.917   6.638  20.448  0.00  0.00    +0.000 N 
ATOM     19  H   UNL     1       0.944   6.398  20.678  0.00  0.00    +0.000 HD
BRANCH  18  20
ATOM     20  C   UNL     1       1.932   8.012  19.929  0.00  0.00    +0.000 C 
BRANCH  20  21
ATOM     21  C   UNL     1       1.032   8.924  20.761  0.00  0.00    +0.000 A 
ATOM     22  N   UNL     1       0.862   8.558  22.074  0.00  0.00    +0.000 NA
ATOM     23  C   UNL     1       0.094   9.347  22.862  0.00  0.00    +0.000 A 
ATOM     24  C   UNL     1      -0.528  10.489  22.408  0.00  0.00    +0.000 A 
ATOM     25  F   UNL     1      -1.278  11.234  23.228  0.00  0.00    +0.000 F 
ATOM     26  C   UNL     1      -0.363  10.857  21.084  0.00  0.00    +0.000 A 
ATOM     27  C   UNL     1       0.432  10.072  20.227  0.00  0.00    +0.000 A 
BRANCH  27  28
ATOM     28  C   UNL     1       0.589  10.517  18.799  0.00  0.00    +0.000 C 
ATOM     29  F   UNL     1       1.868  10.728  18.398  0.00  0.00    +0.000 F 
ATOM     30  F   UNL     1       0.076   9.604  17.926  0.00  0.00    +0.000 F 
ATOM     31  F   UNL     1      -0.072  11.680  18.551  0.00  0.00    +0.000 F 
ENDBRANCH  27  28
ENDBRANCH  20  21
ENDBRANCH  18  20
ENDBRANCH   5  18
TORSDOF 7
ENDMDL
MODEL 3
REMARK VINA RESULT:      -8.9      3.660      5.596
REMARK  Name = 
REMARK  8 active torsions:
REMARK  status: ('A' for Active; 'I' for Inactive)
REMARK    1  A    between atoms: C_1  and  N_2
REMARK    2  A    between atoms: C_6  and  C_7
REMARK    3  A    between atoms: C_7  and  C_8
REMARK    4  A    between atoms: C_8  and  C_9
REMARK    5  A    between atoms: C_13  and  N_14
REMARK    6  A    between atoms: N_14  and  C_15
REMARK    7  A    between atoms: C_15  and  C_16
REMARK    8  A    between atoms: C_22  and  C_23
REMARK                            x       y       z     vdW  Elec       q    Type
REMARK                         _______ _______ _______ _____ _____    ______ ____
ROOT
ATOM      1  C   UNL     1       2.226   7.485  19.089  0.00  0.00    +0.000 A 
ATOM      2  C   UNL     1       1.922   7.482  20.459  0.00  0.00    +0.000 A 
ATOM      3  C   UNL     1       1.226   8.535  21.054  0.00  0.00    +0.000 A 
ATOM      4  C   UNL     1       0.785   9.612  20.285  0.00  0.00    +0.000 A 
ATOM      5  C   UNL     1       1.001   9.632  18.905  0.00  0.00    +0.000 A 
ATOM      6  C   UNL     1       1.771   8.604  18.351  0.00  0.00    +0.000 A 
ENDROOT
BRANCH   1   7
ATOM      7  C   UNL     1       3.041   6.300  18.377  0.00  0.00    +0.000 C 
ATOM      8  C   UNL     1       4.165   6.683  17.376  0.00  0.00    +0.000 C 
ATOM      9  O   UNL     1       5.184   6.040  18.171  0.00  0.00    +0.000 OA
ATOM     10  C   UNL     1       4.231   5.718  19.200  0.00  0.00    +0.000 C 
BRANCH   7  11
ATOM     11  C   UNL     1       2.085   5.182  17.919  0.00  0.00    +0.000 C 
BRANCH  11  17
ATOM     12  C   UNL     1       3.358   2.253  17.896  0.00  0.00    +0.000 C 
ATOM     13  N   UNL     1       2.412   2.800  18.827  0.00  0.00    +0.000 N 
ATOM     14  C   UNL     1       1.833   2.099  19.844  0.00  0.00    +0.000 A 
ATOM     15  N   UNL     1       1.024   2.881  20.516  0.00  0.00    +0.000 NA
ATOM     16  N   UNL     1       1.061   4.117  19.925  0.00  0.00    +0.000 NA
ATOM     17  C   UNL     1       1.882   4.066  18.893  0.00  0.00    +0.000 A 
ENDBRANCH  11  17
ENDBRANCH   7  11
ENDBRANCH   1   7
BRANCH   5  18
ATOM     18  N   UNL     1       0.626  10.679  18.060  0.00  0.00    +0.000 N 
ATOM     19  H   UNL     1       1.458  11.068  17.599  0.00  0.00    +0.000 HD
BRANCH  18  20
ATOM     20  C   UNL     1      -0.140  11.798  18.626  0.00  0.00    +0.000 C 
BRANCH  20  21
ATOM     21  C   UNL     1      -1.625  11.676  18.287  0.00  0.00    +0.000 A 
ATOM     22  N   UNL     1      -1.913  11.223  17.023  0.00  0.00    +0.000 NA
ATOM     23  C   UNL     1      -3.214  11.073  16.680  0.00  0.00    +0.000 A 
ATOM     24  C   UNL     1      -4.257  11.360  17.533  0.00  0.00    +0.000 A 
ATOM     25  F   UNL     1      -5.526  11.197  17.145  0.00  0.00    +0.000 F 
ATOM     26  C   UNL     1      -3.968  11.823  18.805  0.00  0.00    +0.000 A 
ATOM     27  C   UNL     1      -2.630  11.989  19.210  0.00  0.00    +0.000 A 
BRANCH  27  28
ATOM     28  C   UNL     1      -2.367  12.485  20.606  0.00  0.00    +0.000 C 
ATOM     29  F   UNL     1      -1.643  11.647  21.389  0.00  0.00    +0.000 F 
ATOM     30  F   UNL     1      -1.685  13.665  20.602  0.00  0.00    +0.000 F 
ATOM     31  F   UNL     1      -3.520  12.724  21.288  0.00  0.00    +0.000 F 
ENDBRANCH  27  28
ENDBRANCH  20  21
ENDBRANCH  18  20
ENDBRANCH   5  18
TORSDOF 7
ENDMDL
MODEL 4
REMARK VINA RESULT:      -8.8      3.120      4.507
REMARK  Name = 
REMARK  8 active torsions:
REMARK  status: ('A' for Active; 'I' for Inactive)
REMARK    1  A    between atoms: C_1  and  N_2
REMARK    2  A    between atoms: C_6  and  C_7
REMARK    3  A    between atoms: C_7  and  C_8
REMARK    4  A    between atoms: C_8  and  C_9
REMARK    5  A    between atoms: C_13  and  N_14
REMARK    6  A    between atoms: N_14  and  C_15
REMARK    7  A    between atoms: C_15  and  C_16
REMARK    8  A    between atoms: C_22  and  C_23
REMARK                            x       y       z     vdW  Elec       q    Type
REMARK                         _______ _______ _______ _____ _____    ______ ____
ROOT
ATOM      1  C   UNL     1       2.373   7.487  19.026  0.00  0.00    +0.000 A 
ATOM      2  C   UNL     1       1.971   7.391  20.367  0.00  0.00    +0.000 A 
ATOM      3  C   UNL     1       1.169   8.368  20.960  0.00  0.00    +0.000 A 
ATOM      4  C   UNL     1       0.722   9.460  20.215  0.00  0.00    +0.000 A 
ATOM      5  C   UNL     1       1.037   9.569  18.858  0.00  0.00    +0.000 A 
ATOM      6  C   UNL     1       1.905   8.617  18.313  0.00  0.00    +0.000 A 
ENDROOT
BRANCH   1   7
ATOM      7  C   UNL     1       3.308   6.391  18.319  0.00  0.00    +0.000 C 
ATOM      8  C   UNL     1       4.282   5.573  19.212  0.00  0.00    +0.000 C 
ATOM      9  O   UNL     1       3.651   4.322  18.867  0.00  0.00    +0.000 OA
ATOM     10  C   UNL     1       2.647   4.997  18.088  0.00  0.00    +0.000 C 
BRANCH   7  11
ATOM     11  C   UNL     1       3.902   6.946  17.010  0.00  0.00    +0.000 C 
BRANCH  11  17
ATOM     12  C   UNL     1       5.070   4.308  15.643  0.00  0.00    +0.000 C 
ATOM     13  N   UNL     1       5.798   5.417  16.192  0.00  0.00    +0.000 N 
ATOM     14  C   UNL     1       7.157   5.481  16.283  0.00  0.00    +0.000 A 
ATOM     15  N   UNL     1       7.511   6.622  16.822  0.00  0.00    +0.000 NA
ATOM     16  N   UNL     1       6.364   7.318  17.103  0.00  0.00    +0.000 NA
ATOM     17  C   UNL     1       5.328   6.584  16.743  0.00  0.00    +0.000 A 
ENDBRANCH  11  17
ENDBRANCH   7  11
ENDBRANCH   1   7
BRANCH   5  18
ATOM     18  N   UNL     1       0.661  10.637  18.042  0.00  0.00    +0.000 N 
ATOM     19  H   UNL     1       1.493  11.036  17.588  0.00  0.00    +0.000 HD
BRANCH  18  20
ATOM     20  C   UNL     1      -0.101  11.743  18.638  0.00  0.00    +0.000 C 
BRANCH  20  21
ATOM     21  C   UNL     1      -1.585  11.639  18.290  0.00  0.00    +0.000 A 
ATOM     22  N   UNL     1      -1.872  11.175  17.029  0.00  0.00    +0.000 NA
ATOM     23  C   UNL     1      -3.172  11.041  16.679  0.00  0.00    +0.000 A 
ATOM     24  C   UNL     1      -4.216  11.354  17.522  0.00  0.00    +0.000 A 
ATOM     25  F   UNL     1      -5.486  11.204  17.127  0.00  0.00    +0.000 F 
ATOM     26  C   UNL     1      -3.930  11.827  18.791  0.00  0.00    +0.000 A 
ATOM     27  C   UNL     1      -2.592  11.978  19.203  0.00  0.00    +0.000 A 
BRANCH  27  28
ATOM     28  C   UNL     1      -2.331  12.487  20.594  0.00  0.00    +0.000 C 
ATOM     29  F   UNL     1      -1.638  13.652  20.661  0.00  0.00    +0.000 F 
ATOM     30  F   UNL     1      -3.489  12.709  21.276  0.00  0.00    +0.000 F 
ATOM     31  F   UNL     1      -1.625  11.594  21.339  0.00  0.00    +0.000 F 
ENDBRANCH  27  28
ENDBRANCH  20  21
ENDBRANCH  18  20
ENDBRANCH   5  18
TORSDOF 7
ENDMDL
MODEL 5
REMARK VINA RESULT:      -8.8      2.722      3.913
REMARK  Name = 
REMARK  8 active torsions:
REMARK  status: ('A' for Active; 'I' for Inactive)
REMARK    1  A    between atoms: C_1  and  N_2
REMARK    2  A    between atoms: C_6  and  C_7
REMARK    3  A    between atoms: C_7  and  C_8
REMARK    4  A    between atoms: C_8  and  C_9
REMARK    5  A    between atoms: C_13  and  N_14
REMARK    6  A    between atoms: N_14  and  C_15
REMARK    7  A    between atoms: C_15  and  C_16
REMARK    8  A    between atoms: C_22  and  C_23
REMARK                            x       y       z     vdW  Elec       q    Type
REMARK                         _______ _______ _______ _____ _____    ______ ____
ROOT
ATOM      1  C   UNL     1       2.927   5.168  18.825  0.00  0.00    +0.000 A 
ATOM      2  C   UNL     1       2.372   5.121  20.113  0.00  0.00    +0.000 A 
ATOM      3  C   UNL     1       1.876   6.267  20.736  0.00  0.00    +0.000 A 
ATOM      4  C   UNL     1       1.895   7.494  20.073  0.00  0.00    +0.000 A 
ATOM      5  C   UNL     1       2.373   7.584  18.763  0.00  0.00    +0.000 A 
ATOM      6  C   UNL     1       2.935   6.436  18.195  0.00  0.00    +0.000 A 
ENDROOT
BRANCH   1   7
ATOM      7  C   UNL     1       3.522   3.873  18.087  0.00  0.00    +0.000 C 
ATOM      8  C   UNL     1       3.487   2.517  18.845  0.00  0.00    +0.000 C 
ATOM      9  O   UNL     1       2.642   1.906  17.847  0.00  0.00    +0.000 OA
ATOM     10  C   UNL     1       2.538   3.144  17.121  0.00  0.00    +0.000 C 
BRANCH   7  11
ATOM     11  C   UNL     1       4.846   4.213  17.377  0.00  0.00    +0.000 C 
BRANCH  11  17
ATOM     12  C   UNL     1       6.627   6.778  16.708  0.00  0.00    +0.000 C 
ATOM     13  N   UNL     1       6.663   5.957  17.886  0.00  0.00    +0.000 N 
ATOM     14  C   UNL     1       7.551   6.112  18.910  0.00  0.00    +0.000 A 
ATOM     15  N   UNL     1       7.319   5.214  19.837  0.00  0.00    +0.000 NA
ATOM     16  N   UNL     1       6.266   4.447  19.410  0.00  0.00    +0.000 NA
ATOM     17  C   UNL     1       5.882   4.879  18.225  0.00  0.00    +0.000 A 
ENDBRANCH  11  17
ENDBRANCH   7  11
ENDBRANCH   1   7
BRANCH   5  18
ATOM     18  N   UNL     1       2.459   8.770  18.032  0.00  0.00    +0.000 N 
ATOM     19  H   UNL     1       3.185   9.375  18.437  0.00  0.00    +0.000 HD
BRANCH  18  20
ATOM     20  C   UNL     1       1.245   9.579  17.859  0.00  0.00    +0.000 C 
BRANCH  20  21
ATOM     21  C   UNL     1       1.402  10.954  18.506  0.00  0.00    +0.000 A 
ATOM     22  N   UNL     1       2.438  11.721  18.033  0.00  0.00    +0.000 NA
ATOM     23  C   UNL     1       2.606  12.958  18.557  0.00  0.00    +0.000 A 
ATOM     24  C   UNL     1       1.795  13.477  19.542  0.00  0.00    +0.000 A 
ATOM     25  F   UNL     1       2.004  14.706  20.028  0.00  0.00    +0.000 F 
ATOM     26  C   UNL     1       0.754  12.702  20.025  0.00  0.00    +0.000 A 
ATOM     27  C   UNL     1       0.535  11.412  19.507  0.00  0.00    +0.000 A 
BRANCH  27  28
ATOM     28  C   UNL     1      -0.614  10.612  20.057  0.00  0.00    +0.000 C 
ATOM     29  F   UNL     1      -1.321   9.910  19.135  0.00  0.00    +0.000 F 
ATOM     30  F   UNL     1      -0.198   9.696  20.976  0.00  0.00    +0.000 F 
ATOM     31  F   UNL     1      -1.521  11.397  20.698  0.00  0.00    +0.000 F 
ENDBRANCH  27  28
ENDBRANCH  20  21
ENDBRANCH  18  20
ENDBRANCH   5  18
TORSDOF 7
ENDMDL
MODEL 6
REMARK VINA RESULT:      -8.8      3.069      4.440
REMARK  Name = 
REMARK  8 active torsions:
REMARK  status: ('A' for Active; 'I' for Inactive)
REMARK    1  A    between atoms: C_1  and  N_2
REMARK    2  A    between atoms: C_6  and  C_7
REMARK    3  A    between atoms: C_7  and  C_8
REMARK    4  A    between atoms: C_8  and  C_9
REMARK    5  A    between atoms: C_13  and  N_14
REMARK    6  A    between atoms: N_14  and  C_15
REMARK    7  A    between atoms: C_15  and  C_16
REMARK    8  A    between atoms: C_22  and  C_23
REMARK                            x       y       z     vdW  Elec       q    Type
REMARK                         _______ _______ _______ _____ _____    ______ ____
ROOT
ATOM      1  C   UNL     1       2.360   5.632  19.302  0.00  0.00    +0.000 A 
ATOM      2  C   UNL     1       2.741   6.143  18.052  0.00  0.00    +0.000 A 
ATOM      3  C   UNL     1       2.621   7.501  17.752  0.00  0.00    +0.000 A 
ATOM      4  C   UNL     1       2.140   8.395  18.709  0.00  0.00    +0.000 A 
ATOM      5  C   UNL     1       1.811   7.949  19.992  0.00  0.00    +0.000 A 
ATOM      6  C   UNL     1       1.867   6.573  20.238  0.00  0.00    +0.000 A 
ENDROOT
BRANCH   1   7
ATOM      7  C   UNL     1       2.469   4.075  19.674  0.00  0.00    +0.000 C 
ATOM      8  C   UNL     1       2.436   3.677  21.176  0.00  0.00    +0.000 C 
ATOM      9  O   UNL     1       1.234   2.895  21.010  0.00  0.00    +0.000 OA
ATOM     10  C   UNL     1       1.127   3.281  19.628  0.00  0.00    +0.000 C 
BRANCH   7  11
ATOM     11  C   UNL     1       3.550   3.386  18.820  0.00  0.00    +0.000 C 
BRANCH  11  17
ATOM     12  C   UNL     1       5.332   4.064  16.258  0.00  0.00    +0.000 C 
ATOM     13  N   UNL     1       5.631   4.323  17.638  0.00  0.00    +0.000 N 
ATOM     14  C   UNL     1       6.803   4.854  18.089  0.00  0.00    +0.000 A 
ATOM     15  N   UNL     1       6.762   4.972  19.394  0.00  0.00    +0.000 NA
ATOM     16  N   UNL     1       5.545   4.500  19.811  0.00  0.00    +0.000 NA
ATOM     17  C   UNL     1       4.869   4.088  18.757  0.00  0.00    +0.000 A 
ENDBRANCH  11  17
ENDBRANCH   7  11
ENDBRANCH   1   7
BRANCH   5  18
ATOM     18  N   UNL     1       1.296   8.762  21.003  0.00  0.00    +0.000 N 
ATOM     19  H   UNL     1       1.212   8.221  21.873  0.00  0.00    +0.000 HD
BRANCH  18  20
ATOM     20  C   UNL     1       0.015   9.444  20.772  0.00  0.00    +0.000 C 
BRANCH  20  21
ATOM     21  C   UNL     1       0.234  10.885  20.313  0.00  0.00    +0.000 A 
ATOM     22  N   UNL     1       1.004  11.665  21.141  0.00  0.00    +0.000 NA
ATOM     23  C   UNL     1       1.249  12.942  20.768  0.00  0.00    +0.000 A 
ATOM     24  C   UNL     1       0.758  13.496  19.606  0.00  0.00    +0.000 A 
ATOM     25  F   UNL     1       1.028  14.766  19.283  0.00  0.00    +0.000 F 
ATOM     26  C   UNL     1      -0.024  12.714  18.773  0.00  0.00    +0.000 A 
ATOM     27  C   UNL     1      -0.301  11.377  19.115  0.00  0.00    +0.000 A 
BRANCH  27  28
ATOM     28  C   UNL     1      -1.147  10.564  18.174  0.00  0.00    +0.000 C 
ATOM     29  F   UNL     1      -2.161   9.876  18.758  0.00  0.00    +0.000 F 
ATOM     30  F   UNL     1      -1.733  11.342  17.221  0.00  0.00    +0.000 F 
ATOM     31  F   UNL     1      -0.413   9.638  17.499  0.00  0.00    +0.000 F 
ENDBRANCH  27  28
ENDBRANCH  20  21
ENDBRANCH  18  20
ENDBRANCH   5  18
TORSDOF 7
ENDMDL
MODEL 7
REMARK VINA RESULT:      -8.8      4.953      9.092
REMARK  Name = 
REMARK  8 active torsions:
REMARK  status: ('A' for Active; 'I' for Inactive)
REMARK    1  A    between atoms: C_1  and  N_2
REMARK    2  A    between atoms: C_6  and  C_7
REMARK    3  A    between atoms: C_7  and  C_8
REMARK    4  A    between atoms: C_8  and  C_9
REMARK    5  A    between atoms: C_13  and  N_14
REMARK    6  A    between atoms: N_14  and  C_15
REMARK    7  A    between atoms: C_15  and  C_16
REMARK    8  A    between atoms: C_22  and  C_23
REMARK                            x       y       z     vdW  Elec       q    Type
REMARK                         _______ _______ _______ _____ _____    ______ ____
ROOT
ATOM      1  C   UNL     1       0.765  10.251  19.522  0.00  0.00    +0.000 A 
ATOM      2  C   UNL     1       1.201  10.310  18.189  0.00  0.00    +0.000 A 
ATOM      3  C   UNL     1       1.980   9.296  17.631  0.00  0.00    +0.000 A 
ATOM      4  C   UNL     1       2.323   8.174  18.386  0.00  0.00    +0.000 A 
ATOM      5  C   UNL     1       1.858   8.032  19.696  0.00  0.00    +0.000 A 
ATOM      6  C   UNL     1       1.146   9.100  20.253  0.00  0.00    +0.000 A 
ENDROOT
BRANCH   1   7
ATOM      7  C   UNL     1      -0.118  11.407  20.200  0.00  0.00    +0.000 C 
ATOM      8  C   UNL     1      -0.917  11.059  21.486  0.00  0.00    +0.000 C 
ATOM      9  O   UNL     1      -0.199  12.031  22.275  0.00  0.00    +0.000 OA
ATOM     10  C   UNL     1       0.655  12.359  21.164  0.00  0.00    +0.000 C 
BRANCH   7  11
ATOM     11  C   UNL     1      -0.883  12.206  19.128  0.00  0.00    +0.000 C 
BRANCH  11  17
ATOM     12  C   UNL     1      -2.195  10.038  17.185  0.00  0.00    +0.000 C 
ATOM     13  N   UNL     1      -2.860  10.941  18.082  0.00  0.00    +0.000 N 
ATOM     14  C   UNL     1      -4.214  11.065  18.193  0.00  0.00    +0.000 A 
ATOM     15  N   UNL     1      -4.503  11.964  19.101  0.00  0.00    +0.000 NA
ATOM     16  N   UNL     1      -3.318  12.450  19.590  0.00  0.00    +0.000 NA
ATOM     17  C   UNL     1      -2.326  11.849  18.963  0.00  0.00    +0.000 A 
ENDBRANCH  11  17
ENDBRANCH   7  11
ENDBRANCH   1   7
BRANCH   5  18
ATOM     18  N   UNL     1       2.173   6.963  20.536  0.00  0.00    +0.000 N 
ATOM     19  H   UNL     1       2.514   7.319  21.438  0.00  0.00    +0.000 HD
BRANCH  18  20
ATOM     20  C   UNL     1       3.128   5.953  20.061  0.00  0.00    +0.000 C 
BRANCH  20  21
ATOM     21  C   UNL     1       2.405   4.703  19.562  0.00  0.00    +0.000 A 
ATOM     22  N   UNL     1       1.360   4.268  20.339  0.00  0.00    +0.000 NA
ATOM     23  C   UNL     1       0.670   3.179  19.929  0.00  0.00    +0.000 A 
ATOM     24  C   UNL     1       0.971   2.484  18.778  0.00  0.00    +0.000 A 
ATOM     25  F   UNL     1       0.258   1.411  18.417  0.00  0.00    +0.000 F 
ATOM     26  C   UNL     1       2.029   2.917  17.997  0.00  0.00    +0.000 A 
ATOM     27  C   UNL     1       2.772   4.049  18.378  0.00  0.00    +0.000 A 
BRANCH  27  28
ATOM     28  C   UNL     1       3.906   4.486  17.492  0.00  0.00    +0.000 C 
ATOM     29  F   UNL     1       4.088   3.735  16.377  0.00  0.00    +0.000 F 
ATOM     30  F   UNL     1       3.739   5.764  17.051  0.00  0.00    +0.000 F 
ATOM     31  F   UNL     1       5.099   4.472  18.146  0.00  0.00    +0.000 F 
ENDBRANCH  27  28
ENDBRANCH  20  21
ENDBRANCH  18  20
ENDBRANCH   5  18
TORSDOF 7
ENDMDL
MODEL 8
REMARK VINA RESULT:      -8.8      1.046      1.330
REMARK  Name = 
REMARK  8 active torsions:
REMARK  status: ('A' for Active; 'I' for Inactive)
REMARK    1  A    between atoms: C_1  and  N_2
REMARK    2  A    between atoms: C_6  and  C_7
REMARK    3  A    between atoms: C_7  and  C_8
REMARK    4  A    between atoms: C_8  and  C_9
REMARK    5  A    between atoms: C_13  and  N_14
REMARK    6  A    between atoms: N_14  and  C_15
REMARK    7  A    between atoms: C_15  and  C_16
REMARK    8  A    between atoms: C_22  and  C_23
REMARK                            x       y       z     vdW  Elec       q    Type
REMARK                         _______ _______ _______ _____ _____    ______ ____
ROOT
ATOM      1  C   UNL     1       4.547   5.161  17.311  0.00  0.00    +0.000 A 
ATOM      2  C   UNL     1       3.695   4.052  17.426  0.00  0.00    +0.000 A 
ATOM      3  C   UNL     1       2.368   4.191  17.835  0.00  0.00    +0.000 A 
ATOM      4  C   UNL     1       1.844   5.453  18.114  0.00  0.00    +0.000 A 
ATOM      5  C   UNL     1       2.629   6.597  17.949  0.00  0.00    +0.000 A 
ATOM      6  C   UNL     1       3.976   6.421  17.616  0.00  0.00    +0.000 A 
ENDROOT
BRANCH   1   7
ATOM      7  C   UNL     1       6.082   5.035  16.862  0.00  0.00    +0.000 C 
ATOM      8  C   UNL     1       6.918   6.339  16.740  0.00  0.00    +0.000 C 
ATOM      9  O   UNL     1       7.850   5.915  17.757  0.00  0.00    +0.000 OA
ATOM     10  C   UNL     1       7.091   4.719  18.008  0.00  0.00    +0.000 C 
BRANCH   7  11
ATOM     11  C   UNL     1       6.228   4.032  15.702  0.00  0.00    +0.000 C 
BRANCH  11  17
ATOM     12  C   UNL     1       5.583   3.259  12.671  0.00  0.00    +0.000 C 
ATOM     13  N   UNL     1       6.564   4.187  13.159  0.00  0.00    +0.000 N 
ATOM     14  C   UNL     1       7.457   4.854  12.372  0.00  0.00    +0.000 A 
ATOM     15  N   UNL     1       8.210   5.628  13.115  0.00  0.00    +0.000 NA
ATOM     16  N   UNL     1       7.813   5.461  14.417  0.00  0.00    +0.000 NA
ATOM     17  C   UNL     1       6.835   4.576  14.448  0.00  0.00    +0.000 A 
ENDBRANCH  11  17
ENDBRANCH   7  11
ENDBRANCH   1   7
BRANCH   5  18
ATOM     18  N   UNL     1       2.203   7.896  18.232  0.00  0.00    +0.000 N 
ATOM     19  H   UNL     1       2.919   8.570  17.930  0.00  0.00    +0.000 HD
BRANCH  18  20
ATOM     20  C   UNL     1       1.827   8.228  19.613  0.00  0.00    +0.000 C 
BRANCH  20  21
ATOM     21  C   UNL     1       1.013   9.519  19.667  0.00  0.00    +0.000 A 
ATOM     22  N   UNL     1       1.167  10.368  18.598  0.00  0.00    +0.000 NA
ATOM     23  C   UNL     1       0.450  11.515  18.585  0.00  0.00    +0.000 A 
ATOM     24  C   UNL     1      -0.419  11.873  19.593  0.00  0.00    +0.000 A 
ATOM     25  F   UNL     1      -1.105  13.020  19.533  0.00  0.00    +0.000 F 
ATOM     26  C   UNL     1      -0.571  11.023  20.674  0.00  0.00    +0.000 A 
ATOM     27  C   UNL     1       0.149   9.815  20.730  0.00  0.00    +0.000 A 
BRANCH  27  28
ATOM     28  C   UNL     1      -0.058   8.919  21.921  0.00  0.00    +0.000 C 
ATOM     29  F   UNL     1      -0.808   9.450  22.918  0.00  0.00    +0.000 F 
ATOM     30  F   UNL     1      -0.676   7.755  21.576  0.00  0.00    +0.000 F 
ATOM     31  F   UNL     1       1.121   8.558  22.498  0.00  0.00    +0.000 F 
ENDBRANCH  27  28
ENDBRANCH  20  21
ENDBRANCH  18  20
ENDBRANCH   5  18
TORSDOF 7
ENDMDL
MODEL 9
REMARK VINA RESULT:      -8.7      2.775      4.396
REMARK  Name = 
REMARK  8 active torsions:
REMARK  status: ('A' for Active; 'I' for Inactive)
REMARK    1  A    between atoms: C_1  and  N_2
REMARK    2  A    between atoms: C_6  and  C_7
REMARK    3  A    between atoms: C_7  and  C_8
REMARK    4  A    between atoms: C_8  and  C_9
REMARK    5  A    between atoms: C_13  and  N_14
REMARK    6  A    between atoms: N_14  and  C_15
REMARK    7  A    between atoms: C_15  and  C_16
REMARK    8  A    between atoms: C_22  and  C_23
REMARK                            x       y       z     vdW  Elec       q    Type
REMARK                         _______ _______ _______ _____ _____    ______ ____
ROOT
ATOM      1  C   UNL     1       2.915   5.573  18.818  0.00  0.00    +0.000 A 
ATOM      2  C   UNL     1       3.353   6.330  17.720  0.00  0.00    +0.000 A 
ATOM      3  C   UNL     1       3.065   7.691  17.611  0.00  0.00    +0.000 A 
ATOM      4  C   UNL     1       2.351   8.343  18.616  0.00  0.00    +0.000 A 
ATOM      5  C   UNL     1       1.950   7.653  19.762  0.00  0.00    +0.000 A 
ATOM      6  C   UNL     1       2.184   6.274  19.807  0.00  0.00    +0.000 A 
ENDROOT
BRANCH   1   7
ATOM      7  C   UNL     1       3.213   4.003  18.967  0.00  0.00    +0.000 C 
ATOM      8  C   UNL     1       3.011   3.348  20.361  0.00  0.00    +0.000 C 
ATOM      9  O   UNL     1       1.991   2.455  19.867  0.00  0.00    +0.000 OA
ATOM     10  C   UNL     1       2.040   3.059  18.562  0.00  0.00    +0.000 C 
BRANCH   7  11
ATOM     11  C   UNL     1       4.511   3.624  18.228  0.00  0.00    +0.000 C 
BRANCH  11  17
ATOM     12  C   UNL     1       6.878   4.618  16.329  0.00  0.00    +0.000 C 
ATOM     13  N   UNL     1       6.741   4.807  17.746  0.00  0.00    +0.000 N 
ATOM     14  C   UNL     1       7.676   5.401  18.541  0.00  0.00    +0.000 A 
ATOM     15  N   UNL     1       7.251   5.427  19.781  0.00  0.00    +0.000 NA
ATOM     16  N   UNL     1       6.017   4.829  19.804  0.00  0.00    +0.000 NA
ATOM     17  C   UNL     1       5.716   4.435  18.582  0.00  0.00    +0.000 A 
ENDBRANCH  11  17
ENDBRANCH   7  11
ENDBRANCH   1   7
BRANCH   5  18
ATOM     18  N   UNL     1       1.207   8.212  20.803  0.00  0.00    +0.000 N 
ATOM     19  H   UNL     1       0.210   8.217  20.554  0.00  0.00    +0.000 HD
BRANCH  18  20
ATOM     20  C   UNL     1       1.560   9.558  21.275  0.00  0.00    +0.000 C 
BRANCH  20  21
ATOM     21  C   UNL     1       0.309  10.378  21.586  0.00  0.00    +0.000 A 
ATOM     22  N   UNL     1      -0.114  10.350  22.892  0.00  0.00    +0.000 NA
ATOM     23  C   UNL     1      -1.204  11.079  23.226  0.00  0.00    +0.000 A 
ATOM     24  C   UNL     1      -1.910  11.839  22.319  0.00  0.00    +0.000 A 
ATOM     25  F   UNL     1      -2.983  12.541  22.700  0.00  0.00    +0.000 F 
ATOM     26  C   UNL     1      -1.490  11.863  21.000  0.00  0.00    +0.000 A 
ATOM     27  C   UNL     1      -0.357  11.126  20.606  0.00  0.00    +0.000 A 
BRANCH  27  28
ATOM     28  C   UNL     1       0.066  11.191  19.164  0.00  0.00    +0.000 C 
ATOM     29  F   UNL     1      -0.161  10.064  18.445  0.00  0.00    +0.000 F 
ATOM     30  F   UNL     1      -0.575  12.190  18.494  0.00  0.00    +0.000 F 
ATOM     31  F   UNL     1       1.395  11.451  19.034  0.00  0.00    +0.000 F 
ENDBRANCH  27  28
ENDBRANCH  20  21
ENDBRANCH  18  20
ENDBRANCH   5  18
TORSDOF 7
ENDMDL
