MODEL 1
REMARK VINA RESULT:      -7.9      0.000      0.000
REMARK  Name = 
REMARK  6 active torsions:
REMARK  status: ('A' for Active; 'I' for Inactive)
REMARK    1  A    between atoms: C_1  and  C_2
REMARK    2  A    between atoms: C_5  and  C_6
REMARK    3  A    between atoms: C_6  and  N_7
REMARK    4  A    between atoms: C_8  and  C_9
REMARK    5  A    between atoms: N_13  and  C_14
REMARK    6  A    between atoms: C_14  and  C_15
REMARK                            x       y       z     vdW  Elec       q    Type
REMARK                         _______ _______ _______ _____ _____    ______ ____
ROOT
ATOM      1  N   UNL     1      -1.096  11.592  19.174  0.00  0.00    +0.000 N 
ATOM      2  C   UNL     1      -1.911  12.276  20.065  0.00  0.00    +0.000 A 
ATOM      3  N   UNL     1      -3.163  12.239  19.642  0.00  0.00    +0.000 NA
ATOM      4  C   UNL     1      -3.170  11.512  18.481  0.00  0.00    +0.000 A 
ATOM      5  C   UNL     1      -4.231  11.210  17.617  0.00  0.00    +0.000 A 
ATOM      6  C   UNL     1      -3.972  10.453  16.467  0.00  0.00    +0.000 A 
ATOM      7  C   UNL     1      -2.685   9.993  16.192  0.00  0.00    +0.000 A 
ATOM      8  C   UNL     1      -1.615  10.287  17.042  0.00  0.00    +0.000 A 
ATOM      9  C   UNL     1      -1.893  11.066  18.178  0.00  0.00    +0.000 A 
ENDROOT
BRANCH   2  10
ATOM     10  C   UNL     1      -1.451  13.061  21.277  0.00  0.00    +0.000 C 
ATOM     11  C   UNL     1      -1.473  12.246  22.572  0.00  0.00    +0.000 C 
ATOM     12  C   UNL     1      -2.854  12.492  23.132  0.00  0.00    +0.000 C 
ATOM     13  O   UNL     1      -3.401  11.787  23.961  0.00  0.00    +0.000 OA
ATOM     14  N   UNL     1      -3.329  13.663  22.579  0.00  0.00    +0.000 N 
ATOM     15  C   UNL     1      -2.411  14.222  21.611  0.00  0.00    +0.000 C 
BRANCH  14  16
ATOM     16  C   UNL     1      -4.639  14.219  22.850  0.00  0.00    +0.000 C 
BRANCH  16  17
ATOM     17  C   UNL     1      -5.779  13.295  22.491  0.00  0.00    +0.000 A 
ATOM     18  C   UNL     1      -5.954  12.834  21.179  0.00  0.00    +0.000 A 
ATOM     19  C   UNL     1      -7.017  11.982  20.862  0.00  0.00    +0.000 A 
ATOM     20  C   UNL     1      -7.912  11.575  21.851  0.00  0.00    +0.000 A 
ATOM     21  C   UNL     1      -7.742  12.017  23.160  0.00  0.00    +0.000 A 
ATOM     22  C   UNL     1      -6.686  12.874  23.478  0.00  0.00    +0.000 A 
ENDBRANCH  16  17
ENDBRANCH  14  16
ENDBRANCH   2  10
BRANCH   1  23
ATOM     23  C   UNL     1       0.357  11.454  19.190  0.00  0.00    +0.000 C 
BRANCH  23  28
ATOM     24  C   UNL     1       1.916   6.026  20.664  0.00  0.00    +0.000 C 
ATOM     25  C   UNL     1       1.595   7.444  20.294  0.00  0.00    +0.000 A 
ATOM     26  C   UNL     1       1.938   7.949  19.037  0.00  0.00    +0.000 A 
ATOM     27  C   UNL     1       1.581   9.250  18.671  0.00  0.00    +0.000 A 
ATOM     28  C   UNL     1       0.862  10.072  19.549  0.00  0.00    +0.000 A 
ATOM     29  C   UNL     1       0.560   9.571  20.828  0.00  0.00    +0.000 A 
ATOM     30  C   UNL     1       0.924   8.274  21.196  0.00  0.00    +0.000 A 
ENDBRANCH  23  28
ENDBRANCH   1  23
TORSDOF 5
ENDMDL
MODEL 2
REMARK VINA RESULT:      -7.7      0.650      1.128
REMARK  Name = 
REMARK  6 active torsions:
REMARK  status: ('A' for Active; 'I' for Inactive)
REMARK    1  A    between atoms: C_1  and  C_2
REMARK    2  A    between atoms: C_5  and  C_6
REMARK    3  A    between atoms: C_6  and  N_7
REMARK    4  A    between atoms: C_8  and  C_9
REMARK    5  A    between atoms: N_13  and  C_14
REMARK    6  A    between atoms: C_14  and  C_15
REMARK                            x       y       z     vdW  Elec       q    Type
REMARK                         _______ _______ _______ _____ _____    ______ ____
ROOT
ATOM      1  N   UNL     1      -1.004  11.513  18.884  0.00  0.00    +0.000 N 
ATOM      2  C   UNL     1      -1.723  12.130  19.896  0.00  0.00    +0.000 A 
ATOM      3  N   UNL     1      -3.009  12.138  19.589  0.00  0.00    +0.000 NA
ATOM      4  C   UNL     1      -3.134  11.506  18.380  0.00  0.00    +0.000 A 
ATOM      5  C   UNL     1      -4.273  11.283  17.596  0.00  0.00    +0.000 A 
ATOM      6  C   UNL     1      -4.132  10.618  16.371  0.00  0.00    +0.000 A 
ATOM      7  C   UNL     1      -2.883  10.170  15.944  0.00  0.00    +0.000 A 
ATOM      8  C   UNL     1      -1.736  10.385  16.713  0.00  0.00    +0.000 A 
ATOM      9  C   UNL     1      -1.897  11.074  17.926  0.00  0.00    +0.000 A 
ENDROOT
BRANCH   2  10
ATOM     10  C   UNL     1      -1.143  12.812  21.118  0.00  0.00    +0.000 C 
ATOM     11  C   UNL     1      -1.208  11.951  22.382  0.00  0.00    +0.000 C 
ATOM     12  C   UNL     1      -2.535  12.317  23.002  0.00  0.00    +0.000 C 
ATOM     13  O   UNL     1      -3.126  11.639  23.824  0.00  0.00    +0.000 OA
ATOM     14  N   UNL     1      -2.902  13.552  22.512  0.00  0.00    +0.000 N 
ATOM     15  C   UNL     1      -1.963  14.052  21.532  0.00  0.00    +0.000 C 
BRANCH  14  16
ATOM     16  C   UNL     1      -4.137  14.231  22.853  0.00  0.00    +0.000 C 
BRANCH  16  17
ATOM     17  C   UNL     1      -5.354  13.664  22.160  0.00  0.00    +0.000 A 
ATOM     18  C   UNL     1      -5.563  13.855  20.788  0.00  0.00    +0.000 A 
ATOM     19  C   UNL     1      -6.697  13.327  20.162  0.00  0.00    +0.000 A 
ATOM     20  C   UNL     1      -7.631  12.598  20.897  0.00  0.00    +0.000 A 
ATOM     21  C   UNL     1      -7.429  12.392  22.259  0.00  0.00    +0.000 A 
ATOM     22  C   UNL     1      -6.301  12.924  22.887  0.00  0.00    +0.000 A 
ENDBRANCH  16  17
ENDBRANCH  14  16
ENDBRANCH   2  10
BRANCH   1  23
ATOM     23  C   UNL     1       0.442  11.360  18.756  0.00  0.00    +0.000 C 
BRANCH  23  28
ATOM     24  C   UNL     1       2.825   6.122  19.727  0.00  0.00    +0.000 C 
ATOM     25  C   UNL     1       2.138   7.432  19.479  0.00  0.00    +0.000 A 
ATOM     26  C   UNL     1       1.460   8.089  20.508  0.00  0.00    +0.000 A 
ATOM     27  C   UNL     1       0.875   9.340  20.291  0.00  0.00    +0.000 A 
ATOM     28  C   UNL     1       0.964   9.969  19.042  0.00  0.00    +0.000 A 
ATOM     29  C   UNL     1       1.609   9.279  17.999  0.00  0.00    +0.000 A 
ATOM     30  C   UNL     1       2.187   8.025  18.215  0.00  0.00    +0.000 A 
ENDBRANCH  23  28
ENDBRANCH   1  23
TORSDOF 5
ENDMDL
MODEL 3
REMARK VINA RESULT:      -7.6      5.749     11.150
REMARK  Name = 
REMARK  6 active torsions:
REMARK  status: ('A' for Active; 'I' for Inactive)
REMARK    1  A    between atoms: C_1  and  C_2
REMARK    2  A    between atoms: C_5  and  C_6
REMARK    3  A    between atoms: C_6  and  N_7
REMARK    4  A    between atoms: C_8  and  C_9
REMARK    5  A    between atoms: N_13  and  C_14
REMARK    6  A    between atoms: C_14  and  C_15
REMARK                            x       y       z     vdW  Elec       q    Type
REMARK                         _______ _______ _______ _____ _____    ______ ____
ROOT
ATOM      1  N   UNL     1       3.318   5.641  18.551  0.00  0.00    +0.000 N 
ATOM      2  C   UNL     1       3.816   5.249  17.317  0.00  0.00    +0.000 A 
ATOM      3  N   UNL     1       3.514   3.981  17.096  0.00  0.00    +0.000 NA
ATOM      4  C   UNL     1       2.799   3.547  18.181  0.00  0.00    +0.000 A 
ATOM      5  C   UNL     1       2.277   2.278  18.463  0.00  0.00    +0.000 A 
ATOM      6  C   UNL     1       1.589   2.082  19.668  0.00  0.00    +0.000 A 
ATOM      7  C   UNL     1       1.411   3.133  20.566  0.00  0.00    +0.000 A 
ATOM      8  C   UNL     1       1.927   4.405  20.300  0.00  0.00    +0.000 A 
ATOM      9  C   UNL     1       2.632   4.574  19.097  0.00  0.00    +0.000 A 
ENDROOT
BRANCH   2  10
ATOM     10  C   UNL     1       4.683   6.083  16.396  0.00  0.00    +0.000 C 
ATOM     11  C   UNL     1       5.719   5.260  15.628  0.00  0.00    +0.000 C 
ATOM     12  C   UNL     1       6.933   5.274  16.526  0.00  0.00    +0.000 C 
ATOM     13  O   UNL     1       7.854   4.481  16.458  0.00  0.00    +0.000 OA
ATOM     14  N   UNL     1       6.819   6.360  17.368  0.00  0.00    +0.000 N 
ATOM     15  C   UNL     1       5.574   7.071  17.179  0.00  0.00    +0.000 C 
BRANCH  14  16
ATOM     16  C   UNL     1       7.780   6.695  18.400  0.00  0.00    +0.000 C 
BRANCH  16  17
ATOM     17  C   UNL     1       8.186   8.151  18.403  0.00  0.00    +0.000 A 
ATOM     18  C   UNL     1       9.025   8.669  19.398  0.00  0.00    +0.000 A 
ATOM     19  C   UNL     1       9.388  10.020  19.389  0.00  0.00    +0.000 A 
ATOM     20  C   UNL     1       8.922  10.866  18.383  0.00  0.00    +0.000 A 
ATOM     21  C   UNL     1       8.096  10.361  17.383  0.00  0.00    +0.000 A 
ATOM     22  C   UNL     1       7.728   9.014  17.394  0.00  0.00    +0.000 A 
ENDBRANCH  16  17
ENDBRANCH  14  16
ENDBRANCH   2  10
BRANCH   1  23
ATOM     23  C   UNL     1       3.490   6.915  19.241  0.00  0.00    +0.000 C 
BRANCH  23  28
ATOM     24  C   UNL     1      -0.796  10.867  18.971  0.00  0.00    +0.000 C 
ATOM     25  C   UNL     1       0.255   9.797  19.002  0.00  0.00    +0.000 A 
ATOM     26  C   UNL     1       0.950   9.444  17.842  0.00  0.00    +0.000 A 
ATOM     27  C   UNL     1       1.973   8.493  17.886  0.00  0.00    +0.000 A 
ATOM     28  C   UNL     1       2.334   7.880  19.094  0.00  0.00    +0.000 A 
ATOM     29  C   UNL     1       1.599   8.209  20.248  0.00  0.00    +0.000 A 
ATOM     30  C   UNL     1       0.571   9.154  20.201  0.00  0.00    +0.000 A 
ENDBRANCH  23  28
ENDBRANCH   1  23
TORSDOF 5
ENDMDL
MODEL 4
REMARK VINA RESULT:      -7.6      6.847     12.458
REMARK  Name = 
REMARK  6 active torsions:
REMARK  status: ('A' for Active; 'I' for Inactive)
REMARK    1  A    between atoms: C_1  and  C_2
REMARK    2  A    between atoms: C_5  and  C_6
REMARK    3  A    between atoms: C_6  and  N_7
REMARK    4  A    between atoms: C_8  and  C_9
REMARK    5  A    between atoms: N_13  and  C_14
REMARK    6  A    between atoms: C_14  and  C_15
REMARK                            x       y       z     vdW  Elec       q    Type
REMARK                         _______ _______ _______ _____ _____    ______ ____
ROOT
ATOM      1  N   UNL     1       3.829   4.662  18.516  0.00  0.00    +0.000 N 
ATOM      2  C   UNL     1       4.488   3.868  17.589  0.00  0.00    +0.000 A 
ATOM      3  N   UNL     1       3.838   2.726  17.438  0.00  0.00    +0.000 NA
ATOM      4  C   UNL     1       2.740   2.781  18.255  0.00  0.00    +0.000 A 
ATOM      5  C   UNL     1       1.751   1.819  18.497  0.00  0.00    +0.000 A 
ATOM      6  C   UNL     1       0.726   2.115  19.405  0.00  0.00    +0.000 A 
ATOM      7  C   UNL     1       0.679   3.351  20.047  0.00  0.00    +0.000 A 
ATOM      8  C   UNL     1       1.659   4.322  19.819  0.00  0.00    +0.000 A 
ATOM      9  C   UNL     1       2.689   3.996  18.921  0.00  0.00    +0.000 A 
ENDROOT
BRANCH   2  10
ATOM     10  C   UNL     1       5.814   4.178  16.927  0.00  0.00    +0.000 C 
ATOM     11  C   UNL     1       6.038   5.673  16.688  0.00  0.00    +0.000 C 
ATOM     12  C   UNL     1       5.474   5.907  15.307  0.00  0.00    +0.000 C 
ATOM     13  O   UNL     1       5.151   6.996  14.867  0.00  0.00    +0.000 OA
ATOM     14  N   UNL     1       5.453   4.695  14.650  0.00  0.00    +0.000 N 
ATOM     15  C   UNL     1       5.894   3.608  15.496  0.00  0.00    +0.000 C 
BRANCH  14  16
ATOM     16  C   UNL     1       4.950   4.506  13.304  0.00  0.00    +0.000 C 
BRANCH  16  17
ATOM     17  C   UNL     1       5.764   3.534  12.482  0.00  0.00    +0.000 A 
ATOM     18  C   UNL     1       7.127   3.749  12.241  0.00  0.00    +0.000 A 
ATOM     19  C   UNL     1       7.865   2.842  11.475  0.00  0.00    +0.000 A 
ATOM     20  C   UNL     1       7.252   1.707  10.944  0.00  0.00    +0.000 A 
ATOM     21  C   UNL     1       5.901   1.476  11.185  0.00  0.00    +0.000 A 
ATOM     22  C   UNL     1       5.160   2.384  11.945  0.00  0.00    +0.000 A 
ENDBRANCH  16  17
ENDBRANCH  14  16
ENDBRANCH   2  10
BRANCH   1  23
ATOM     23  C   UNL     1       4.231   5.955  19.057  0.00  0.00    +0.000 C 
BRANCH  23  28
ATOM     24  C   UNL     1       0.448  10.391  18.783  0.00  0.00    +0.000 C 
ATOM     25  C   UNL     1       1.368   9.207  18.806  0.00  0.00    +0.000 A 
ATOM     26  C   UNL     1       2.134   8.875  17.685  0.00  0.00    +0.000 A 
ATOM     27  C   UNL     1       3.038   7.811  17.730  0.00  0.00    +0.000 A 
ATOM     28  C   UNL     1       3.207   7.059  18.901  0.00  0.00    +0.000 A 
ATOM     29  C   UNL     1       2.399   7.371  20.009  0.00  0.00    +0.000 A 
ATOM     30  C   UNL     1       1.490   8.431  19.961  0.00  0.00    +0.000 A 
ENDBRANCH  23  28
ENDBRANCH   1  23
TORSDOF 5
ENDMDL
MODEL 5
REMARK VINA RESULT:      -7.5      1.615      2.499
REMARK  Name = 
REMARK  6 active torsions:
REMARK  status: ('A' for Active; 'I' for Inactive)
REMARK    1  A    between atoms: C_1  and  C_2
REMARK    2  A    between atoms: C_5  and  C_6
REMARK    3  A    between atoms: C_6  and  N_7
REMARK    4  A    between atoms: C_8  and  C_9
REMARK    5  A    between atoms: N_13  and  C_14
REMARK    6  A    between atoms: C_14  and  C_15
REMARK                            x       y       z     vdW  Elec       q    Type
REMARK                         _______ _______ _______ _____ _____    ______ ____
ROOT
ATOM      1  N   UNL     1      -0.944  11.519  18.750  0.00  0.00    +0.000 N 
ATOM      2  C   UNL     1      -1.604  12.223  19.747  0.00  0.00    +0.000 A 
ATOM      3  N   UNL     1      -2.905  12.220  19.510  0.00  0.00    +0.000 NA
ATOM      4  C   UNL     1      -3.099  11.494  18.364  0.00  0.00    +0.000 A 
ATOM      5  C   UNL     1      -4.281  11.220  17.664  0.00  0.00    +0.000 A 
ATOM      6  C   UNL     1      -4.211  10.457  16.491  0.00  0.00    +0.000 A 
ATOM      7  C   UNL     1      -2.990   9.963  16.034  0.00  0.00    +0.000 A 
ATOM      8  C   UNL     1      -1.801  10.229  16.720  0.00  0.00    +0.000 A 
ATOM      9  C   UNL     1      -1.891  11.014  17.881  0.00  0.00    +0.000 A 
ENDROOT
BRANCH   2  10
ATOM     10  C   UNL     1      -0.954  12.995  20.877  0.00  0.00    +0.000 C 
ATOM     11  C   UNL     1      -0.151  12.110  21.833  0.00  0.00    +0.000 C 
ATOM     12  C   UNL     1      -1.153  11.715  22.890  0.00  0.00    +0.000 C 
ATOM     13  O   UNL     1      -1.028  10.767  23.644  0.00  0.00    +0.000 OA
ATOM     14  N   UNL     1      -2.173  12.644  22.870  0.00  0.00    +0.000 N 
ATOM     15  C   UNL     1      -1.998  13.625  21.822  0.00  0.00    +0.000 C 
BRANCH  14  16
ATOM     16  C   UNL     1      -3.343  12.589  23.725  0.00  0.00    +0.000 C 
BRANCH  16  17
ATOM     17  C   UNL     1      -3.944  13.944  24.019  0.00  0.00    +0.000 A 
ATOM     18  C   UNL     1      -3.228  14.918  24.727  0.00  0.00    +0.000 A 
ATOM     19  C   UNL     1      -3.801  16.166  24.995  0.00  0.00    +0.000 A 
ATOM     20  C   UNL     1      -5.092  16.456  24.554  0.00  0.00    +0.000 A 
ATOM     21  C   UNL     1      -5.809  15.501  23.840  0.00  0.00    +0.000 A 
ATOM     22  C   UNL     1      -5.242  14.252  23.577  0.00  0.00    +0.000 A 
ENDBRANCH  16  17
ENDBRANCH  14  16
ENDBRANCH   2  10
BRANCH   1  23
ATOM     23  C   UNL     1       0.491  11.342  18.557  0.00  0.00    +0.000 C 
BRANCH  23  28
ATOM     24  C   UNL     1       2.866   6.123  19.645  0.00  0.00    +0.000 C 
ATOM     25  C   UNL     1       2.181   7.428  19.366  0.00  0.00    +0.000 A 
ATOM     26  C   UNL     1       1.489   8.101  20.376  0.00  0.00    +0.000 A 
ATOM     27  C   UNL     1       0.906   9.348  20.131  0.00  0.00    +0.000 A 
ATOM     28  C   UNL     1       1.011   9.956  18.872  0.00  0.00    +0.000 A 
ATOM     29  C   UNL     1       1.670   9.250  17.849  0.00  0.00    +0.000 A 
ATOM     30  C   UNL     1       2.246   8.001  18.094  0.00  0.00    +0.000 A 
ENDBRANCH  23  28
ENDBRANCH   1  23
TORSDOF 5
ENDMDL
MODEL 6
REMARK VINA RESULT:      -7.5      6.858     12.504
REMARK  Name = 
REMARK  6 active torsions:
REMARK  status: ('A' for Active; 'I' for Inactive)
REMARK    1  A    between atoms: C_1  and  C_2
REMARK    2  A    between atoms: C_5  and  C_6
REMARK    3  A    between atoms: C_6  and  N_7
REMARK    4  A    between atoms: C_8  and  C_9
REMARK    5  A    between atoms: N_13  and  C_14
REMARK    6  A    between atoms: C_14  and  C_15
REMARK                            x       y       z     vdW  Elec       q    Type
REMARK                         _______ _______ _______ _____ _____    ______ ____
ROOT
ATOM      1  N   UNL     1       3.851   4.607  18.559  0.00  0.00    +0.000 N 
ATOM      2  C   UNL     1       4.485   3.845  17.588  0.00  0.00    +0.000 A 
ATOM      3  N   UNL     1       3.813   2.723  17.392  0.00  0.00    +0.000 NA
ATOM      4  C   UNL     1       2.724   2.761  18.223  0.00  0.00    +0.000 A 
ATOM      5  C   UNL     1       1.719   1.807  18.430  0.00  0.00    +0.000 A 
ATOM      6  C   UNL     1       0.710   2.080  19.362  0.00  0.00    +0.000 A 
ATOM      7  C   UNL     1       0.692   3.286  20.061  0.00  0.00    +0.000 A 
ATOM      8  C   UNL     1       1.688   4.248  19.867  0.00  0.00    +0.000 A 
ATOM      9  C   UNL     1       2.703   3.944  18.945  0.00  0.00    +0.000 A 
ENDROOT
BRANCH   2  10
ATOM     10  C   UNL     1       5.811   4.161  16.927  0.00  0.00    +0.000 C 
ATOM     11  C   UNL     1       6.030   5.657  16.692  0.00  0.00    +0.000 C 
ATOM     12  C   UNL     1       5.466   5.893  15.312  0.00  0.00    +0.000 C 
ATOM     13  O   UNL     1       5.139   6.982  14.874  0.00  0.00    +0.000 OA
ATOM     14  N   UNL     1       5.448   4.683  14.652  0.00  0.00    +0.000 N 
ATOM     15  C   UNL     1       5.893   3.595  15.494  0.00  0.00    +0.000 C 
BRANCH  14  16
ATOM     16  C   UNL     1       4.945   4.495  13.305  0.00  0.00    +0.000 C 
BRANCH  16  17
ATOM     17  C   UNL     1       5.760   3.526  12.481  0.00  0.00    +0.000 A 
ATOM     18  C   UNL     1       5.184   2.368  11.941  0.00  0.00    +0.000 A 
ATOM     19  C   UNL     1       5.954   1.478  11.184  0.00  0.00    +0.000 A 
ATOM     20  C   UNL     1       7.304   1.738  10.953  0.00  0.00    +0.000 A 
ATOM     21  C   UNL     1       7.886   2.890  11.474  0.00  0.00    +0.000 A 
ATOM     22  C   UNL     1       7.121   3.776  12.236  0.00  0.00    +0.000 A 
ENDBRANCH  16  17
ENDBRANCH  14  16
ENDBRANCH   2  10
BRANCH   1  23
ATOM     23  C   UNL     1       4.283   5.867  19.154  0.00  0.00    +0.000 C 
BRANCH  23  28
ATOM     24  C   UNL     1       0.283  10.048  18.397  0.00  0.00    +0.000 C 
ATOM     25  C   UNL     1       1.354   9.027  18.640  0.00  0.00    +0.000 A 
ATOM     26  C   UNL     1       1.450   8.370  19.870  0.00  0.00    +0.000 A 
ATOM     27  C   UNL     1       2.408   7.373  20.072  0.00  0.00    +0.000 A 
ATOM     28  C   UNL     1       3.286   7.000  19.044  0.00  0.00    +0.000 A 
ATOM     29  C   UNL     1       3.211   7.697  17.825  0.00  0.00    +0.000 A 
ATOM     30  C   UNL     1       2.258   8.699  17.627  0.00  0.00    +0.000 A 
ENDBRANCH  23  28
ENDBRANCH   1  23
TORSDOF 5
ENDMDL
MODEL 7
REMARK VINA RESULT:      -7.5      1.178      1.746
REMARK  Name = 
REMARK  6 active torsions:
REMARK  status: ('A' for Active; 'I' for Inactive)
REMARK    1  A    between atoms: C_1  and  C_2
REMARK    2  A    between atoms: C_5  and  C_6
REMARK    3  A    between atoms: C_6  and  N_7
REMARK    4  A    between atoms: C_8  and  C_9
REMARK    5  A    between atoms: N_13  and  C_14
REMARK    6  A    between atoms: C_14  and  C_15
REMARK                            x       y       z     vdW  Elec       q    Type
REMARK                         _______ _______ _______ _____ _____    ______ ____
ROOT
ATOM      1  N   UNL     1      -0.922  11.515  18.671  0.00  0.00    +0.000 N 
ATOM      2  C   UNL     1      -1.590  12.224  19.659  0.00  0.00    +0.000 A 
ATOM      3  N   UNL     1      -2.889  12.217  19.412  0.00  0.00    +0.000 NA
ATOM      4  C   UNL     1      -3.073  11.484  18.269  0.00  0.00    +0.000 A 
ATOM      5  C   UNL     1      -4.249  11.204  17.561  0.00  0.00    +0.000 A 
ATOM      6  C   UNL     1      -4.169  10.435  16.393  0.00  0.00    +0.000 A 
ATOM      7  C   UNL     1      -2.944   9.940  15.949  0.00  0.00    +0.000 A 
ATOM      8  C   UNL     1      -1.761  10.212  16.642  0.00  0.00    +0.000 A 
ATOM      9  C   UNL     1      -1.861  11.003  17.798  0.00  0.00    +0.000 A 
ENDROOT
BRANCH   2  10
ATOM     10  C   UNL     1      -0.950  13.004  20.789  0.00  0.00    +0.000 C 
ATOM     11  C   UNL     1      -0.063  12.144  21.693  0.00  0.00    +0.000 C 
ATOM     12  C   UNL     1      -1.004  11.660  22.770  0.00  0.00    +0.000 C 
ATOM     13  O   UNL     1      -0.796  10.701  23.491  0.00  0.00    +0.000 OA
ATOM     14  N   UNL     1      -2.077  12.524  22.809  0.00  0.00    +0.000 N 
ATOM     15  C   UNL     1      -1.997  13.543  21.786  0.00  0.00    +0.000 C 
BRANCH  14  16
ATOM     16  C   UNL     1      -3.212  12.375  23.700  0.00  0.00    +0.000 C 
BRANCH  16  17
ATOM     17  C   UNL     1      -4.453  13.098  23.230  0.00  0.00    +0.000 A 
ATOM     18  C   UNL     1      -5.193  12.633  22.134  0.00  0.00    +0.000 A 
ATOM     19  C   UNL     1      -6.337  13.316  21.709  0.00  0.00    +0.000 A 
ATOM     20  C   UNL     1      -6.758  14.466  22.376  0.00  0.00    +0.000 A 
ATOM     21  C   UNL     1      -6.038  14.932  23.473  0.00  0.00    +0.000 A 
ATOM     22  C   UNL     1      -4.892  14.255  23.895  0.00  0.00    +0.000 A 
ENDBRANCH  16  17
ENDBRANCH  14  16
ENDBRANCH   2  10
BRANCH   1  23
ATOM     23  C   UNL     1       0.515  11.339  18.490  0.00  0.00    +0.000 C 
BRANCH  23  28
ATOM     24  C   UNL     1       2.892   6.132  19.630  0.00  0.00    +0.000 C 
ATOM     25  C   UNL     1       2.207   7.433  19.333  0.00  0.00    +0.000 A 
ATOM     26  C   UNL     1       1.450   8.082  20.312  0.00  0.00    +0.000 A 
ATOM     27  C   UNL     1       0.866   9.325  20.054  0.00  0.00    +0.000 A 
ATOM     28  C   UNL     1       1.034   9.955  18.813  0.00  0.00    +0.000 A 
ATOM     29  C   UNL     1       1.759   9.273  17.818  0.00  0.00    +0.000 A 
ATOM     30  C   UNL     1       2.336   8.027  18.075  0.00  0.00    +0.000 A 
ENDBRANCH  23  28
ENDBRANCH   1  23
TORSDOF 5
ENDMDL
MODEL 8
REMARK VINA RESULT:      -7.4      5.935     11.555
REMARK  Name = 
REMARK  6 active torsions:
REMARK  status: ('A' for Active; 'I' for Inactive)
REMARK    1  A    between atoms: C_1  and  C_2
REMARK    2  A    between atoms: C_5  and  C_6
REMARK    3  A    between atoms: C_6  and  N_7
REMARK    4  A    between atoms: C_8  and  C_9
REMARK    5  A    between atoms: N_13  and  C_14
REMARK    6  A    between atoms: C_14  and  C_15
REMARK                            x       y       z     vdW  Elec       q    Type
REMARK                         _______ _______ _______ _____ _____    ______ ____
ROOT
ATOM      1  N   UNL     1       2.887   5.434  19.446  0.00  0.00    +0.000 N 
ATOM      2  C   UNL     1       3.922   5.366  18.525  0.00  0.00    +0.000 A 
ATOM      3  N   UNL     1       3.862   4.218  17.870  0.00  0.00    +0.000 NA
ATOM      4  C   UNL     1       2.772   3.542  18.351  0.00  0.00    +0.000 A 
ATOM      5  C   UNL     1       2.288   2.269  18.023  0.00  0.00    +0.000 A 
ATOM      6  C   UNL     1       1.147   1.789  18.680  0.00  0.00    +0.000 A 
ATOM      7  C   UNL     1       0.493   2.568  19.633  0.00  0.00    +0.000 A 
ATOM      8  C   UNL     1       0.964   3.839  19.973  0.00  0.00    +0.000 A 
ATOM      9  C   UNL     1       2.121   4.292  19.319  0.00  0.00    +0.000 A 
ENDROOT
BRANCH   2  10
ATOM     10  C   UNL     1       5.039   6.376  18.357  0.00  0.00    +0.000 C 
ATOM     11  C   UNL     1       4.861   7.279  17.135  0.00  0.00    +0.000 C 
ATOM     12  C   UNL     1       5.577   6.540  16.030  0.00  0.00    +0.000 C 
ATOM     13  O   UNL     1       5.403   6.734  14.841  0.00  0.00    +0.000 OA
ATOM     14  N   UNL     1       6.476   5.674  16.618  0.00  0.00    +0.000 N 
ATOM     15  C   UNL     1       6.393   5.697  18.061  0.00  0.00    +0.000 C 
BRANCH  14  16
ATOM     16  C   UNL     1       7.334   4.766  15.882  0.00  0.00    +0.000 C 
BRANCH  16  17
ATOM     17  C   UNL     1       6.793   4.387  14.523  0.00  0.00    +0.000 A 
ATOM     18  C   UNL     1       5.571   3.715  14.389  0.00  0.00    +0.000 A 
ATOM     19  C   UNL     1       5.087   3.367  13.123  0.00  0.00    +0.000 A 
ATOM     20  C   UNL     1       5.815   3.691  11.979  0.00  0.00    +0.000 A 
ATOM     21  C   UNL     1       7.025   4.369  12.098  0.00  0.00    +0.000 A 
ATOM     22  C   UNL     1       7.513   4.711  13.361  0.00  0.00    +0.000 A 
ENDBRANCH  16  17
ENDBRANCH  14  16
ENDBRANCH   2  10
BRANCH   1  23
ATOM     23  C   UNL     1       2.619   6.467  20.441  0.00  0.00    +0.000 C 
BRANCH  23  28
ATOM     24  C   UNL     1      -0.132  11.324  18.734  0.00  0.00    +0.000 C 
ATOM     25  C   UNL     1       0.517  10.031  19.132  0.00  0.00    +0.000 A 
ATOM     26  C   UNL     1       1.249   9.284  18.206  0.00  0.00    +0.000 A 
ATOM     27  C   UNL     1       1.907   8.114  18.594  0.00  0.00    +0.000 A 
ATOM     28  C   UNL     1       1.857   7.669  19.923  0.00  0.00    +0.000 A 
ATOM     29  C   UNL     1       1.080   8.402  20.838  0.00  0.00    +0.000 A 
ATOM     30  C   UNL     1       0.417   9.568  20.446  0.00  0.00    +0.000 A 
ENDBRANCH  23  28
ENDBRANCH   1  23
TORSDOF 5
ENDMDL
MODEL 9
REMARK VINA RESULT:      -7.4      1.875      3.125
REMARK  Name = 
REMARK  6 active torsions:
REMARK  status: ('A' for Active; 'I' for Inactive)
REMARK    1  A    between atoms: C_1  and  C_2
REMARK    2  A    between atoms: C_5  and  C_6
REMARK    3  A    between atoms: C_6  and  N_7
REMARK    4  A    between atoms: C_8  and  C_9
REMARK    5  A    between atoms: N_13  and  C_14
REMARK    6  A    between atoms: C_14  and  C_15
REMARK                            x       y       z     vdW  Elec       q    Type
REMARK                         _______ _______ _______ _____ _____    ______ ____
ROOT
ATOM      1  N   UNL     1      -1.242  11.507  19.949  0.00  0.00    +0.000 N 
ATOM      2  C   UNL     1      -2.143  12.372  20.552  0.00  0.00    +0.000 A 
ATOM      3  N   UNL     1      -3.232  12.472  19.807  0.00  0.00    +0.000 NA
ATOM      4  C   UNL     1      -3.049  11.654  18.723  0.00  0.00    +0.000 A 
ATOM      5  C   UNL     1      -3.881  11.426  17.620  0.00  0.00    +0.000 A 
ATOM      6  C   UNL     1      -3.453  10.543  16.620  0.00  0.00    +0.000 A 
ATOM      7  C   UNL     1      -2.228   9.886  16.727  0.00  0.00    +0.000 A 
ATOM      8  C   UNL     1      -1.385  10.103  17.821  0.00  0.00    +0.000 A 
ATOM      9  C   UNL     1      -1.824  11.010  18.800  0.00  0.00    +0.000 A 
ENDROOT
BRANCH   2  10
ATOM     10  C   UNL     1      -1.899  13.189  21.803  0.00  0.00    +0.000 C 
ATOM     11  C   UNL     1      -2.041  12.379  23.094  0.00  0.00    +0.000 C 
ATOM     12  C   UNL     1      -3.496  12.538  23.464  0.00  0.00    +0.000 C 
ATOM     13  O   UNL     1      -4.102  11.803  24.222  0.00  0.00    +0.000 OA
ATOM     14  N   UNL     1      -3.967  13.674  22.839  0.00  0.00    +0.000 N 
ATOM     15  C   UNL     1      -2.966  14.287  21.995  0.00  0.00    +0.000 C 
BRANCH  14  16
ATOM     16  C   UNL     1      -5.334  14.146  22.929  0.00  0.00    +0.000 C 
BRANCH  16  17
ATOM     17  C   UNL     1      -6.159  13.856  21.697  0.00  0.00    +0.000 A 
ATOM     18  C   UNL     1      -6.536  12.548  21.366  0.00  0.00    +0.000 A 
ATOM     19  C   UNL     1      -7.297  12.295  20.220  0.00  0.00    +0.000 A 
ATOM     20  C   UNL     1      -7.694  13.347  19.394  0.00  0.00    +0.000 A 
ATOM     21  C   UNL     1      -7.336  14.653  19.718  0.00  0.00    +0.000 A 
ATOM     22  C   UNL     1      -6.571  14.906  20.858  0.00  0.00    +0.000 A 
ENDBRANCH  16  17
ENDBRANCH  14  16
ENDBRANCH   2  10
BRANCH   1  23
ATOM     23  C   UNL     1       0.115  11.170  20.365  0.00  0.00    +0.000 C 
BRANCH  23  28
ATOM     24  C   UNL     1       4.024  14.865  18.099  0.00  0.00    +0.000 C 
ATOM     25  C   UNL     1       3.079  13.888  18.733  0.00  0.00    +0.000 A 
ATOM     26  C   UNL     1       2.563  14.118  20.011  0.00  0.00    +0.000 A 
ATOM     27  C   UNL     1       1.634  13.239  20.573  0.00  0.00    +0.000 A 
ATOM     28  C   UNL     1       1.188  12.114  19.865  0.00  0.00    +0.000 A 
ATOM     29  C   UNL     1       1.746  11.866  18.598  0.00  0.00    +0.000 A 
ATOM     30  C   UNL     1       2.681  12.741  18.040  0.00  0.00    +0.000 A 
ENDBRANCH  23  28
ENDBRANCH   1  23
TORSDOF 5
ENDMDL
