MODEL 1
REMARK VINA RESULT:      -8.7      0.000      0.000
REMARK  Name = 
REMARK  3 active torsions:
REMARK  status: ('A' for Active; 'I' for Inactive)
REMARK    1  A    between atoms: C_1  and  C_2
REMARK    2  A    between atoms: N_5  and  C_6
REMARK    3  A    between atoms: C_9  and  C_10
REMARK                            x       y       z     vdW  Elec       q    Type
REMARK                         _______ _______ _______ _____ _____    ______ ____
ROOT
ATOM      1  C   UNL     1       0.813  10.575  20.317  0.00  0.00    +0.000 C 
ATOM      2  O   UNL     1       1.092  10.774  21.500  0.00  0.00    +0.000 OA
ATOM      3  N   UNL     1       0.094  11.500  19.537  0.00  0.00    +0.000 N 
ATOM      4  C   UNL     1      -0.231  12.793  20.200  0.00  0.00    +0.000 C 
ATOM      5  C   UNL     1      -1.760  12.744  20.401  0.00  0.00    +0.000 C 
ATOM      6  C   UNL     1      -2.195  12.432  21.861  0.00  0.00    +0.000 C 
ATOM      7  C   UNL     1      -2.398  13.940  22.078  0.00  0.00    +0.000 C 
ATOM      8  C   UNL     1      -2.465  14.114  20.551  0.00  0.00    +0.000 C 
ATOM      9  C   UNL     1      -2.173  11.757  19.279  0.00  0.00    +0.000 A 
ATOM     10  C   UNL     1      -3.418  11.441  18.749  0.00  0.00    +0.000 A 
ATOM     11  F   UNL     1      -4.520  12.022  19.241  0.00  0.00    +0.000 F 
ATOM     12  C   UNL     1      -3.539  10.526  17.705  0.00  0.00    +0.000 A 
ATOM     13  C   UNL     1      -2.399   9.910  17.187  0.00  0.00    +0.000 A 
ATOM     14  C   UNL     1      -1.143  10.182  17.736  0.00  0.00    +0.000 A 
ATOM     15  C   UNL     1      -1.050  11.091  18.782  0.00  0.00    +0.000 A 
ENDROOT
BRANCH   1  19
ATOM     16  C   UNL     1       2.433   6.954  18.712  0.00  0.00    +0.000 A 
ATOM     17  C   UNL     1       1.946   6.993  20.024  0.00  0.00    +0.000 A 
ATOM     18  C   UNL     1       1.387   8.173  20.527  0.00  0.00    +0.000 A 
ATOM     19  C   UNL     1       1.311   9.317  19.721  0.00  0.00    +0.000 A 
ATOM     20  C   UNL     1       1.824   9.289  18.424  0.00  0.00    +0.000 A 
ATOM     21  C   UNL     1       2.348   8.104  17.907  0.00  0.00    +0.000 A 
BRANCH  16  26
ATOM     22  C   UNL     1       3.031   2.261  17.756  0.00  0.00    +0.000 C 
ATOM     23  C   UNL     1       3.325   3.712  17.746  0.00  0.00    +0.000 A 
ATOM     24  C   UNL     1       4.326   4.392  17.028  0.00  0.00    +0.000 A 
ATOM     25  C   UNL     1       4.144   5.718  17.338  0.00  0.00    +0.000 A 
ATOM     26  N   UNL     1       3.062   5.791  18.188  0.00  0.00    +0.000 N 
ATOM     27  N   UNL     1       2.580   4.552  18.470  0.00  0.00    +0.000 NA
ENDBRANCH  16  26
ENDBRANCH   1  19
TORSDOF 2
ENDMDL
MODEL 2
REMARK VINA RESULT:      -8.6      0.580      1.093
REMARK  Name = 
REMARK  3 active torsions:
REMARK  status: ('A' for Active; 'I' for Inactive)
REMARK    1  A    between atoms: C_1  and  C_2
REMARK    2  A    between atoms: N_5  and  C_6
REMARK    3  A    between atoms: C_9  and  C_10
REMARK                            x       y       z     vdW  Elec       q    Type
REMARK                         _______ _______ _______ _____ _____    ______ ____
ROOT
ATOM      1  C   UNL     1       0.801  10.688  20.188  0.00  0.00    +0.000 C 
ATOM      2  O   UNL     1       1.112  10.879  21.365  0.00  0.00    +0.000 OA
ATOM      3  N   UNL     1       0.022  11.597  19.449  0.00  0.00    +0.000 N 
ATOM      4  C   UNL     1      -0.328  12.867  20.144  0.00  0.00    +0.000 C 
ATOM      5  C   UNL     1      -1.847  12.756  20.394  0.00  0.00    +0.000 C 
ATOM      6  C   UNL     1      -2.220  12.405  21.863  0.00  0.00    +0.000 C 
ATOM      7  C   UNL     1      -2.472  13.902  22.112  0.00  0.00    +0.000 C 
ATOM      8  C   UNL     1      -2.597  14.096  20.591  0.00  0.00    +0.000 C 
ATOM      9  C   UNL     1      -2.261  11.772  19.270  0.00  0.00    +0.000 A 
ATOM     10  C   UNL     1      -3.510  11.417  18.777  0.00  0.00    +0.000 A 
ATOM     11  F   UNL     1      -4.616  11.948  19.316  0.00  0.00    +0.000 F 
ATOM     12  C   UNL     1      -3.632  10.514  17.723  0.00  0.00    +0.000 A 
ATOM     13  C   UNL     1      -2.488   9.950  17.157  0.00  0.00    +0.000 A 
ATOM     14  C   UNL     1      -1.225  10.261  17.668  0.00  0.00    +0.000 A 
ATOM     15  C   UNL     1      -1.131  11.157  18.725  0.00  0.00    +0.000 A 
ENDROOT
BRANCH   1  19
ATOM     16  C   UNL     1       2.498   7.153  18.475  0.00  0.00    +0.000 A 
ATOM     17  C   UNL     1       2.022   7.145  19.792  0.00  0.00    +0.000 A 
ATOM     18  C   UNL     1       1.438   8.297  20.330  0.00  0.00    +0.000 A 
ATOM     19  C   UNL     1       1.325   9.459  19.556  0.00  0.00    +0.000 A 
ATOM     20  C   UNL     1       1.827   9.478  18.254  0.00  0.00    +0.000 A 
ATOM     21  C   UNL     1       2.376   8.321  17.701  0.00  0.00    +0.000 A 
BRANCH  16  26
ATOM     22  C   UNL     1       6.076   4.623  16.451  0.00  0.00    +0.000 C 
ATOM     23  C   UNL     1       4.741   4.888  17.034  0.00  0.00    +0.000 A 
ATOM     24  C   UNL     1       3.726   3.962  17.339  0.00  0.00    +0.000 A 
ATOM     25  C   UNL     1       2.717   4.713  17.890  0.00  0.00    +0.000 A 
ATOM     26  N   UNL     1       3.151   6.020  17.916  0.00  0.00    +0.000 N 
ATOM     27  N   UNL     1       4.383   6.135  17.354  0.00  0.00    +0.000 NA
ENDBRANCH  16  26
ENDBRANCH   1  19
TORSDOF 2
ENDMDL
MODEL 3
REMARK VINA RESULT:      -8.3      0.545      1.352
REMARK  Name = 
REMARK  3 active torsions:
REMARK  status: ('A' for Active; 'I' for Inactive)
REMARK    1  A    between atoms: C_1  and  C_2
REMARK    2  A    between atoms: N_5  and  C_6
REMARK    3  A    between atoms: C_9  and  C_10
REMARK                            x       y       z     vdW  Elec       q    Type
REMARK                         _______ _______ _______ _____ _____    ______ ____
ROOT
ATOM      1  C   UNL     1       0.752  10.808  20.363  0.00  0.00    +0.000 C 
ATOM      2  O   UNL     1       0.991  11.051  21.547  0.00  0.00    +0.000 OA
ATOM      3  N   UNL     1      -0.011  11.665  19.549  0.00  0.00    +0.000 N 
ATOM      4  C   UNL     1      -0.435  12.948  20.174  0.00  0.00    +0.000 C 
ATOM      5  C   UNL     1      -1.962  12.800  20.346  0.00  0.00    +0.000 C 
ATOM      6  C   UNL     1      -2.407  12.492  21.804  0.00  0.00    +0.000 C 
ATOM      7  C   UNL     1      -2.715  13.988  21.982  0.00  0.00    +0.000 C 
ATOM      8  C   UNL     1      -2.760  14.123  20.450  0.00  0.00    +0.000 C 
ATOM      9  C   UNL     1      -2.284  11.764  19.239  0.00  0.00    +0.000 A 
ATOM     10  C   UNL     1      -3.493  11.353  18.692  0.00  0.00    +0.000 A 
ATOM     11  F   UNL     1      -4.642  11.869  19.149  0.00  0.00    +0.000 F 
ATOM     12  C   UNL     1      -3.530  10.409  17.667  0.00  0.00    +0.000 A 
ATOM     13  C   UNL     1      -2.341   9.860  17.187  0.00  0.00    +0.000 A 
ATOM     14  C   UNL     1      -1.118  10.228  17.754  0.00  0.00    +0.000 A 
ATOM     15  C   UNL     1      -1.108  11.164  18.780  0.00  0.00    +0.000 A 
ENDROOT
BRANCH   1  19
ATOM     16  C   UNL     1       2.295   7.212  18.632  0.00  0.00    +0.000 A 
ATOM     17  C   UNL     1       2.258   8.399  17.889  0.00  0.00    +0.000 A 
ATOM     18  C   UNL     1       1.784   9.576  18.477  0.00  0.00    +0.000 A 
ATOM     19  C   UNL     1       1.345   9.574  19.808  0.00  0.00    +0.000 A 
ATOM     20  C   UNL     1       1.352   8.386  20.540  0.00  0.00    +0.000 A 
ATOM     21  C   UNL     1       1.859   7.218  19.970  0.00  0.00    +0.000 A 
BRANCH  16  26
ATOM     22  C   UNL     1       5.296   4.083  16.511  0.00  0.00    +0.000 C 
ATOM     23  C   UNL     1       4.045   4.585  17.124  0.00  0.00    +0.000 A 
ATOM     24  C   UNL     1       2.880   3.862  17.442  0.00  0.00    +0.000 A 
ATOM     25  C   UNL     1       2.040   4.783  18.020  0.00  0.00    +0.000 A 
ATOM     26  N   UNL     1       2.713   5.984  18.049  0.00  0.00    +0.000 N 
ATOM     27  N   UNL     1       3.934   5.873  17.462  0.00  0.00    +0.000 NA
ENDBRANCH  16  26
ENDBRANCH   1  19
TORSDOF 2
ENDMDL
MODEL 4
REMARK VINA RESULT:      -8.1      0.874      1.328
REMARK  Name = 
REMARK  3 active torsions:
REMARK  status: ('A' for Active; 'I' for Inactive)
REMARK    1  A    between atoms: C_1  and  C_2
REMARK    2  A    between atoms: N_5  and  C_6
REMARK    3  A    between atoms: C_9  and  C_10
REMARK                            x       y       z     vdW  Elec       q    Type
REMARK                         _______ _______ _______ _____ _____    ______ ____
ROOT
ATOM      1  C   UNL     1       0.202  11.309  20.508  0.00  0.00    +0.000 C 
ATOM      2  O   UNL     1       0.364  11.580  21.699  0.00  0.00    +0.000 OA
ATOM      3  N   UNL     1      -0.621  12.070  19.658  0.00  0.00    +0.000 N 
ATOM      4  C   UNL     1      -1.217  13.295  20.258  0.00  0.00    +0.000 C 
ATOM      5  C   UNL     1      -2.722  12.970  20.369  0.00  0.00    +0.000 C 
ATOM      6  C   UNL     1      -3.186  12.614  21.810  0.00  0.00    +0.000 C 
ATOM      7  C   UNL     1      -3.674  14.064  21.967  0.00  0.00    +0.000 C 
ATOM      8  C   UNL     1      -3.672  14.191  20.434  0.00  0.00    +0.000 C 
ATOM      9  C   UNL     1      -2.876  11.902  19.257  0.00  0.00    +0.000 A 
ATOM     10  C   UNL     1      -4.005  11.352  18.664  0.00  0.00    +0.000 A 
ATOM     11  F   UNL     1      -5.225  11.731  19.071  0.00  0.00    +0.000 F 
ATOM     12  C   UNL     1      -3.891  10.409  17.645  0.00  0.00    +0.000 A 
ATOM     13  C   UNL     1      -2.627  10.002  17.216  0.00  0.00    +0.000 A 
ATOM     14  C   UNL     1      -1.479  10.511  17.829  0.00  0.00    +0.000 A 
ATOM     15  C   UNL     1      -1.621  11.443  18.849  0.00  0.00    +0.000 A 
ENDROOT
BRANCH   1  19
ATOM     16  C   UNL     1       2.225   7.918  18.858  0.00  0.00    +0.000 A 
ATOM     17  C   UNL     1       2.105   9.102  18.119  0.00  0.00    +0.000 A 
ATOM     18  C   UNL     1       1.472  10.215  18.682  0.00  0.00    +0.000 A 
ATOM     19  C   UNL     1       0.958  10.152  19.984  0.00  0.00    +0.000 A 
ATOM     20  C   UNL     1       1.049   8.963  20.710  0.00  0.00    +0.000 A 
ATOM     21  C   UNL     1       1.712   7.863  20.166  0.00  0.00    +0.000 A 
BRANCH  16  26
ATOM     22  C   UNL     1       2.482   3.315  17.427  0.00  0.00    +0.000 C 
ATOM     23  C   UNL     1       2.922   4.712  17.643  0.00  0.00    +0.000 A 
ATOM     24  C   UNL     1       4.095   5.337  17.177  0.00  0.00    +0.000 A 
ATOM     25  C   UNL     1       4.003   6.634  17.619  0.00  0.00    +0.000 A 
ATOM     26  N   UNL     1       2.808   6.749  18.296  0.00  0.00    +0.000 N 
ATOM     27  N   UNL     1       2.160   5.556  18.344  0.00  0.00    +0.000 NA
ENDBRANCH  16  26
ENDBRANCH   1  19
TORSDOF 2
ENDMDL
MODEL 5
REMARK VINA RESULT:      -7.9      1.228      1.551
REMARK  Name = 
REMARK  3 active torsions:
REMARK  status: ('A' for Active; 'I' for Inactive)
REMARK    1  A    between atoms: C_1  and  C_2
REMARK    2  A    between atoms: N_5  and  C_6
REMARK    3  A    between atoms: C_9  and  C_10
REMARK                            x       y       z     vdW  Elec       q    Type
REMARK                         _______ _______ _______ _____ _____    ______ ____
ROOT
ATOM      1  C   UNL     1      -0.067  11.206  20.888  0.00  0.00    +0.000 C 
ATOM      2  O   UNL     1       0.058  11.372  22.102  0.00  0.00    +0.000 OA
ATOM      3  N   UNL     1      -0.785  12.096  20.068  0.00  0.00    +0.000 N 
ATOM      4  C   UNL     1      -1.309  13.319  20.738  0.00  0.00    +0.000 C 
ATOM      5  C   UNL     1      -2.838  13.114  20.761  0.00  0.00    +0.000 C 
ATOM      6  C   UNL     1      -3.398  12.690  22.149  0.00  0.00    +0.000 C 
ATOM      7  C   UNL     1      -3.773  14.160  22.399  0.00  0.00    +0.000 C 
ATOM      8  C   UNL     1      -3.689  14.402  20.883  0.00  0.00    +0.000 C 
ATOM      9  C   UNL     1      -3.024  12.149  19.562  0.00  0.00    +0.000 A 
ATOM     10  C   UNL     1      -4.165  11.743  18.882  0.00  0.00    +0.000 A 
ATOM     11  F   UNL     1      -5.368  12.191  19.267  0.00  0.00    +0.000 F 
ATOM     12  C   UNL     1      -4.079  10.873  17.796  0.00  0.00    +0.000 A 
ATOM     13  C   UNL     1      -2.833  10.395  17.389  0.00  0.00    +0.000 A 
ATOM     14  C   UNL     1      -1.678  10.757  18.088  0.00  0.00    +0.000 A 
ATOM     15  C   UNL     1      -1.792  11.619  19.171  0.00  0.00    +0.000 A 
ENDROOT
BRANCH   1  19
ATOM     16  C   UNL     1       2.080   7.848  19.331  0.00  0.00    +0.000 A 
ATOM     17  C   UNL     1       1.516   7.799  20.612  0.00  0.00    +0.000 A 
ATOM     18  C   UNL     1       0.787   8.889  21.097  0.00  0.00    +0.000 A 
ATOM     19  C   UNL     1       0.616  10.033  20.306  0.00  0.00    +0.000 A 
ATOM     20  C   UNL     1       1.203  10.096  19.041  0.00  0.00    +0.000 A 
ATOM     21  C   UNL     1       1.899   8.997  18.539  0.00  0.00    +0.000 A 
BRANCH  16  26
ATOM     22  C   UNL     1       5.082   5.568  16.317  0.00  0.00    +0.000 C 
ATOM     23  C   UNL     1       4.223   5.772  17.505  0.00  0.00    +0.000 A 
ATOM     24  C   UNL     1       4.071   4.930  18.623  0.00  0.00    +0.000 A 
ATOM     25  C   UNL     1       3.196   5.594  19.449  0.00  0.00    +0.000 A 
ATOM     26  N   UNL     1       2.877   6.783  18.830  0.00  0.00    +0.000 N 
ATOM     27  N   UNL     1       3.480   6.876  17.615  0.00  0.00    +0.000 NA
ENDBRANCH  16  26
ENDBRANCH   1  19
TORSDOF 2
ENDMDL
MODEL 6
REMARK VINA RESULT:      -7.9      2.984      8.636
REMARK  Name = 
REMARK  3 active torsions:
REMARK  status: ('A' for Active; 'I' for Inactive)
REMARK    1  A    between atoms: C_1  and  C_2
REMARK    2  A    between atoms: N_5  and  C_6
REMARK    3  A    between atoms: C_9  and  C_10
REMARK                            x       y       z     vdW  Elec       q    Type
REMARK                         _______ _______ _______ _____ _____    ______ ____
ROOT
ATOM      1  C   UNL     1       3.118   7.511  18.246  0.00  0.00    +0.000 C 
ATOM      2  O   UNL     1       3.633   7.913  17.201  0.00  0.00    +0.000 OA
ATOM      3  N   UNL     1       3.570   6.364  18.925  0.00  0.00    +0.000 N 
ATOM      4  C   UNL     1       4.783   5.710  18.360  0.00  0.00    +0.000 C 
ATOM      5  C   UNL     1       4.261   4.379  17.781  0.00  0.00    +0.000 C 
ATOM      6  C   UNL     1       4.120   4.377  16.232  0.00  0.00    +0.000 C 
ATOM      7  C   UNL     1       5.482   3.668  16.150  0.00  0.00    +0.000 C 
ATOM      8  C   UNL     1       5.314   3.254  17.622  0.00  0.00    +0.000 C 
ATOM      9  C   UNL     1       2.989   4.161  18.640  0.00  0.00    +0.000 A 
ATOM     10  C   UNL     1       2.172   3.050  18.802  0.00  0.00    +0.000 A 
ATOM     11  F   UNL     1       2.433   1.924  18.123  0.00  0.00    +0.000 F 
ATOM     12  C   UNL     1       1.080   3.085  19.667  0.00  0.00    +0.000 A 
ATOM     13  C   UNL     1       0.795   4.252  20.376  0.00  0.00    +0.000 A 
ATOM     14  C   UNL     1       1.579   5.395  20.193  0.00  0.00    +0.000 A 
ATOM     15  C   UNL     1       2.656   5.336  19.319  0.00  0.00    +0.000 A 
ENDROOT
BRANCH   1  19
ATOM     16  C   UNL     1       0.026  10.034  19.790  0.00  0.00    +0.000 A 
ATOM     17  C   UNL     1       0.255   9.954  18.410  0.00  0.00    +0.000 A 
ATOM     18  C   UNL     1       1.245   9.100  17.915  0.00  0.00    +0.000 A 
ATOM     19  C   UNL     1       2.011   8.321  18.793  0.00  0.00    +0.000 A 
ATOM     20  C   UNL     1       1.806   8.423  20.170  0.00  0.00    +0.000 A 
ATOM     21  C   UNL     1       0.794   9.246  20.666  0.00  0.00    +0.000 A 
BRANCH  16  26
ATOM     22  C   UNL     1      -2.252  12.600  23.184  0.00  0.00    +0.000 C 
ATOM     23  C   UNL     1      -1.934  12.091  21.831  0.00  0.00    +0.000 A 
ATOM     24  C   UNL     1      -2.458  12.516  20.596  0.00  0.00    +0.000 A 
ATOM     25  C   UNL     1      -1.809  11.753  19.656  0.00  0.00    +0.000 A 
ATOM     26  N   UNL     1      -0.930  10.936  20.332  0.00  0.00    +0.000 N 
ATOM     27  N   UNL     1      -1.033  11.116  21.675  0.00  0.00    +0.000 NA
ENDBRANCH  16  26
ENDBRANCH   1  19
TORSDOF 2
ENDMDL
MODEL 7
REMARK VINA RESULT:      -7.6      1.436      2.180
REMARK  Name = 
REMARK  3 active torsions:
REMARK  status: ('A' for Active; 'I' for Inactive)
REMARK    1  A    between atoms: C_1  and  C_2
REMARK    2  A    between atoms: N_5  and  C_6
REMARK    3  A    between atoms: C_9  and  C_10
REMARK                            x       y       z     vdW  Elec       q    Type
REMARK                         _______ _______ _______ _____ _____    ______ ____
ROOT
ATOM      1  C   UNL     1      -0.425  11.679  20.772  0.00  0.00    +0.000 C 
ATOM      2  O   UNL     1      -0.335  11.923  21.976  0.00  0.00    +0.000 OA
ATOM      3  N   UNL     1      -1.260  12.410  19.907  0.00  0.00    +0.000 N 
ATOM      4  C   UNL     1      -1.964  13.573  20.513  0.00  0.00    +0.000 C 
ATOM      5  C   UNL     1      -3.447  13.145  20.545  0.00  0.00    +0.000 C 
ATOM      6  C   UNL     1      -3.949  12.714  21.952  0.00  0.00    +0.000 C 
ATOM      7  C   UNL     1      -4.540  14.123  22.127  0.00  0.00    +0.000 C 
ATOM      8  C   UNL     1      -4.480  14.297  20.600  0.00  0.00    +0.000 C 
ATOM      9  C   UNL     1      -3.478  12.104  19.397  0.00  0.00    +0.000 A 
ATOM     10  C   UNL     1      -4.540  11.499  18.738  0.00  0.00    +0.000 A 
ATOM     11  F   UNL     1      -5.799  11.783  19.099  0.00  0.00    +0.000 F 
ATOM     12  C   UNL     1      -4.317  10.597  17.699  0.00  0.00    +0.000 A 
ATOM     13  C   UNL     1      -3.011  10.289  17.317  0.00  0.00    +0.000 A 
ATOM     14  C   UNL     1      -1.928  10.854  17.998  0.00  0.00    +0.000 A 
ATOM     15  C   UNL     1      -2.178  11.743  19.035  0.00  0.00    +0.000 A 
ENDROOT
BRANCH   1  19
ATOM     16  C   UNL     1       1.903   8.496  19.110  0.00  0.00    +0.000 A 
ATOM     17  C   UNL     1       1.821   9.732  18.457  0.00  0.00    +0.000 A 
ATOM     18  C   UNL     1       1.085  10.776  19.027  0.00  0.00    +0.000 A 
ATOM     19  C   UNL     1       0.430  10.592  20.251  0.00  0.00    +0.000 A 
ATOM     20  C   UNL     1       0.485   9.351  20.889  0.00  0.00    +0.000 A 
ATOM     21  C   UNL     1       1.248   8.319  20.343  0.00  0.00    +0.000 A 
BRANCH  16  26
ATOM     22  C   UNL     1       5.110   6.220  16.311  0.00  0.00    +0.000 C 
ATOM     23  C   UNL     1       4.024   6.379  17.305  0.00  0.00    +0.000 A 
ATOM     24  C   UNL     1       3.431   5.390  18.111  0.00  0.00    +0.000 A 
ATOM     25  C   UNL     1       2.510   6.063  18.877  0.00  0.00    +0.000 A 
ATOM     26  N   UNL     1       2.592   7.395  18.531  0.00  0.00    +0.000 N 
ATOM     27  N   UNL     1       3.497   7.585  17.536  0.00  0.00    +0.000 NA
ENDBRANCH  16  26
ENDBRANCH   1  19
TORSDOF 2
ENDMDL
MODEL 8
REMARK VINA RESULT:      -7.6      1.633      2.363
REMARK  Name = 
REMARK  3 active torsions:
REMARK  status: ('A' for Active; 'I' for Inactive)
REMARK    1  A    between atoms: C_1  and  C_2
REMARK    2  A    between atoms: N_5  and  C_6
REMARK    3  A    between atoms: C_9  and  C_10
REMARK                            x       y       z     vdW  Elec       q    Type
REMARK                         _______ _______ _______ _____ _____    ______ ____
ROOT
ATOM      1  C   UNL     1      -0.358  11.191  22.025  0.00  0.00    +0.000 C 
ATOM      2  O   UNL     1      -0.284  11.030  23.244  0.00  0.00    +0.000 OA
ATOM      3  N   UNL     1      -0.979  12.310  21.441  0.00  0.00    +0.000 N 
ATOM      4  C   UNL     1      -1.463  13.353  22.389  0.00  0.00    +0.000 C 
ATOM      5  C   UNL     1      -3.001  13.257  22.306  0.00  0.00    +0.000 C 
ATOM      6  C   UNL     1      -3.654  12.530  23.516  0.00  0.00    +0.000 C 
ATOM      7  C   UNL     1      -3.955  13.909  24.128  0.00  0.00    +0.000 C 
ATOM      8  C   UNL     1      -3.779  14.527  22.730  0.00  0.00    +0.000 C 
ATOM      9  C   UNL     1      -3.183  12.649  20.892  0.00  0.00    +0.000 A 
ATOM     10  C   UNL     1      -4.310  12.512  20.092  0.00  0.00    +0.000 A 
ATOM     11  F   UNL     1      -5.502  12.929  20.539  0.00  0.00    +0.000 F 
ATOM     12  C   UNL     1      -4.220  11.947  18.821  0.00  0.00    +0.000 A 
ATOM     13  C   UNL     1      -2.986  11.504  18.345  0.00  0.00    +0.000 A 
ATOM     14  C   UNL     1      -1.849  11.592  19.152  0.00  0.00    +0.000 A 
ATOM     15  C   UNL     1      -1.966  12.151  20.418  0.00  0.00    +0.000 A 
ENDROOT
BRANCH   1  19
ATOM     16  C   UNL     1       1.667   8.210  19.717  0.00  0.00    +0.000 A 
ATOM     17  C   UNL     1       1.075   7.879  20.942  0.00  0.00    +0.000 A 
ATOM     18  C   UNL     1       0.386   8.854  21.672  0.00  0.00    +0.000 A 
ATOM     19  C   UNL     1       0.284  10.162  21.181  0.00  0.00    +0.000 A 
ATOM     20  C   UNL     1       0.900  10.502  19.975  0.00  0.00    +0.000 A 
ATOM     21  C   UNL     1       1.556   9.524  19.227  0.00  0.00    +0.000 A 
BRANCH  16  26
ATOM     22  C   UNL     1       4.856   6.618  16.463  0.00  0.00    +0.000 C 
ATOM     23  C   UNL     1       3.852   6.549  17.549  0.00  0.00    +0.000 A 
ATOM     24  C   UNL     1       3.456   5.424  18.296  0.00  0.00    +0.000 A 
ATOM     25  C   UNL     1       2.534   5.905  19.195  0.00  0.00    +0.000 A 
ATOM     26  N   UNL     1       2.426   7.261  18.979  0.00  0.00    +0.000 N 
ATOM     27  N   UNL     1       3.209   7.653  17.940  0.00  0.00    +0.000 NA
ENDBRANCH  16  26
ENDBRANCH   1  19
TORSDOF 2
ENDMDL
MODEL 9
REMARK VINA RESULT:      -7.6      1.594      2.294
REMARK  Name = 
REMARK  3 active torsions:
REMARK  status: ('A' for Active; 'I' for Inactive)
REMARK    1  A    between atoms: C_1  and  C_2
REMARK    2  A    between atoms: N_5  and  C_6
REMARK    3  A    between atoms: C_9  and  C_10
REMARK                            x       y       z     vdW  Elec       q    Type
REMARK                         _______ _______ _______ _____ _____    ______ ____
ROOT
ATOM      1  C   UNL     1      -0.684  11.609  21.876  0.00  0.00    +0.000 C 
ATOM      2  O   UNL     1      -0.594  11.580  23.105  0.00  0.00    +0.000 OA
ATOM      3  N   UNL     1      -1.375  12.622  21.187  0.00  0.00    +0.000 N 
ATOM      4  C   UNL     1      -1.916  13.727  22.027  0.00  0.00    +0.000 C 
ATOM      5  C   UNL     1      -3.446  13.531  21.973  0.00  0.00    +0.000 C 
ATOM      6  C   UNL     1      -4.047  12.896  23.259  0.00  0.00    +0.000 C 
ATOM      7  C   UNL     1      -4.428  14.310  23.728  0.00  0.00    +0.000 C 
ATOM      8  C   UNL     1      -4.298  14.789  22.272  0.00  0.00    +0.000 C 
ATOM      9  C   UNL     1      -3.598  12.769  20.631  0.00  0.00    +0.000 A 
ATOM     10  C   UNL     1      -4.719  12.483  19.862  0.00  0.00    +0.000 A 
ATOM     11  F   UNL     1      -5.932  12.873  20.278  0.00  0.00    +0.000 F 
ATOM     12  C   UNL     1      -4.602  11.795  18.655  0.00  0.00    +0.000 A 
ATOM     13  C   UNL     1      -3.346  11.380  18.214  0.00  0.00    +0.000 A 
ATOM     14  C   UNL     1      -2.212  11.619  18.995  0.00  0.00    +0.000 A 
ATOM     15  C   UNL     1      -2.356  12.299  20.197  0.00  0.00    +0.000 A 
ENDROOT
BRANCH   1  19
ATOM     16  C   UNL     1       1.495   8.514  19.880  0.00  0.00    +0.000 A 
ATOM     17  C   UNL     1       0.817   8.247  21.076  0.00  0.00    +0.000 A 
ATOM     18  C   UNL     1       0.079   9.258  21.701  0.00  0.00    +0.000 A 
ATOM     19  C   UNL     1       0.015  10.538  21.136  0.00  0.00    +0.000 A 
ATOM     20  C   UNL     1       0.715  10.815  19.960  0.00  0.00    +0.000 A 
ATOM     21  C   UNL     1       1.421   9.800  19.314  0.00  0.00    +0.000 A 
BRANCH  16  26
ATOM     22  C   UNL     1       3.569   4.205  19.226  0.00  0.00    +0.000 C 
ATOM     23  C   UNL     1       3.213   5.614  18.944  0.00  0.00    +0.000 A 
ATOM     24  C   UNL     1       3.500   6.370  17.791  0.00  0.00    +0.000 A 
ATOM     25  C   UNL     1       2.918   7.594  18.018  0.00  0.00    +0.000 A 
ATOM     26  N   UNL     1       2.303   7.529  19.249  0.00  0.00    +0.000 N 
ATOM     27  N   UNL     1       2.516   6.322  19.837  0.00  0.00    +0.000 NA
ENDBRANCH  16  26
ENDBRANCH   1  19
TORSDOF 2
ENDMDL
