MODEL 1
REMARK VINA RESULT:      -8.7      0.000      0.000
REMARK  Name = 
REMARK  7 active torsions:
REMARK  status: ('A' for Active; 'I' for Inactive)
REMARK    1  A    between atoms: C_1  and  C_2
REMARK    2  A    between atoms: C_2  and  C_3
REMARK    3  A    between atoms: C_3  and  N_4
REMARK    4  A    between atoms: N_7  and  C_8
REMARK    5  A    between atoms: C_12  and  C_13
REMARK    6  A    between atoms: N_15  and  C_16
REMARK    7  A    between atoms: C_16  and  C_17
REMARK                            x       y       z     vdW  Elec       q    Type
REMARK                         _______ _______ _______ _____ _____    ______ ____
ROOT
ATOM      1  C   UNL     1       5.502   3.872  16.811  0.00  0.00    +0.000 A 
ATOM      2  C   UNL     1       5.582   3.865  15.410  0.00  0.00    +0.000 A 
ATOM      3  C   UNL     1       6.376   4.774  14.718  0.00  0.00    +0.000 A 
ATOM      4  C   UNL     1       7.076   5.735  15.425  0.00  0.00    +0.000 A 
ATOM      5  C   UNL     1       6.974   5.810  16.820  0.00  0.00    +0.000 A 
ATOM      6  C   UNL     1       6.201   4.861  17.516  0.00  0.00    +0.000 A 
ENDROOT
BRANCH   1  10
ATOM      7  N   UNL     1       2.876   2.102  18.677  0.00  0.00    +0.000 N 
ATOM      8  C   UNL     1       3.470   3.176  18.026  0.00  0.00    +0.000 C 
ATOM      9  O   UNL     1       2.848   4.235  17.890  0.00  0.00    +0.000 OA
ATOM     10  N   UNL     1       4.723   2.920  17.526  0.00  0.00    +0.000 N 
ATOM     11  H   UNL     1       3.491   1.583  19.292  0.00  0.00    +0.000 HD
ATOM     12  H   UNL     1       4.976   1.945  17.432  0.00  0.00    +0.000 HD
BRANCH   7  13
ATOM     13  C   UNL     1       1.534   2.392  19.144  0.00  0.00    +0.000 C 
BRANCH  13  15
ATOM     14  C   UNL     1       0.650   4.449  20.244  0.00  0.00    +0.000 C 
ATOM     15  C   UNL     1       1.342   3.119  20.443  0.00  0.00    +0.000 C 
ATOM     16  C   UNL     1       1.125   2.377  21.757  0.00  0.00    +0.000 C 
ATOM     17  C   UNL     1       2.399   3.090  21.489  0.00  0.00    +0.000 C 
ATOM     18  F   UNL     1       3.561   2.375  21.323  0.00  0.00    +0.000 F 
ATOM     19  F   UNL     1       2.710   4.224  22.204  0.00  0.00    +0.000 F 
ENDBRANCH  13  15
ENDBRANCH   7  13
ENDBRANCH   1  10
BRANCH   5  20
ATOM     20  C   UNL     1       7.586   6.932  17.498  0.00  0.00    +0.000 A 
ATOM     21  C   UNL     1       7.466   8.238  17.074  0.00  0.00    +0.000 A 
ATOM     22  N   UNL     1       8.098   8.962  18.038  0.00  0.00    +0.000 N 
ATOM     23  N   UNL     1       8.605   8.152  18.992  0.00  0.00    +0.000 NA
ATOM     24  N   UNL     1       8.287   6.900  18.671  0.00  0.00    +0.000 NA
BRANCH  22  25
ATOM     25  C   UNL     1       8.119  10.408  18.190  0.00  0.00    +0.000 C 
BRANCH  25  26
ATOM     26  C   UNL     1       9.441  10.913  18.719  0.00  0.00    +0.000 A 
ATOM     27  C   UNL     1       9.608  11.180  20.088  0.00  0.00    +0.000 A 
ATOM     28  C   UNL     1      10.815  11.693  20.571  0.00  0.00    +0.000 A 
ATOM     29  C   UNL     1      11.877  11.916  19.699  0.00  0.00    +0.000 A 
ATOM     30  C   UNL     1      11.737  11.617  18.345  0.00  0.00    +0.000 A 
ATOM     31  C   UNL     1      10.528  11.118  17.857  0.00  0.00    +0.000 A 
ENDBRANCH  25  26
ENDBRANCH  22  25
ENDBRANCH   5  20
TORSDOF 6
ENDMDL
MODEL 2
REMARK VINA RESULT:      -8.5      5.376      7.684
REMARK  Name = 
REMARK  7 active torsions:
REMARK  status: ('A' for Active; 'I' for Inactive)
REMARK    1  A    between atoms: C_1  and  C_2
REMARK    2  A    between atoms: C_2  and  C_3
REMARK    3  A    between atoms: C_3  and  N_4
REMARK    4  A    between atoms: N_7  and  C_8
REMARK    5  A    between atoms: C_12  and  C_13
REMARK    6  A    between atoms: N_15  and  C_16
REMARK    7  A    between atoms: C_16  and  C_17
REMARK                            x       y       z     vdW  Elec       q    Type
REMARK                         _______ _______ _______ _____ _____    ______ ____
ROOT
ATOM      1  C   UNL     1       2.848   4.677  19.472  0.00  0.00    +0.000 A 
ATOM      2  C   UNL     1       2.080   3.525  19.245  0.00  0.00    +0.000 A 
ATOM      3  C   UNL     1       2.472   2.551  18.332  0.00  0.00    +0.000 A 
ATOM      4  C   UNL     1       3.630   2.740  17.599  0.00  0.00    +0.000 A 
ATOM      5  C   UNL     1       4.392   3.904  17.756  0.00  0.00    +0.000 A 
ATOM      6  C   UNL     1       4.010   4.866  18.711  0.00  0.00    +0.000 A 
ENDROOT
BRANCH   1  10
ATOM      7  N   UNL     1       1.876   7.762  21.217  0.00  0.00    +0.000 N 
ATOM      8  C   UNL     1       2.251   6.978  20.133  0.00  0.00    +0.000 C 
ATOM      9  O   UNL     1       2.309   7.475  19.003  0.00  0.00    +0.000 OA
ATOM     10  N   UNL     1       2.473   5.656  20.433  0.00  0.00    +0.000 N 
ATOM     11  H   UNL     1       2.398   7.591  22.067  0.00  0.00    +0.000 HD
ATOM     12  H   UNL     1       2.093   5.327  21.311  0.00  0.00    +0.000 HD
BRANCH   7  13
ATOM     13  C   UNL     1       1.598   9.138  20.853  0.00  0.00    +0.000 C 
BRANCH  13  15
ATOM     14  C   UNL     1      -0.741   8.756  21.628  0.00  0.00    +0.000 C 
ATOM     15  C   UNL     1       0.176   9.615  20.787  0.00  0.00    +0.000 C 
ATOM     16  C   UNL     1      -0.172  11.087  20.604  0.00  0.00    +0.000 C 
ATOM     17  C   UNL     1      -0.396  10.112  19.508  0.00  0.00    +0.000 C 
ATOM     18  F   UNL     1       0.356  10.188  18.360  0.00  0.00    +0.000 F 
ATOM     19  F   UNL     1      -1.680   9.782  19.138  0.00  0.00    +0.000 F 
ENDBRANCH  13  15
ENDBRANCH   7  13
ENDBRANCH   1  10
BRANCH   5  20
ATOM     20  C   UNL     1       5.496   4.134  16.849  0.00  0.00    +0.000 A 
ATOM     21  C   UNL     1       5.401   4.002  15.481  0.00  0.00    +0.000 A 
ATOM     22  N   UNL     1       6.617   4.403  15.021  0.00  0.00    +0.000 N 
ATOM     23  N   UNL     1       7.431   4.739  16.044  0.00  0.00    +0.000 NA
ATOM     24  N   UNL     1       6.745   4.583  17.175  0.00  0.00    +0.000 NA
BRANCH  22  25
ATOM     25  C   UNL     1       7.011   4.635  13.641  0.00  0.00    +0.000 C 
BRANCH  25  26
ATOM     26  C   UNL     1       6.281   3.734  12.673  0.00  0.00    +0.000 A 
ATOM     27  C   UNL     1       4.951   4.002  12.310  0.00  0.00    +0.000 A 
ATOM     28  C   UNL     1       4.260   3.143  11.452  0.00  0.00    +0.000 A 
ATOM     29  C   UNL     1       4.897   2.024  10.923  0.00  0.00    +0.000 A 
ATOM     30  C   UNL     1       6.229   1.769  11.243  0.00  0.00    +0.000 A 
ATOM     31  C   UNL     1       6.918   2.617  12.111  0.00  0.00    +0.000 A 
ENDBRANCH  25  26
ENDBRANCH  22  25
ENDBRANCH   5  20
TORSDOF 6
ENDMDL
MODEL 3
REMARK VINA RESULT:      -8.5      4.740      7.576
REMARK  Name = 
REMARK  7 active torsions:
REMARK  status: ('A' for Active; 'I' for Inactive)
REMARK    1  A    between atoms: C_1  and  C_2
REMARK    2  A    between atoms: C_2  and  C_3
REMARK    3  A    between atoms: C_3  and  N_4
REMARK    4  A    between atoms: N_7  and  C_8
REMARK    5  A    between atoms: C_12  and  C_13
REMARK    6  A    between atoms: N_15  and  C_16
REMARK    7  A    between atoms: C_16  and  C_17
REMARK                            x       y       z     vdW  Elec       q    Type
REMARK                         _______ _______ _______ _____ _____    ______ ____
ROOT
ATOM      1  C   UNL     1       1.972   5.800  20.553  0.00  0.00    +0.000 A 
ATOM      2  C   UNL     1       1.316   4.569  20.716  0.00  0.00    +0.000 A 
ATOM      3  C   UNL     1       1.881   3.376  20.277  0.00  0.00    +0.000 A 
ATOM      4  C   UNL     1       3.102   3.405  19.628  0.00  0.00    +0.000 A 
ATOM      5  C   UNL     1       3.758   4.620  19.395  0.00  0.00    +0.000 A 
ATOM      6  C   UNL     1       3.200   5.819  19.878  0.00  0.00    +0.000 A 
ENDROOT
BRANCH   1  10
ATOM      7  N   UNL     1       0.850   9.272  20.993  0.00  0.00    +0.000 N 
ATOM      8  C   UNL     1       1.466   8.206  20.349  0.00  0.00    +0.000 C 
ATOM      9  O   UNL     1       1.955   8.364  19.226  0.00  0.00    +0.000 OA
ATOM     10  N   UNL     1       1.417   7.018  21.036  0.00  0.00    +0.000 N 
ATOM     11  H   UNL     1       1.035   9.336  21.986  0.00  0.00    +0.000 HD
ATOM     12  H   UNL     1       0.731   6.957  21.777  0.00  0.00    +0.000 HD
BRANCH   7  13
ATOM     13  C   UNL     1       0.874  10.496  20.215  0.00  0.00    +0.000 C 
BRANCH  13  15
ATOM     14  C   UNL     1      -1.291  11.440  21.018  0.00  0.00    +0.000 C 
ATOM     15  C   UNL     1      -0.419  11.147  19.817  0.00  0.00    +0.000 C 
ATOM     16  C   UNL     1      -0.519  12.066  18.606  0.00  0.00    +0.000 C 
ATOM     17  C   UNL     1      -1.135  10.716  18.588  0.00  0.00    +0.000 C 
ATOM     18  F   UNL     1      -0.629   9.743  17.759  0.00  0.00    +0.000 F 
ATOM     19  F   UNL     1      -2.506  10.591  18.581  0.00  0.00    +0.000 F 
ENDBRANCH  13  15
ENDBRANCH   7  13
ENDBRANCH   1  10
BRANCH   5  20
ATOM     20  C   UNL     1       4.944   4.617  18.566  0.00  0.00    +0.000 A 
ATOM     21  C   UNL     1       5.015   5.227  17.333  0.00  0.00    +0.000 A 
ATOM     22  N   UNL     1       6.314   5.070  16.957  0.00  0.00    +0.000 N 
ATOM     23  N   UNL     1       7.004   4.378  17.889  0.00  0.00    +0.000 NA
ATOM     24  N   UNL     1       6.169   4.102  18.888  0.00  0.00    +0.000 NA
BRANCH  22  25
ATOM     25  C   UNL     1       6.987   5.676  15.820  0.00  0.00    +0.000 C 
BRANCH  25  26
ATOM     26  C   UNL     1       6.735   4.927  14.533  0.00  0.00    +0.000 A 
ATOM     27  C   UNL     1       7.624   5.041  13.452  0.00  0.00    +0.000 A 
ATOM     28  C   UNL     1       7.365   4.387  12.245  0.00  0.00    +0.000 A 
ATOM     29  C   UNL     1       6.233   3.588  12.113  0.00  0.00    +0.000 A 
ATOM     30  C   UNL     1       5.364   3.434  13.191  0.00  0.00    +0.000 A 
ATOM     31  C   UNL     1       5.612   4.098  14.393  0.00  0.00    +0.000 A 
ENDBRANCH  25  26
ENDBRANCH  22  25
ENDBRANCH   5  20
TORSDOF 6
ENDMDL
MODEL 4
REMARK VINA RESULT:      -8.4      7.490     11.077
REMARK  Name = 
REMARK  7 active torsions:
REMARK  status: ('A' for Active; 'I' for Inactive)
REMARK    1  A    between atoms: C_1  and  C_2
REMARK    2  A    between atoms: C_2  and  C_3
REMARK    3  A    between atoms: C_3  and  N_4
REMARK    4  A    between atoms: N_7  and  C_8
REMARK    5  A    between atoms: C_12  and  C_13
REMARK    6  A    between atoms: N_15  and  C_16
REMARK    7  A    between atoms: C_16  and  C_17
REMARK                            x       y       z     vdW  Elec       q    Type
REMARK                         _______ _______ _______ _____ _____    ______ ____
ROOT
ATOM      1  C   UNL     1       1.263   9.755  18.042  0.00  0.00    +0.000 A 
ATOM      2  C   UNL     1       1.733  10.866  18.759  0.00  0.00    +0.000 A 
ATOM      3  C   UNL     1       0.878  11.879  19.183  0.00  0.00    +0.000 A 
ATOM      4  C   UNL     1      -0.465  11.811  18.856  0.00  0.00    +0.000 A 
ATOM      5  C   UNL     1      -0.960  10.746  18.092  0.00  0.00    +0.000 A 
ATOM      6  C   UNL     1      -0.096   9.704  17.702  0.00  0.00    +0.000 A 
ENDROOT
BRANCH   1  10
ATOM      7  N   UNL     1       3.320   6.715  17.862  0.00  0.00    +0.000 N 
ATOM      8  C   UNL     1       2.480   7.649  18.455  0.00  0.00    +0.000 C 
ATOM      9  O   UNL     1       2.075   7.469  19.608  0.00  0.00    +0.000 OA
ATOM     10  N   UNL     1       2.126   8.697  17.642  0.00  0.00    +0.000 N 
ATOM     11  H   UNL     1       4.070   7.108  17.306  0.00  0.00    +0.000 HD
ATOM     12  H   UNL     1       2.268   8.561  16.649  0.00  0.00    +0.000 HD
BRANCH   7  13
ATOM     13  C   UNL     1       3.630   5.596  18.731  0.00  0.00    +0.000 C 
BRANCH  13  15
ATOM     14  C   UNL     1       4.418   4.254  16.782  0.00  0.00    +0.000 C 
ATOM     15  C   UNL     1       3.769   4.220  18.148  0.00  0.00    +0.000 C 
ATOM     16  C   UNL     1       3.983   2.992  19.024  0.00  0.00    +0.000 C 
ATOM     17  C   UNL     1       2.691   3.211  18.327  0.00  0.00    +0.000 C 
ATOM     18  F   UNL     1       1.558   3.484  19.055  0.00  0.00    +0.000 F 
ATOM     19  F   UNL     1       2.326   2.383  17.290  0.00  0.00    +0.000 F 
ENDBRANCH  13  15
ENDBRANCH   7  13
ENDBRANCH   1  10
BRANCH   5  20
ATOM     20  C   UNL     1      -2.331  10.805  17.633  0.00  0.00    +0.000 A 
ATOM     21  C   UNL     1      -3.343  11.428  18.331  0.00  0.00    +0.000 A 
ATOM     22  N   UNL     1      -4.422  11.335  17.506  0.00  0.00    +0.000 N 
ATOM     23  N   UNL     1      -4.107  10.670  16.374  0.00  0.00    +0.000 NA
ATOM     24  N   UNL     1      -2.817  10.347  16.441  0.00  0.00    +0.000 NA
BRANCH  22  25
ATOM     25  C   UNL     1      -5.716  11.981  17.663  0.00  0.00    +0.000 C 
BRANCH  25  26
ATOM     26  C   UNL     1      -6.493  11.439  18.839  0.00  0.00    +0.000 A 
ATOM     27  C   UNL     1      -7.006  12.306  19.818  0.00  0.00    +0.000 A 
ATOM     28  C   UNL     1      -7.683  11.801  20.931  0.00  0.00    +0.000 A 
ATOM     29  C   UNL     1      -7.883  10.430  21.064  0.00  0.00    +0.000 A 
ATOM     30  C   UNL     1      -7.415   9.563  20.079  0.00  0.00    +0.000 A 
ATOM     31  C   UNL     1      -6.724  10.062  18.974  0.00  0.00    +0.000 A 
ENDBRANCH  25  26
ENDBRANCH  22  25
ENDBRANCH   5  20
TORSDOF 6
ENDMDL
MODEL 5
REMARK VINA RESULT:      -8.4      5.315      7.727
REMARK  Name = 
REMARK  7 active torsions:
REMARK  status: ('A' for Active; 'I' for Inactive)
REMARK    1  A    between atoms: C_1  and  C_2
REMARK    2  A    between atoms: C_2  and  C_3
REMARK    3  A    between atoms: C_3  and  N_4
REMARK    4  A    between atoms: N_7  and  C_8
REMARK    5  A    between atoms: C_12  and  C_13
REMARK    6  A    between atoms: N_15  and  C_16
REMARK    7  A    between atoms: C_16  and  C_17
REMARK                            x       y       z     vdW  Elec       q    Type
REMARK                         _______ _______ _______ _____ _____    ______ ____
ROOT
ATOM      1  C   UNL     1       2.977   5.059  19.129  0.00  0.00    +0.000 A 
ATOM      2  C   UNL     1       2.185   3.938  18.836  0.00  0.00    +0.000 A 
ATOM      3  C   UNL     1       2.536   3.034  17.839  0.00  0.00    +0.000 A 
ATOM      4  C   UNL     1       3.675   3.266  17.088  0.00  0.00    +0.000 A 
ATOM      5  C   UNL     1       4.458   4.405  17.312  0.00  0.00    +0.000 A 
ATOM      6  C   UNL     1       4.118   5.293  18.351  0.00  0.00    +0.000 A 
ENDROOT
BRANCH   1  10
ATOM      7  N   UNL     1       1.966   7.975  21.125  0.00  0.00    +0.000 N 
ATOM      8  C   UNL     1       2.264   7.268  19.967  0.00  0.00    +0.000 C 
ATOM      9  O   UNL     1       2.127   7.806  18.864  0.00  0.00    +0.000 OA
ATOM     10  N   UNL     1       2.643   5.965  20.175  0.00  0.00    +0.000 N 
ATOM     11  H   UNL     1       2.609   7.826  21.893  0.00  0.00    +0.000 HD
ATOM     12  H   UNL     1       2.414   5.570  21.078  0.00  0.00    +0.000 HD
BRANCH   7  13
ATOM     13  C   UNL     1       1.518   9.330  20.865  0.00  0.00    +0.000 C 
BRANCH  13  15
ATOM     14  C   UNL     1      -0.774   8.595  21.520  0.00  0.00    +0.000 C 
ATOM     15  C   UNL     1       0.048   9.619  20.769  0.00  0.00    +0.000 C 
ATOM     16  C   UNL     1      -0.487  11.041  20.658  0.00  0.00    +0.000 C 
ATOM     17  C   UNL     1      -0.543  10.117  19.499  0.00  0.00    +0.000 C 
ATOM     18  F   UNL     1       0.230  10.364  18.389  0.00  0.00    +0.000 F 
ATOM     19  F   UNL     1      -1.759   9.647  19.058  0.00  0.00    +0.000 F 
ENDBRANCH  13  15
ENDBRANCH   7  13
ENDBRANCH   1  10
BRANCH   5  20
ATOM     20  C   UNL     1       5.539   4.692  16.394  0.00  0.00    +0.000 A 
ATOM     21  C   UNL     1       5.607   4.186  15.114  0.00  0.00    +0.000 A 
ATOM     22  N   UNL     1       6.709   4.779  14.579  0.00  0.00    +0.000 N 
ATOM     23  N   UNL     1       7.307   5.586  15.481  0.00  0.00    +0.000 NA
ATOM     24  N   UNL     1       6.587   5.545  16.601  0.00  0.00    +0.000 NA
BRANCH  22  25
ATOM     25  C   UNL     1       7.151   4.744  13.194  0.00  0.00    +0.000 C 
BRANCH  25  26
ATOM     26  C   UNL     1       6.456   3.668  12.393  0.00  0.00    +0.000 A 
ATOM     27  C   UNL     1       7.169   2.553  11.924  0.00  0.00    +0.000 A 
ATOM     28  C   UNL     1       6.538   1.582  11.142  0.00  0.00    +0.000 A 
ATOM     29  C   UNL     1       5.182   1.697  10.846  0.00  0.00    +0.000 A 
ATOM     30  C   UNL     1       4.454   2.777  11.340  0.00  0.00    +0.000 A 
ATOM     31  C   UNL     1       5.085   3.757  12.108  0.00  0.00    +0.000 A 
ENDBRANCH  25  26
ENDBRANCH  22  25
ENDBRANCH   5  20
TORSDOF 6
ENDMDL
MODEL 6
REMARK VINA RESULT:      -8.4      7.659     11.139
REMARK  Name = 
REMARK  7 active torsions:
REMARK  status: ('A' for Active; 'I' for Inactive)
REMARK    1  A    between atoms: C_1  and  C_2
REMARK    2  A    between atoms: C_2  and  C_3
REMARK    3  A    between atoms: C_3  and  N_4
REMARK    4  A    between atoms: N_7  and  C_8
REMARK    5  A    between atoms: C_12  and  C_13
REMARK    6  A    between atoms: N_15  and  C_16
REMARK    7  A    between atoms: C_16  and  C_17
REMARK                            x       y       z     vdW  Elec       q    Type
REMARK                         _______ _______ _______ _____ _____    ______ ____
ROOT
ATOM      1  C   UNL     1       1.022   9.871  18.332  0.00  0.00    +0.000 A 
ATOM      2  C   UNL     1       1.507  10.970  19.059  0.00  0.00    +0.000 A 
ATOM      3  C   UNL     1       0.692  12.049  19.384  0.00  0.00    +0.000 A 
ATOM      4  C   UNL     1      -0.621  12.060  18.948  0.00  0.00    +0.000 A 
ATOM      5  C   UNL     1      -1.124  11.008  18.172  0.00  0.00    +0.000 A 
ATOM      6  C   UNL     1      -0.304   9.901  17.881  0.00  0.00    +0.000 A 
ENDROOT
BRANCH   1  10
ATOM      7  N   UNL     1       2.952   6.745  18.433  0.00  0.00    +0.000 N 
ATOM      8  C   UNL     1       2.152   7.763  18.937  0.00  0.00    +0.000 C 
ATOM      9  O   UNL     1       1.739   7.703  20.100  0.00  0.00    +0.000 OA
ATOM     10  N   UNL     1       1.840   8.747  18.031  0.00  0.00    +0.000 N 
ATOM     11  H   UNL     1       3.718   7.055  17.847  0.00  0.00    +0.000 HD
ATOM     12  H   UNL     1       1.977   8.517  17.056  0.00  0.00    +0.000 HD
BRANCH   7  13
ATOM     13  C   UNL     1       3.215   5.697  19.401  0.00  0.00    +0.000 C 
BRANCH  13  15
ATOM     14  C   UNL     1       1.697   4.114  20.587  0.00  0.00    +0.000 C 
ATOM     15  C   UNL     1       2.461   4.402  19.314  0.00  0.00    +0.000 C 
ATOM     16  C   UNL     1       1.900   3.883  17.996  0.00  0.00    +0.000 C 
ATOM     17  C   UNL     1       3.062   3.222  18.639  0.00  0.00    +0.000 C 
ATOM     18  F   UNL     1       4.300   3.280  18.044  0.00  0.00    +0.000 F 
ATOM     19  F   UNL     1       2.921   1.960  19.173  0.00  0.00    +0.000 F 
ENDBRANCH  13  15
ENDBRANCH   7  13
ENDBRANCH   1  10
BRANCH   5  20
ATOM     20  C   UNL     1      -2.445  11.144  17.598  0.00  0.00    +0.000 A 
ATOM     21  C   UNL     1      -3.558  11.513  18.323  0.00  0.00    +0.000 A 
ATOM     22  N   UNL     1      -4.544  11.615  17.391  0.00  0.00    +0.000 N 
ATOM     23  N   UNL     1      -4.080  11.302  16.162  0.00  0.00    +0.000 NA
ATOM     24  N   UNL     1      -2.784  11.018  16.280  0.00  0.00    +0.000 NA
BRANCH  22  25
ATOM     25  C   UNL     1      -5.886  12.146  17.574  0.00  0.00    +0.000 C 
BRANCH  25  26
ATOM     26  C   UNL     1      -6.573  11.573  18.791  0.00  0.00    +0.000 A 
ATOM     27  C   UNL     1      -6.823  10.195  18.888  0.00  0.00    +0.000 A 
ATOM     28  C   UNL     1      -7.502   9.671  19.992  0.00  0.00    +0.000 A 
ATOM     29  C   UNL     1      -7.911  10.512  21.023  0.00  0.00    +0.000 A 
ATOM     30  C   UNL     1      -7.632  11.875  20.958  0.00  0.00    +0.000 A 
ATOM     31  C   UNL     1      -6.968  12.404  19.850  0.00  0.00    +0.000 A 
ENDBRANCH  25  26
ENDBRANCH  22  25
ENDBRANCH   5  20
TORSDOF 6
ENDMDL
MODEL 7
REMARK VINA RESULT:      -8.2      8.683     11.385
REMARK  Name = 
REMARK  7 active torsions:
REMARK  status: ('A' for Active; 'I' for Inactive)
REMARK    1  A    between atoms: C_1  and  C_2
REMARK    2  A    between atoms: C_2  and  C_3
REMARK    3  A    between atoms: C_3  and  N_4
REMARK    4  A    between atoms: N_7  and  C_8
REMARK    5  A    between atoms: C_12  and  C_13
REMARK    6  A    between atoms: N_15  and  C_16
REMARK    7  A    between atoms: C_16  and  C_17
REMARK                            x       y       z     vdW  Elec       q    Type
REMARK                         _______ _______ _______ _____ _____    ______ ____
ROOT
ATOM      1  C   UNL     1       0.464  10.459  19.417  0.00  0.00    +0.000 A 
ATOM      2  C   UNL     1       1.182  11.644  19.191  0.00  0.00    +0.000 A 
ATOM      3  C   UNL     1       0.581  12.767  18.632  0.00  0.00    +0.000 A 
ATOM      4  C   UNL     1      -0.748  12.705  18.253  0.00  0.00    +0.000 A 
ATOM      5  C   UNL     1      -1.480  11.521  18.409  0.00  0.00    +0.000 A 
ATOM      6  C   UNL     1      -0.876  10.401  19.013  0.00  0.00    +0.000 A 
ENDROOT
BRANCH   1  10
ATOM      7  N   UNL     1       2.214   7.303  20.113  0.00  0.00    +0.000 N 
ATOM      8  C   UNL     1       1.681   8.314  19.324  0.00  0.00    +0.000 C 
ATOM      9  O   UNL     1       1.831   8.284  18.098  0.00  0.00    +0.000 OA
ATOM     10  N   UNL     1       1.063   9.320  20.025  0.00  0.00    +0.000 N 
ATOM     11  H   UNL     1       1.622   7.000  20.876  0.00  0.00    +0.000 HD
ATOM     12  H   UNL     1       1.282   9.379  21.011  0.00  0.00    +0.000 HD
BRANCH   7  13
ATOM     13  C   UNL     1       2.905   6.286  19.343  0.00  0.00    +0.000 C 
BRANCH  13  15
ATOM     14  C   UNL     1       1.444   4.549  20.375  0.00  0.00    +0.000 C 
ATOM     15  C   UNL     1       2.281   4.931  19.175  0.00  0.00    +0.000 C 
ATOM     16  C   UNL     1       1.880   4.393  17.807  0.00  0.00    +0.000 C 
ATOM     17  C   UNL     1       3.040   3.824  18.536  0.00  0.00    +0.000 C 
ATOM     18  F   UNL     1       4.312   4.005  18.047  0.00  0.00    +0.000 F 
ATOM     19  F   UNL     1       2.970   2.544  19.037  0.00  0.00    +0.000 F 
ENDBRANCH  13  15
ENDBRANCH   7  13
ENDBRANCH   1  10
BRANCH   5  20
ATOM     20  C   UNL     1      -2.810  11.453  17.844  0.00  0.00    +0.000 A 
ATOM     21  C   UNL     1      -3.959  11.691  18.565  0.00  0.00    +0.000 A 
ATOM     22  N   UNL     1      -4.955  11.622  17.639  0.00  0.00    +0.000 N 
ATOM     23  N   UNL     1      -4.457  11.330  16.418  0.00  0.00    +0.000 NA
ATOM     24  N   UNL     1      -3.134  11.233  16.534  0.00  0.00    +0.000 NA
BRANCH  22  25
ATOM     25  C   UNL     1      -6.356  11.969  17.816  0.00  0.00    +0.000 C 
BRANCH  25  26
ATOM     26  C   UNL     1      -6.593  13.460  17.754  0.00  0.00    +0.000 A 
ATOM     27  C   UNL     1      -6.896  14.086  16.534  0.00  0.00    +0.000 A 
ATOM     28  C   UNL     1      -7.068  15.471  16.468  0.00  0.00    +0.000 A 
ATOM     29  C   UNL     1      -6.970  16.242  17.622  0.00  0.00    +0.000 A 
ATOM     30  C   UNL     1      -6.711  15.628  18.846  0.00  0.00    +0.000 A 
ATOM     31  C   UNL     1      -6.523  14.247  18.913  0.00  0.00    +0.000 A 
ENDBRANCH  25  26
ENDBRANCH  22  25
ENDBRANCH   5  20
TORSDOF 6
ENDMDL
MODEL 8
REMARK VINA RESULT:      -8.2      8.756     11.481
REMARK  Name = 
REMARK  7 active torsions:
REMARK  status: ('A' for Active; 'I' for Inactive)
REMARK    1  A    between atoms: C_1  and  C_2
REMARK    2  A    between atoms: C_2  and  C_3
REMARK    3  A    between atoms: C_3  and  N_4
REMARK    4  A    between atoms: N_7  and  C_8
REMARK    5  A    between atoms: C_12  and  C_13
REMARK    6  A    between atoms: N_15  and  C_16
REMARK    7  A    between atoms: C_16  and  C_17
REMARK                            x       y       z     vdW  Elec       q    Type
REMARK                         _______ _______ _______ _____ _____    ______ ____
ROOT
ATOM      1  C   UNL     1       0.490  10.393  19.065  0.00  0.00    +0.000 A 
ATOM      2  C   UNL     1       1.078  11.662  19.181  0.00  0.00    +0.000 A 
ATOM      3  C   UNL     1       0.354  12.828  18.953  0.00  0.00    +0.000 A 
ATOM      4  C   UNL     1      -0.970  12.735  18.562  0.00  0.00    +0.000 A 
ATOM      5  C   UNL     1      -1.574  11.485  18.379  0.00  0.00    +0.000 A 
ATOM      6  C   UNL     1      -0.847  10.310  18.653  0.00  0.00    +0.000 A 
ENDROOT
BRANCH   1  10
ATOM      7  N   UNL     1       2.612   7.398  18.884  0.00  0.00    +0.000 N 
ATOM      8  C   UNL     1       1.972   8.534  18.405  0.00  0.00    +0.000 C 
ATOM      9  O   UNL     1       2.153   8.898  17.239  0.00  0.00    +0.000 OA
ATOM     10  N   UNL     1       1.215   9.199  19.337  0.00  0.00    +0.000 N 
ATOM     11  H   UNL     1       2.046   6.810  19.483  0.00  0.00    +0.000 HD
ATOM     12  H   UNL     1       1.402   8.978  20.307  0.00  0.00    +0.000 HD
BRANCH   7  13
ATOM     13  C   UNL     1       3.445   6.753  17.887  0.00  0.00    +0.000 C 
BRANCH  13  15
ATOM     14  C   UNL     1       2.276   4.550  17.848  0.00  0.00    +0.000 C 
ATOM     15  C   UNL     1       3.609   5.261  17.911  0.00  0.00    +0.000 C 
ATOM     16  C   UNL     1       4.827   4.574  17.306  0.00  0.00    +0.000 C 
ATOM     17  C   UNL     1       4.639   4.628  18.777  0.00  0.00    +0.000 C 
ATOM     18  F   UNL     1       5.495   5.376  19.550  0.00  0.00    +0.000 F 
ATOM     19  F   UNL     1       4.359   3.473  19.472  0.00  0.00    +0.000 F 
ENDBRANCH  13  15
ENDBRANCH   7  13
ENDBRANCH   1  10
BRANCH   5  20
ATOM     20  C   UNL     1      -2.903  11.437  17.808  0.00  0.00    +0.000 A 
ATOM     21  C   UNL     1      -4.051  11.707  18.522  0.00  0.00    +0.000 A 
ATOM     22  N   UNL     1      -5.043  11.648  17.592  0.00  0.00    +0.000 N 
ATOM     23  N   UNL     1      -4.546  11.333  16.377  0.00  0.00    +0.000 NA
ATOM     24  N   UNL     1      -3.226  11.209  16.500  0.00  0.00    +0.000 NA
BRANCH  22  25
ATOM     25  C   UNL     1      -6.437  12.027  17.758  0.00  0.00    +0.000 C 
BRANCH  25  26
ATOM     26  C   UNL     1      -6.640  13.522  17.707  0.00  0.00    +0.000 A 
ATOM     27  C   UNL     1      -6.569  14.295  18.877  0.00  0.00    +0.000 A 
ATOM     28  C   UNL     1      -6.805  15.671  18.837  0.00  0.00    +0.000 A 
ATOM     29  C   UNL     1      -7.082  16.297  17.625  0.00  0.00    +0.000 A 
ATOM     30  C   UNL     1      -7.115  15.548  16.450  0.00  0.00    +0.000 A 
ATOM     31  C   UNL     1      -6.895  14.171  16.489  0.00  0.00    +0.000 A 
ENDBRANCH  25  26
ENDBRANCH  22  25
ENDBRANCH   5  20
TORSDOF 6
ENDMDL
MODEL 9
REMARK VINA RESULT:      -8.2      7.262     10.297
REMARK  Name = 
REMARK  7 active torsions:
REMARK  status: ('A' for Active; 'I' for Inactive)
REMARK    1  A    between atoms: C_1  and  C_2
REMARK    2  A    between atoms: C_2  and  C_3
REMARK    3  A    between atoms: C_3  and  N_4
REMARK    4  A    between atoms: N_7  and  C_8
REMARK    5  A    between atoms: C_12  and  C_13
REMARK    6  A    between atoms: N_15  and  C_16
REMARK    7  A    between atoms: C_16  and  C_17
REMARK                            x       y       z     vdW  Elec       q    Type
REMARK                         _______ _______ _______ _____ _____    ______ ____
ROOT
ATOM      1  C   UNL     1      -0.644  10.661  19.736  0.00  0.00    +0.000 A 
ATOM      2  C   UNL     1      -0.663  10.395  21.114  0.00  0.00    +0.000 A 
ATOM      3  C   UNL     1       0.268   9.549  21.708  0.00  0.00    +0.000 A 
ATOM      4  C   UNL     1       1.215   8.923  20.917  0.00  0.00    +0.000 A 
ATOM      5  C   UNL     1       1.228   9.120  19.530  0.00  0.00    +0.000 A 
ATOM      6  C   UNL     1       0.308  10.009  18.942  0.00  0.00    +0.000 A 
ENDROOT
BRANCH   1  10
ATOM      7  N   UNL     1      -3.436  12.188  17.898  0.00  0.00    +0.000 N 
ATOM      8  C   UNL     1      -2.651  11.152  18.387  0.00  0.00    +0.000 C 
ATOM      9  O   UNL     1      -2.981   9.980  18.184  0.00  0.00    +0.000 OA
ATOM     10  N   UNL     1      -1.568  11.557  19.129  0.00  0.00    +0.000 N 
ATOM     11  H   UNL     1      -2.920  12.974  17.521  0.00  0.00    +0.000 HD
ATOM     12  H   UNL     1      -1.592  12.508  19.474  0.00  0.00    +0.000 HD
BRANCH   7  13
ATOM     13  C   UNL     1      -4.599  11.723  17.166  0.00  0.00    +0.000 C 
BRANCH  13  15
ATOM     14  C   UNL     1      -6.598  13.171  16.810  0.00  0.00    +0.000 C 
ATOM     15  C   UNL     1      -5.973  12.082  17.652  0.00  0.00    +0.000 C 
ATOM     16  C   UNL     1      -6.888  11.056  18.308  0.00  0.00    +0.000 C 
ATOM     17  C   UNL     1      -6.268  12.140  19.108  0.00  0.00    +0.000 C 
ATOM     18  F   UNL     1      -5.316  11.837  20.052  0.00  0.00    +0.000 F 
ATOM     19  F   UNL     1      -7.056  13.144  19.625  0.00  0.00    +0.000 F 
ENDBRANCH  13  15
ENDBRANCH   7  13
ENDBRANCH   1  10
BRANCH   5  20
ATOM     20  C   UNL     1       2.124   8.315  18.728  0.00  0.00    +0.000 A 
ATOM     21  C   UNL     1       2.531   7.046  19.079  0.00  0.00    +0.000 A 
ATOM     22  N   UNL     1       3.269   6.627  18.015  0.00  0.00    +0.000 N 
ATOM     23  N   UNL     1       3.340   7.588  17.069  0.00  0.00    +0.000 NA
ATOM     24  N   UNL     1       2.630   8.630  17.498  0.00  0.00    +0.000 NA
BRANCH  22  25
ATOM     25  C   UNL     1       3.794   5.293  17.770  0.00  0.00    +0.000 C 
BRANCH  25  26
ATOM     26  C   UNL     1       2.997   4.220  18.474  0.00  0.00    +0.000 A 
ATOM     27  C   UNL     1       1.784   3.760  17.936  0.00  0.00    +0.000 A 
ATOM     28  C   UNL     1       1.023   2.803  18.611  0.00  0.00    +0.000 A 
ATOM     29  C   UNL     1       1.477   2.273  19.815  0.00  0.00    +0.000 A 
ATOM     30  C   UNL     1       2.698   2.691  20.340  0.00  0.00    +0.000 A 
ATOM     31  C   UNL     1       3.454   3.658  19.675  0.00  0.00    +0.000 A 
ENDBRANCH  25  26
ENDBRANCH  22  25
ENDBRANCH   5  20
TORSDOF 6
ENDMDL
