MODEL 1
REMARK VINA RESULT:      -8.2      0.000      0.000
REMARK  Name = 
REMARK  6 active torsions:
REMARK  status: ('A' for Active; 'I' for Inactive)
REMARK    1  A    between atoms: C_1  and  C_2
REMARK    2  A    between atoms: N_4  and  C_5
REMARK    3  A    between atoms: C_8  and  N_9
REMARK    4  A    between atoms: C_10  and  C_12
REMARK    5  A    between atoms: N_19  and  C_20
REMARK    6  A    between atoms: C_20  and  C_21
REMARK                            x       y       z     vdW  Elec       q    Type
REMARK                         _______ _______ _______ _____ _____    ______ ____
ROOT
ATOM      1  C   UNL     1       2.743   7.185  18.124  0.00  0.00    +0.000 A 
ATOM      2  C   UNL     1       3.942   7.606  17.541  0.00  0.00    +0.000 A 
ATOM      3  N   UNL     1       4.894   6.798  17.006  0.00  0.00    +0.000 NA
ATOM      4  C   UNL     1       4.588   5.490  17.105  0.00  0.00    +0.000 A 
ATOM      5  C   UNL     1       3.436   4.947  17.664  0.00  0.00    +0.000 A 
ATOM      6  C   UNL     1       3.615   3.553  17.556  0.00  0.00    +0.000 A 
ATOM      7  N   UNL     1       4.779   3.217  16.995  0.00  0.00    +0.000 NA
ATOM      8  N   UNL     1       5.355   4.418  16.717  0.00  0.00    +0.000 N 
ATOM      9  C   UNL     1       2.469   5.817  18.192  0.00  0.00    +0.000 A 
ENDROOT
BRANCH   1  11
ATOM     10  N   UNL     1       1.350   9.185  17.912  0.00  0.00    +0.000 N 
ATOM     11  C   UNL     1       1.870   8.204  18.750  0.00  0.00    +0.000 C 
ATOM     12  O   UNL     1       1.683   8.098  19.957  0.00  0.00    +0.000 OA
ATOM     13  H   UNL     1       1.709   9.244  16.969  0.00  0.00    +0.000 HD
BRANCH  10  17
ATOM     14  C   UNL     1      -1.373  12.205  19.154  0.00  0.00    +0.000 A 
ATOM     15  C   UNL     1      -1.830  11.062  18.510  0.00  0.00    +0.000 A 
ATOM     16  C   UNL     1      -0.945  10.070  18.084  0.00  0.00    +0.000 A 
ATOM     17  C   UNL     1       0.425  10.192  18.286  0.00  0.00    +0.000 A 
ATOM     18  C   UNL     1       0.900  11.370  18.878  0.00  0.00    +0.000 A 
ATOM     19  C   UNL     1       0.009  12.375  19.301  0.00  0.00    +0.000 A 
BRANCH  14  23
ATOM     20  C   UNL     1      -3.771  14.337  21.138  0.00  0.00    +0.000 C 
ATOM     21  C   UNL     1      -2.818  13.194  20.919  0.00  0.00    +0.000 C 
ATOM     22  O   UNL     1      -2.605  12.391  21.820  0.00  0.00    +0.000 OA
ATOM     23  N   UNL     1      -2.251  13.194  19.651  0.00  0.00    +0.000 N 
ATOM     24  H   UNL     1      -2.379  14.022  19.082  0.00  0.00    +0.000 HD
ENDBRANCH  14  23
ENDBRANCH  10  17
ENDBRANCH   1  11
BRANCH   8  25
ATOM     25  C   UNL     1       6.714   4.469  16.203  0.00  0.00    +0.000 C 
BRANCH  25  26
ATOM     26  C   UNL     1       6.752   4.409  14.697  0.00  0.00    +0.000 A 
ATOM     27  C   UNL     1       5.860   3.584  13.996  0.00  0.00    +0.000 A 
ATOM     28  C   UNL     1       5.907   3.515  12.603  0.00  0.00    +0.000 A 
ATOM     29  C   UNL     1       6.846   4.265  11.896  0.00  0.00    +0.000 A 
ATOM     30  C   UNL     1       7.736   5.090  12.581  0.00  0.00    +0.000 A 
ATOM     31  C   UNL     1       7.690   5.161  13.974  0.00  0.00    +0.000 A 
ENDBRANCH  25  26
ENDBRANCH   8  25
TORSDOF 5
ENDMDL
MODEL 2
REMARK VINA RESULT:      -8.2      2.994      4.600
REMARK  Name = 
REMARK  6 active torsions:
REMARK  status: ('A' for Active; 'I' for Inactive)
REMARK    1  A    between atoms: C_1  and  C_2
REMARK    2  A    between atoms: N_4  and  C_5
REMARK    3  A    between atoms: C_8  and  N_9
REMARK    4  A    between atoms: C_10  and  C_12
REMARK    5  A    between atoms: N_19  and  C_20
REMARK    6  A    between atoms: C_20  and  C_21
REMARK                            x       y       z     vdW  Elec       q    Type
REMARK                         _______ _______ _______ _____ _____    ______ ____
ROOT
ATOM      1  C   UNL     1       1.850   8.676  18.496  0.00  0.00    +0.000 A 
ATOM      2  C   UNL     1       1.867   7.776  19.565  0.00  0.00    +0.000 A 
ATOM      3  N   UNL     1       2.716   6.725  19.708  0.00  0.00    +0.000 NA
ATOM      4  C   UNL     1       3.573   6.599  18.676  0.00  0.00    +0.000 A 
ATOM      5  C   UNL     1       3.653   7.422  17.558  0.00  0.00    +0.000 A 
ATOM      6  C   UNL     1       4.670   6.847  16.770  0.00  0.00    +0.000 A 
ATOM      7  N   UNL     1       5.195   5.746  17.313  0.00  0.00    +0.000 NA
ATOM      8  N   UNL     1       4.515   5.617  18.485  0.00  0.00    +0.000 N 
ATOM      9  C   UNL     1       2.767   8.506  17.455  0.00  0.00    +0.000 A 
ENDROOT
BRANCH   1  11
ATOM     10  N   UNL     1      -0.349   9.401  17.707  0.00  0.00    +0.000 N 
ATOM     11  C   UNL     1       0.783   9.703  18.456  0.00  0.00    +0.000 C 
ATOM     12  O   UNL     1       0.993  10.734  19.086  0.00  0.00    +0.000 OA
ATOM     13  H   UNL     1      -0.323   8.584  17.114  0.00  0.00    +0.000 HD
BRANCH  10  17
ATOM     14  C   UNL     1      -3.897  11.738  17.529  0.00  0.00    +0.000 A 
ATOM     15  C   UNL     1      -3.470  11.014  16.422  0.00  0.00    +0.000 A 
ATOM     16  C   UNL     1      -2.299  10.256  16.463  0.00  0.00    +0.000 A 
ATOM     17  C   UNL     1      -1.518  10.199  17.612  0.00  0.00    +0.000 A 
ATOM     18  C   UNL     1      -1.907  10.975  18.711  0.00  0.00    +0.000 A 
ATOM     19  C   UNL     1      -3.084  11.747  18.669  0.00  0.00    +0.000 A 
BRANCH  14  23
ATOM     20  C   UNL     1      -7.473  12.927  17.691  0.00  0.00    +0.000 C 
ATOM     21  C   UNL     1      -6.357  11.931  17.841  0.00  0.00    +0.000 C 
ATOM     22  O   UNL     1      -6.598  10.788  18.211  0.00  0.00    +0.000 OA
ATOM     23  N   UNL     1      -5.109  12.463  17.536  0.00  0.00    +0.000 N 
ATOM     24  H   UNL     1      -5.044  13.467  17.426  0.00  0.00    +0.000 HD
ENDBRANCH  14  23
ENDBRANCH  10  17
ENDBRANCH   1  11
BRANCH   8  25
ATOM     25  C   UNL     1       4.720   4.442  19.317  0.00  0.00    +0.000 C 
BRANCH  25  26
ATOM     26  C   UNL     1       3.502   3.553  19.348  0.00  0.00    +0.000 A 
ATOM     27  C   UNL     1       3.026   2.959  18.170  0.00  0.00    +0.000 A 
ATOM     28  C   UNL     1       1.887   2.151  18.196  0.00  0.00    +0.000 A 
ATOM     29  C   UNL     1       1.213   1.931  19.396  0.00  0.00    +0.000 A 
ATOM     30  C   UNL     1       1.678   2.514  20.573  0.00  0.00    +0.000 A 
ATOM     31  C   UNL     1       2.816   3.321  20.550  0.00  0.00    +0.000 A 
ENDBRANCH  25  26
ENDBRANCH   8  25
TORSDOF 5
ENDMDL
MODEL 3
REMARK VINA RESULT:      -8.2      3.833      5.609
REMARK  Name = 
REMARK  6 active torsions:
REMARK  status: ('A' for Active; 'I' for Inactive)
REMARK    1  A    between atoms: C_1  and  C_2
REMARK    2  A    between atoms: N_4  and  C_5
REMARK    3  A    between atoms: C_8  and  N_9
REMARK    4  A    between atoms: C_10  and  C_12
REMARK    5  A    between atoms: N_19  and  C_20
REMARK    6  A    between atoms: C_20  and  C_21
REMARK                            x       y       z     vdW  Elec       q    Type
REMARK                         _______ _______ _______ _____ _____    ______ ____
ROOT
ATOM      1  C   UNL     1       0.516   9.806  20.332  0.00  0.00    +0.000 A 
ATOM      2  C   UNL     1       0.897   8.828  21.255  0.00  0.00    +0.000 A 
ATOM      3  N   UNL     1       1.726   7.780  21.008  0.00  0.00    +0.000 NA
ATOM      4  C   UNL     1       2.160   7.743  19.733  0.00  0.00    +0.000 A 
ATOM      5  C   UNL     1       1.851   8.649  18.725  0.00  0.00    +0.000 A 
ATOM      6  C   UNL     1       2.515   8.149  17.587  0.00  0.00    +0.000 A 
ATOM      7  N   UNL     1       3.182   7.017  17.824  0.00  0.00    +0.000 NA
ATOM      8  N   UNL     1       2.959   6.791  19.148  0.00  0.00    +0.000 N 
ATOM      9  C   UNL     1       1.002   9.726  19.024  0.00  0.00    +0.000 A 
ENDROOT
BRANCH   1  11
ATOM     10  N   UNL     1      -0.495  11.165  22.097  0.00  0.00    +0.000 N 
ATOM     11  C   UNL     1      -0.481  10.818  20.750  0.00  0.00    +0.000 C 
ATOM     12  O   UNL     1      -1.214  11.260  19.872  0.00  0.00    +0.000 OA
ATOM     13  H   UNL     1       0.057  10.611  22.737  0.00  0.00    +0.000 HD
BRANCH  10  17
ATOM     14  C   UNL     1      -2.813  14.214  23.942  0.00  0.00    +0.000 A 
ATOM     15  C   UNL     1      -3.321  12.929  23.798  0.00  0.00    +0.000 A 
ATOM     16  C   UNL     1      -2.576  11.923  23.180  0.00  0.00    +0.000 A 
ATOM     17  C   UNL     1      -1.300  12.172  22.686  0.00  0.00    +0.000 A 
ATOM     18  C   UNL     1      -0.806  13.480  22.772  0.00  0.00    +0.000 A 
ATOM     19  C   UNL     1      -1.560  14.498  23.388  0.00  0.00    +0.000 A 
BRANCH  14  23
ATOM     20  C   UNL     1      -5.049  17.062  25.003  0.00  0.00    +0.000 C 
ATOM     21  C   UNL     1      -4.535  16.005  24.065  0.00  0.00    +0.000 C 
ATOM     22  O   UNL     1      -5.020  15.888  22.946  0.00  0.00    +0.000 OA
ATOM     23  N   UNL     1      -3.520  15.233  24.619  0.00  0.00    +0.000 N 
ATOM     24  H   UNL     1      -3.354  15.324  25.613  0.00  0.00    +0.000 HD
ENDBRANCH  14  23
ENDBRANCH  10  17
ENDBRANCH   1  11
BRANCH   8  25
ATOM     25  C   UNL     1       3.429   5.560  19.762  0.00  0.00    +0.000 C 
BRANCH  25  26
ATOM     26  C   UNL     1       2.526   4.393  19.448  0.00  0.00    +0.000 A 
ATOM     27  C   UNL     1       1.521   4.010  20.347  0.00  0.00    +0.000 A 
ATOM     28  C   UNL     1       0.698   2.919  20.065  0.00  0.00    +0.000 A 
ATOM     29  C   UNL     1       0.872   2.198  18.885  0.00  0.00    +0.000 A 
ATOM     30  C   UNL     1       1.866   2.570  17.983  0.00  0.00    +0.000 A 
ATOM     31  C   UNL     1       2.690   3.661  18.262  0.00  0.00    +0.000 A 
ENDBRANCH  25  26
ENDBRANCH   8  25
TORSDOF 5
ENDMDL
MODEL 4
REMARK VINA RESULT:      -8.1      0.275      1.283
REMARK  Name = 
REMARK  6 active torsions:
REMARK  status: ('A' for Active; 'I' for Inactive)
REMARK    1  A    between atoms: C_1  and  C_2
REMARK    2  A    between atoms: N_4  and  C_5
REMARK    3  A    between atoms: C_8  and  N_9
REMARK    4  A    between atoms: C_10  and  C_12
REMARK    5  A    between atoms: N_19  and  C_20
REMARK    6  A    between atoms: C_20  and  C_21
REMARK                            x       y       z     vdW  Elec       q    Type
REMARK                         _______ _______ _______ _____ _____    ______ ____
ROOT
ATOM      1  C   UNL     1       2.718   7.215  18.196  0.00  0.00    +0.000 A 
ATOM      2  C   UNL     1       3.922   7.667  17.649  0.00  0.00    +0.000 A 
ATOM      3  N   UNL     1       4.879   6.890  17.077  0.00  0.00    +0.000 NA
ATOM      4  C   UNL     1       4.570   5.579  17.096  0.00  0.00    +0.000 A 
ATOM      5  C   UNL     1       3.414   5.006  17.613  0.00  0.00    +0.000 A 
ATOM      6  C   UNL     1       3.593   3.621  17.426  0.00  0.00    +0.000 A 
ATOM      7  N   UNL     1       4.761   3.316  16.856  0.00  0.00    +0.000 NA
ATOM      8  N   UNL     1       5.340   4.530  16.653  0.00  0.00    +0.000 N 
ATOM      9  C   UNL     1       2.443   5.845  18.183  0.00  0.00    +0.000 A 
ENDROOT
BRANCH   1  11
ATOM     10  N   UNL     1       1.245   9.163  18.069  0.00  0.00    +0.000 N 
ATOM     11  C   UNL     1       1.840   8.197  18.873  0.00  0.00    +0.000 C 
ATOM     12  O   UNL     1       1.716   8.075  20.086  0.00  0.00    +0.000 OA
ATOM     13  H   UNL     1       1.556   9.243  17.111  0.00  0.00    +0.000 HD
BRANCH  10  17
ATOM     14  C   UNL     1      -1.608  12.095  19.230  0.00  0.00    +0.000 A 
ATOM     15  C   UNL     1      -0.308  12.139  19.720  0.00  0.00    +0.000 A 
ATOM     16  C   UNL     1       0.633  11.174  19.359  0.00  0.00    +0.000 A 
ATOM     17  C   UNL     1       0.304  10.134  18.497  0.00  0.00    +0.000 A 
ATOM     18  C   UNL     1      -1.021  10.046  18.048  0.00  0.00    +0.000 A 
ATOM     19  C   UNL     1      -1.974  11.015  18.418  0.00  0.00    +0.000 A 
BRANCH  14  23
ATOM     20  C   UNL     1      -4.271  14.312  20.721  0.00  0.00    +0.000 C 
ATOM     21  C   UNL     1      -3.271  13.189  20.720  0.00  0.00    +0.000 C 
ATOM     22  O   UNL     1      -3.142  12.481  21.712  0.00  0.00    +0.000 OA
ATOM     23  N   UNL     1      -2.562  13.093  19.529  0.00  0.00    +0.000 N 
ATOM     24  H   UNL     1      -2.645  13.859  18.873  0.00  0.00    +0.000 HD
ENDBRANCH  14  23
ENDBRANCH  10  17
ENDBRANCH   1  11
BRANCH   8  25
ATOM     25  C   UNL     1       6.704   4.609  16.156  0.00  0.00    +0.000 C 
BRANCH  25  26
ATOM     26  C   UNL     1       6.767   4.476  14.655  0.00  0.00    +0.000 A 
ATOM     27  C   UNL     1       7.670   5.247  13.910  0.00  0.00    +0.000 A 
ATOM     28  C   UNL     1       7.715   5.137  12.519  0.00  0.00    +0.000 A 
ATOM     29  C   UNL     1       6.857   4.259  11.859  0.00  0.00    +0.000 A 
ATOM     30  C   UNL     1       5.956   3.486  12.589  0.00  0.00    +0.000 A 
ATOM     31  C   UNL     1       5.910   3.594  13.979  0.00  0.00    +0.000 A 
ENDBRANCH  25  26
ENDBRANCH   8  25
TORSDOF 5
ENDMDL
MODEL 5
REMARK VINA RESULT:      -8.1      3.857      5.700
REMARK  Name = 
REMARK  6 active torsions:
REMARK  status: ('A' for Active; 'I' for Inactive)
REMARK    1  A    between atoms: C_1  and  C_2
REMARK    2  A    between atoms: N_4  and  C_5
REMARK    3  A    between atoms: C_8  and  N_9
REMARK    4  A    between atoms: C_10  and  C_12
REMARK    5  A    between atoms: N_19  and  C_20
REMARK    6  A    between atoms: C_20  and  C_21
REMARK                            x       y       z     vdW  Elec       q    Type
REMARK                         _______ _______ _______ _____ _____    ______ ____
ROOT
ATOM      1  C   UNL     1       0.462   9.767  20.470  0.00  0.00    +0.000 A 
ATOM      2  C   UNL     1       0.833   8.762  21.368  0.00  0.00    +0.000 A 
ATOM      3  N   UNL     1       1.667   7.724  21.101  0.00  0.00    +0.000 NA
ATOM      4  C   UNL     1       2.117   7.726  19.830  0.00  0.00    +0.000 A 
ATOM      5  C   UNL     1       1.819   8.661  18.846  0.00  0.00    +0.000 A 
ATOM      6  C   UNL     1       2.497   8.197  17.702  0.00  0.00    +0.000 A 
ATOM      7  N   UNL     1       3.163   7.059  17.913  0.00  0.00    +0.000 NA
ATOM      8  N   UNL     1       2.925   6.793  19.226  0.00  0.00    +0.000 N 
ATOM      9  C   UNL     1       0.964   9.728  19.167  0.00  0.00    +0.000 A 
ENDROOT
BRANCH   1  11
ATOM     10  N   UNL     1      -0.515  11.137  22.247  0.00  0.00    +0.000 N 
ATOM     11  C   UNL     1      -0.542  10.765  20.907  0.00  0.00    +0.000 C 
ATOM     12  O   UNL     1      -1.315  11.175  20.048  0.00  0.00    +0.000 OA
ATOM     13  H   UNL     1       0.072  10.607  22.876  0.00  0.00    +0.000 HD
BRANCH  10  17
ATOM     14  C   UNL     1      -3.024  14.111  23.961  0.00  0.00    +0.000 A 
ATOM     15  C   UNL     1      -1.707  14.404  23.625  0.00  0.00    +0.000 A 
ATOM     16  C   UNL     1      -0.869  13.432  23.076  0.00  0.00    +0.000 A 
ATOM     17  C   UNL     1      -1.321  12.137  22.847  0.00  0.00    +0.000 A 
ATOM     18  C   UNL     1      -2.627  11.817  23.241  0.00  0.00    +0.000 A 
ATOM     19  C   UNL     1      -3.471  12.795  23.802  0.00  0.00    +0.000 A 
BRANCH  14  23
ATOM     20  C   UNL     1      -5.650  16.765  24.499  0.00  0.00    +0.000 C 
ATOM     21  C   UNL     1      -4.913  15.711  23.721  0.00  0.00    +0.000 C 
ATOM     22  O   UNL     1      -5.230  15.469  22.562  0.00  0.00    +0.000 OA
ATOM     23  N   UNL     1      -3.911  15.091  24.459  0.00  0.00    +0.000 N 
ATOM     24  H   UNL     1      -3.891  15.264  25.456  0.00  0.00    +0.000 HD
ENDBRANCH  14  23
ENDBRANCH  10  17
ENDBRANCH   1  11
BRANCH   8  25
ATOM     25  C   UNL     1       3.388   5.544  19.808  0.00  0.00    +0.000 C 
BRANCH  25  26
ATOM     26  C   UNL     1       2.498   4.384  19.439  0.00  0.00    +0.000 A 
ATOM     27  C   UNL     1       2.856   3.518  18.396  0.00  0.00    +0.000 A 
ATOM     28  C   UNL     1       2.023   2.455  18.042  0.00  0.00    +0.000 A 
ATOM     29  C   UNL     1       0.824   2.249  18.723  0.00  0.00    +0.000 A 
ATOM     30  C   UNL     1       0.459   3.101  19.763  0.00  0.00    +0.000 A 
ATOM     31  C   UNL     1       1.291   4.164  20.119  0.00  0.00    +0.000 A 
ENDBRANCH  25  26
ENDBRANCH   8  25
TORSDOF 5
ENDMDL
MODEL 6
REMARK VINA RESULT:      -8.1      6.715      8.620
REMARK  Name = 
REMARK  6 active torsions:
REMARK  status: ('A' for Active; 'I' for Inactive)
REMARK    1  A    between atoms: C_1  and  C_2
REMARK    2  A    between atoms: N_4  and  C_5
REMARK    3  A    between atoms: C_8  and  N_9
REMARK    4  A    between atoms: C_10  and  C_12
REMARK    5  A    between atoms: N_19  and  C_20
REMARK    6  A    between atoms: C_20  and  C_21
REMARK                            x       y       z     vdW  Elec       q    Type
REMARK                         _______ _______ _______ _____ _____    ______ ____
ROOT
ATOM      1  C   UNL     1       8.304   8.939  18.388  0.00  0.00    +0.000 A 
ATOM      2  C   UNL     1       7.326   8.867  17.392  0.00  0.00    +0.000 A 
ATOM      3  N   UNL     1       6.652   7.749  17.017  0.00  0.00    +0.000 NA
ATOM      4  C   UNL     1       7.033   6.652  17.701  0.00  0.00    +0.000 A 
ATOM      5  C   UNL     1       7.992   6.593  18.706  0.00  0.00    +0.000 A 
ATOM      6  C   UNL     1       8.043   5.231  19.064  0.00  0.00    +0.000 A 
ATOM      7  N   UNL     1       7.209   4.471  18.352  0.00  0.00    +0.000 NA
ATOM      8  N   UNL     1       6.593   5.363  17.529  0.00  0.00    +0.000 N 
ATOM      9  C   UNL     1       8.655   7.774  19.075  0.00  0.00    +0.000 A 
ENDROOT
BRANCH   1  11
ATOM     10  N   UNL     1       8.685  11.262  17.721  0.00  0.00    +0.000 N 
ATOM     11  C   UNL     1       9.008  10.226  18.591  0.00  0.00    +0.000 C 
ATOM     12  O   UNL     1       9.821  10.267  19.508  0.00  0.00    +0.000 OA
ATOM     13  H   UNL     1       8.114  11.046  16.915  0.00  0.00    +0.000 HD
BRANCH  10  17
ATOM     14  C   UNL     1      10.245  15.207  18.009  0.00  0.00    +0.000 A 
ATOM     15  C   UNL     1       8.947  14.927  18.421  0.00  0.00    +0.000 A 
ATOM     16  C   UNL     1       8.418  13.640  18.317  0.00  0.00    +0.000 A 
ATOM     17  C   UNL     1       9.170  12.592  17.797  0.00  0.00    +0.000 A 
ATOM     18  C   UNL     1      10.457  12.878  17.321  0.00  0.00    +0.000 A 
ATOM     19  C   UNL     1      10.989  14.179  17.418  0.00  0.00    +0.000 A 
BRANCH  14  23
ATOM     20  C   UNL     1      11.924  18.369  19.197  0.00  0.00    +0.000 C 
ATOM     21  C   UNL     1      11.473  16.939  19.304  0.00  0.00    +0.000 C 
ATOM     22  O   UNL     1      11.700  16.298  20.323  0.00  0.00    +0.000 OA
ATOM     23  N   UNL     1      10.826  16.485  18.160  0.00  0.00    +0.000 N 
ATOM     24  H   UNL     1      10.878  17.066  17.333  0.00  0.00    +0.000 HD
ENDBRANCH  14  23
ENDBRANCH  10  17
ENDBRANCH   1  11
BRANCH   8  25
ATOM     25  C   UNL     1       5.686   4.889  16.496  0.00  0.00    +0.000 C 
BRANCH  25  26
ATOM     26  C   UNL     1       4.293   4.663  17.026  0.00  0.00    +0.000 A 
ATOM     27  C   UNL     1       3.544   5.734  17.535  0.00  0.00    +0.000 A 
ATOM     28  C   UNL     1       2.261   5.521  18.043  0.00  0.00    +0.000 A 
ATOM     29  C   UNL     1       1.716   4.238  18.052  0.00  0.00    +0.000 A 
ATOM     30  C   UNL     1       2.450   3.166  17.547  0.00  0.00    +0.000 A 
ATOM     31  C   UNL     1       3.732   3.377  17.038  0.00  0.00    +0.000 A 
ENDBRANCH  25  26
ENDBRANCH   8  25
TORSDOF 5
ENDMDL
MODEL 7
REMARK VINA RESULT:      -8.1      2.434      4.225
REMARK  Name = 
REMARK  6 active torsions:
REMARK  status: ('A' for Active; 'I' for Inactive)
REMARK    1  A    between atoms: C_1  and  C_2
REMARK    2  A    between atoms: N_4  and  C_5
REMARK    3  A    between atoms: C_8  and  N_9
REMARK    4  A    between atoms: C_10  and  C_12
REMARK    5  A    between atoms: N_19  and  C_20
REMARK    6  A    between atoms: C_20  and  C_21
REMARK                            x       y       z     vdW  Elec       q    Type
REMARK                         _______ _______ _______ _____ _____    ______ ____
ROOT
ATOM      1  C   UNL     1       2.510   8.249  18.346  0.00  0.00    +0.000 A 
ATOM      2  C   UNL     1       2.357   7.330  19.388  0.00  0.00    +0.000 A 
ATOM      3  N   UNL     1       3.050   6.170  19.534  0.00  0.00    +0.000 NA
ATOM      4  C   UNL     1       3.927   5.953  18.535  0.00  0.00    +0.000 A 
ATOM      5  C   UNL     1       4.167   6.784  17.446  0.00  0.00    +0.000 A 
ATOM      6  C   UNL     1       5.131   6.096  16.684  0.00  0.00    +0.000 A 
ATOM      7  N   UNL     1       5.478   4.922  17.215  0.00  0.00    +0.000 NA
ATOM      8  N   UNL     1       4.736   4.858  18.353  0.00  0.00    +0.000 N 
ATOM      9  C   UNL     1       3.440   7.981  17.339  0.00  0.00    +0.000 A 
ENDROOT
BRANCH   1  11
ATOM     10  N   UNL     1       0.490   9.379  19.141  0.00  0.00    +0.000 N 
ATOM     11  C   UNL     1       1.593   9.412  18.294  0.00  0.00    +0.000 C 
ATOM     12  O   UNL     1       1.884  10.303  17.504  0.00  0.00    +0.000 OA
ATOM     13  H   UNL     1       0.288   8.515  19.625  0.00  0.00    +0.000 HD
BRANCH  10  17
ATOM     14  C   UNL     1      -2.367  12.462  19.778  0.00  0.00    +0.000 A 
ATOM     15  C   UNL     1      -2.420  11.675  18.634  0.00  0.00    +0.000 A 
ATOM     16  C   UNL     1      -1.478  10.670  18.406  0.00  0.00    +0.000 A 
ATOM     17  C   UNL     1      -0.455  10.422  19.314  0.00  0.00    +0.000 A 
ATOM     18  C   UNL     1      -0.358  11.252  20.438  0.00  0.00    +0.000 A 
ATOM     19  C   UNL     1      -1.302  12.272  20.666  0.00  0.00    +0.000 A 
BRANCH  14  23
ATOM     20  C   UNL     1      -5.341  14.462  20.957  0.00  0.00    +0.000 C 
ATOM     21  C   UNL     1      -4.435  13.263  20.905  0.00  0.00    +0.000 C 
ATOM     22  O   UNL     1      -4.692  12.269  21.573  0.00  0.00    +0.000 OA
ATOM     23  N   UNL     1      -3.342  13.443  20.064  0.00  0.00    +0.000 N 
ATOM     24  H   UNL     1      -3.163  14.380  19.726  0.00  0.00    +0.000 HD
ENDBRANCH  14  23
ENDBRANCH  10  17
ENDBRANCH   1  11
BRANCH   8  25
ATOM     25  C   UNL     1       4.744   3.646  19.157  0.00  0.00    +0.000 C 
BRANCH  25  26
ATOM     26  C   UNL     1       3.350   3.133  19.418  0.00  0.00    +0.000 A 
ATOM     27  C   UNL     1       2.517   2.764  18.353  0.00  0.00    +0.000 A 
ATOM     28  C   UNL     1       1.220   2.306  18.594  0.00  0.00    +0.000 A 
ATOM     29  C   UNL     1       0.743   2.215  19.901  0.00  0.00    +0.000 A 
ATOM     30  C   UNL     1       1.562   2.577  20.968  0.00  0.00    +0.000 A 
ATOM     31  C   UNL     1       2.859   3.034  20.729  0.00  0.00    +0.000 A 
ENDBRANCH  25  26
ENDBRANCH   8  25
TORSDOF 5
ENDMDL
MODEL 8
REMARK VINA RESULT:      -8.1      2.796      3.612
REMARK  Name = 
REMARK  6 active torsions:
REMARK  status: ('A' for Active; 'I' for Inactive)
REMARK    1  A    between atoms: C_1  and  C_2
REMARK    2  A    between atoms: N_4  and  C_5
REMARK    3  A    between atoms: C_8  and  N_9
REMARK    4  A    between atoms: C_10  and  C_12
REMARK    5  A    between atoms: N_19  and  C_20
REMARK    6  A    between atoms: C_20  and  C_21
REMARK                            x       y       z     vdW  Elec       q    Type
REMARK                         _______ _______ _______ _____ _____    ______ ____
ROOT
ATOM      1  C   UNL     1       1.567   7.592  20.457  0.00  0.00    +0.000 A 
ATOM      2  C   UNL     1       2.323   7.878  19.317  0.00  0.00    +0.000 A 
ATOM      3  N   UNL     1       2.996   6.973  18.560  0.00  0.00    +0.000 NA
ATOM      4  C   UNL     1       2.890   5.715  19.028  0.00  0.00    +0.000 A 
ATOM      5  C   UNL     1       2.176   5.304  20.148  0.00  0.00    +0.000 A 
ATOM      6  C   UNL     1       2.413   3.917  20.228  0.00  0.00    +0.000 A 
ATOM      7  N   UNL     1       3.218   3.467  19.263  0.00  0.00    +0.000 NA
ATOM      8  N   UNL     1       3.491   4.583  18.533  0.00  0.00    +0.000 N 
ATOM      9  C   UNL     1       1.481   6.268  20.895  0.00  0.00    +0.000 A 
ENDROOT
BRANCH   1  11
ATOM     10  N   UNL     1       0.043   9.503  20.557  0.00  0.00    +0.000 N 
ATOM     11  C   UNL     1       0.985   8.722  21.217  0.00  0.00    +0.000 C 
ATOM     12  O   UNL     1       1.389   8.874  22.365  0.00  0.00    +0.000 OA
ATOM     13  H   UNL     1      -0.082   9.361  19.564  0.00  0.00    +0.000 HD
BRANCH  10  17
ATOM     14  C   UNL     1      -2.258  12.612  22.324  0.00  0.00    +0.000 A 
ATOM     15  C   UNL     1      -1.980  12.624  20.963  0.00  0.00    +0.000 A 
ATOM     16  C   UNL     1      -1.212  11.618  20.373  0.00  0.00    +0.000 A 
ATOM     17  C   UNL     1      -0.699  10.569  21.128  0.00  0.00    +0.000 A 
ATOM     18  C   UNL     1      -0.921  10.583  22.511  0.00  0.00    +0.000 A 
ATOM     19  C   UNL     1      -1.689  11.602  23.108  0.00  0.00    +0.000 A 
BRANCH  14  23
ATOM     20  C   UNL     1      -5.068  14.661  23.785  0.00  0.00    +0.000 C 
ATOM     21  C   UNL     1      -4.439  13.430  23.194  0.00  0.00    +0.000 C 
ATOM     22  O   UNL     1      -5.116  12.426  23.003  0.00  0.00    +0.000 OA
ATOM     23  N   UNL     1      -3.082  13.583  22.935  0.00  0.00    +0.000 N 
ATOM     24  H   UNL     1      -2.623  14.400  23.317  0.00  0.00    +0.000 HD
ENDBRANCH  14  23
ENDBRANCH  10  17
ENDBRANCH   1  11
BRANCH   8  25
ATOM     25  C   UNL     1       4.455   4.520  17.447  0.00  0.00    +0.000 C 
BRANCH  25  26
ATOM     26  C   UNL     1       5.691   5.332  17.742  0.00  0.00    +0.000 A 
ATOM     27  C   UNL     1       6.482   5.040  18.862  0.00  0.00    +0.000 A 
ATOM     28  C   UNL     1       7.616   5.804  19.145  0.00  0.00    +0.000 A 
ATOM     29  C   UNL     1       7.969   6.867  18.315  0.00  0.00    +0.000 A 
ATOM     30  C   UNL     1       7.192   7.165  17.198  0.00  0.00    +0.000 A 
ATOM     31  C   UNL     1       6.058   6.403  16.912  0.00  0.00    +0.000 A 
ENDBRANCH  25  26
ENDBRANCH   8  25
TORSDOF 5
ENDMDL
MODEL 9
REMARK VINA RESULT:      -8.0      3.105      4.049
REMARK  Name = 
REMARK  6 active torsions:
REMARK  status: ('A' for Active; 'I' for Inactive)
REMARK    1  A    between atoms: C_1  and  C_2
REMARK    2  A    between atoms: N_4  and  C_5
REMARK    3  A    between atoms: C_8  and  N_9
REMARK    4  A    between atoms: C_10  and  C_12
REMARK    5  A    between atoms: N_19  and  C_20
REMARK    6  A    between atoms: C_20  and  C_21
REMARK                            x       y       z     vdW  Elec       q    Type
REMARK                         _______ _______ _______ _____ _____    ______ ____
ROOT
ATOM      1  C   UNL     1       1.396   8.149  20.717  0.00  0.00    +0.000 A 
ATOM      2  C   UNL     1       2.065   8.398  19.515  0.00  0.00    +0.000 A 
ATOM      3  N   UNL     1       2.647   7.463  18.719  0.00  0.00    +0.000 NA
ATOM      4  C   UNL     1       2.543   6.214  19.213  0.00  0.00    +0.000 A 
ATOM      5  C   UNL     1       1.911   5.839  20.394  0.00  0.00    +0.000 A 
ATOM      6  C   UNL     1       2.113   4.447  20.475  0.00  0.00    +0.000 A 
ATOM      7  N   UNL     1       2.823   3.961  19.453  0.00  0.00    +0.000 NA
ATOM      8  N   UNL     1       3.067   5.059  18.687  0.00  0.00    +0.000 N 
ATOM      9  C   UNL     1       1.308   6.833  21.181  0.00  0.00    +0.000 A 
ENDROOT
BRANCH   1  11
ATOM     10  N   UNL     1      -0.088  10.081  20.931  0.00  0.00    +0.000 N 
ATOM     11  C   UNL     1       0.913   9.305  21.506  0.00  0.00    +0.000 C 
ATOM     12  O   UNL     1       1.441   9.482  22.598  0.00  0.00    +0.000 OA
ATOM     13  H   UNL     1      -0.322   9.915  19.962  0.00  0.00    +0.000 HD
BRANCH  10  17
ATOM     14  C   UNL     1      -1.972  13.417  22.776  0.00  0.00    +0.000 A 
ATOM     15  C   UNL     1      -2.014  12.162  23.372  0.00  0.00    +0.000 A 
ATOM     16  C   UNL     1      -1.413  11.056  22.768  0.00  0.00    +0.000 A 
ATOM     17  C   UNL     1      -0.752  11.170  21.550  0.00  0.00    +0.000 A 
ATOM     18  C   UNL     1      -0.760  12.418  20.912  0.00  0.00    +0.000 A 
ATOM     19  C   UNL     1      -1.373  13.533  21.516  0.00  0.00    +0.000 A 
BRANCH  14  23
ATOM     20  C   UNL     1      -2.787  16.391  24.949  0.00  0.00    +0.000 C 
ATOM     21  C   UNL     1      -1.938  15.253  24.453  0.00  0.00    +0.000 C 
ATOM     22  O   UNL     1      -0.852  15.026  24.971  0.00  0.00    +0.000 OA
ATOM     23  N   UNL     1      -2.518  14.564  23.394  0.00  0.00    +0.000 N 
ATOM     24  H   UNL     1      -3.328  14.981  22.953  0.00  0.00    +0.000 HD
ENDBRANCH  14  23
ENDBRANCH  10  17
ENDBRANCH   1  11
BRANCH   8  25
ATOM     25  C   UNL     1       3.937   4.954  17.527  0.00  0.00    +0.000 C 
BRANCH  25  26
ATOM     26  C   UNL     1       5.284   5.585  17.772  0.00  0.00    +0.000 A 
ATOM     27  C   UNL     1       5.728   6.647  16.971  0.00  0.00    +0.000 A 
ATOM     28  C   UNL     1       6.983   7.219  17.187  0.00  0.00    +0.000 A 
ATOM     29  C   UNL     1       7.808   6.735  18.201  0.00  0.00    +0.000 A 
ATOM     30  C   UNL     1       7.376   5.682  19.005  0.00  0.00    +0.000 A 
ATOM     31  C   UNL     1       6.122   5.109  18.792  0.00  0.00    +0.000 A 
ENDBRANCH  25  26
ENDBRANCH   8  25
TORSDOF 5
ENDMDL
