MODEL 1
REMARK VINA RESULT:      -9.7      0.000      0.000
REMARK  Name = 
REMARK  3 active torsions:
REMARK  status: ('A' for Active; 'I' for Inactive)
REMARK    1  A    between atoms: C_2  and  C_4
REMARK    2  A    between atoms: C_8  and  C_9
REMARK    3  A    between atoms: C_11  and  C_12
REMARK                            x       y       z     vdW  Elec       q    Type
REMARK                         _______ _______ _______ _____ _____    ______ ____
ROOT
ATOM      1  C   UNL     1       6.111   5.063  15.880  0.00  0.00    +0.000 A 
ATOM      2  N   UNL     1       4.998   5.686  16.222  0.00  0.00    +0.000 NA
ATOM      3  C   UNL     1       4.898   5.785  17.604  0.00  0.00    +0.000 A 
ATOM      4  C   UNL     1       6.005   5.314  18.288  0.00  0.00    +0.000 A 
ATOM      5  S   UNL     1       7.156   4.681  17.196  0.00  0.00    +0.000 S 
ENDROOT
BRANCH   3   6
ATOM      6  C   UNL     1       3.757   6.413  18.271  0.00  0.00    +0.000 A 
ATOM      7  C   UNL     1       3.201   7.598  17.761  0.00  0.00    +0.000 A 
ATOM      8  C   UNL     1       2.201   8.288  18.474  0.00  0.00    +0.000 A 
ATOM      9  C   UNL     1       1.791   7.796  19.722  0.00  0.00    +0.000 A 
ATOM     10  C   UNL     1       2.254   6.574  20.188  0.00  0.00    +0.000 A 
ATOM     11  C   UNL     1       3.223   5.892  19.458  0.00  0.00    +0.000 A 
ATOM     12  F   UNL     1       3.661   4.727  19.960  0.00  0.00    +0.000 F 
ATOM     13  N   UNL     1       1.031   8.603  20.581  0.00  0.00    +0.000 N 
ATOM     14  C   UNL     1       0.801   9.922  20.275  0.00  0.00    +0.000 C 
ATOM     15  O   UNL     1       0.738  10.796  21.133  0.00  0.00    +0.000 OA
ATOM     16  C   UNL     1       0.530  10.152  18.814  0.00  0.00    +0.000 C 
ATOM     17  C   UNL     1       1.637   9.582  17.943  0.00  0.00    +0.000 C 
ATOM     18  H   UNL     1       0.977   8.358  21.562  0.00  0.00    +0.000 HD
ENDBRANCH   3   6
BRANCH   1  23
ATOM     19  C   UNL     1       6.197   3.497  12.405  0.00  0.00    +0.000 A 
ATOM     20  C   UNL     1       7.245   4.217  11.823  0.00  0.00    +0.000 A 
ATOM     21  C   UNL     1       7.933   5.173  12.571  0.00  0.00    +0.000 A 
ATOM     22  C   UNL     1       7.564   5.427  13.895  0.00  0.00    +0.000 A 
ATOM     23  C   UNL     1       6.504   4.733  14.498  0.00  0.00    +0.000 A 
ATOM     24  C   UNL     1       5.827   3.765  13.736  0.00  0.00    +0.000 A 
BRANCH  19  26
ATOM     25  N   UNL     1       5.948   1.267  11.448  0.00  0.00    +0.000 N 
ATOM     26  C   UNL     1       5.397   2.509  11.648  0.00  0.00    +0.000 C 
ATOM     27  O   UNL     1       4.272   2.764  11.235  0.00  0.00    +0.000 OA
ATOM     28  H   UNL     1       5.350   0.581  11.012  0.00  0.00    +0.000 HD
ATOM     29  H   UNL     1       6.736   0.934  11.981  0.00  0.00    +0.000 HD
ENDBRANCH  19  26
ENDBRANCH   1  23
TORSDOF 3
ENDMDL
MODEL 2
REMARK VINA RESULT:      -8.9      2.971      8.819
REMARK  Name = 
REMARK  3 active torsions:
REMARK  status: ('A' for Active; 'I' for Inactive)
REMARK    1  A    between atoms: C_2  and  C_4
REMARK    2  A    between atoms: C_8  and  C_9
REMARK    3  A    between atoms: C_11  and  C_12
REMARK                            x       y       z     vdW  Elec       q    Type
REMARK                         _______ _______ _______ _____ _____    ______ ____
ROOT
ATOM      1  C   UNL     1       1.189   9.099  19.167  0.00  0.00    +0.000 A 
ATOM      2  N   UNL     1       1.833   8.323  18.314  0.00  0.00    +0.000 NA
ATOM      3  C   UNL     1       2.430   7.258  18.978  0.00  0.00    +0.000 A 
ATOM      4  C   UNL     1       2.138   7.195  20.329  0.00  0.00    +0.000 A 
ATOM      5  S   UNL     1       1.160   8.518  20.789  0.00  0.00    +0.000 S 
ENDROOT
BRANCH   3   6
ATOM      6  C   UNL     1       3.228   6.244  18.287  0.00  0.00    +0.000 A 
ATOM      7  C   UNL     1       4.521   6.549  17.830  0.00  0.00    +0.000 A 
ATOM      8  C   UNL     1       5.239   5.631  17.038  0.00  0.00    +0.000 A 
ATOM      9  C   UNL     1       4.631   4.419  16.679  0.00  0.00    +0.000 A 
ATOM     10  C   UNL     1       3.399   4.061  17.209  0.00  0.00    +0.000 A 
ATOM     11  C   UNL     1       2.715   4.969  18.011  0.00  0.00    +0.000 A 
ATOM     12  F   UNL     1       1.515   4.590  18.479  0.00  0.00    +0.000 F 
ATOM     13  N   UNL     1       5.185   3.628  15.663  0.00  0.00    +0.000 N 
ATOM     14  C   UNL     1       6.241   4.092  14.916  0.00  0.00    +0.000 C 
ATOM     15  O   UNL     1       6.371   3.829  13.726  0.00  0.00    +0.000 OA
ATOM     16  C   UNL     1       7.254   4.848  15.730  0.00  0.00    +0.000 C 
ATOM     17  C   UNL     1       6.609   5.980  16.514  0.00  0.00    +0.000 C 
ATOM     18  H   UNL     1       4.610   2.918  15.227  0.00  0.00    +0.000 HD
ENDBRANCH   3   6
BRANCH   1  23
ATOM     19  C   UNL     1      -1.444  11.569  17.943  0.00  0.00    +0.000 A 
ATOM     20  C   UNL     1      -0.819  12.784  18.245  0.00  0.00    +0.000 A 
ATOM     21  C   UNL     1       0.458  12.789  18.806  0.00  0.00    +0.000 A 
ATOM     22  C   UNL     1       1.107  11.582  19.087  0.00  0.00    +0.000 A 
ATOM     23  C   UNL     1       0.495  10.349  18.812  0.00  0.00    +0.000 A 
ATOM     24  C   UNL     1      -0.787  10.359  18.236  0.00  0.00    +0.000 A 
BRANCH  19  26
ATOM     25  N   UNL     1      -2.953  11.449  16.030  0.00  0.00    +0.000 N 
ATOM     26  C   UNL     1      -2.817  11.498  17.396  0.00  0.00    +0.000 C 
ATOM     27  O   UNL     1      -3.804  11.454  18.122  0.00  0.00    +0.000 OA
ATOM     28  H   UNL     1      -3.890  11.307  15.683  0.00  0.00    +0.000 HD
ATOM     29  H   UNL     1      -2.185  11.222  15.419  0.00  0.00    +0.000 HD
ENDBRANCH  19  26
ENDBRANCH   1  23
TORSDOF 3
ENDMDL
MODEL 3
REMARK VINA RESULT:      -8.7      2.935      9.895
REMARK  Name = 
REMARK  3 active torsions:
REMARK  status: ('A' for Active; 'I' for Inactive)
REMARK    1  A    between atoms: C_2  and  C_4
REMARK    2  A    between atoms: C_8  and  C_9
REMARK    3  A    between atoms: C_11  and  C_12
REMARK                            x       y       z     vdW  Elec       q    Type
REMARK                         _______ _______ _______ _____ _____    ______ ____
ROOT
ATOM      1  C   UNL     1       1.040   9.276  19.787  0.00  0.00    +0.000 A 
ATOM      2  N   UNL     1       1.788   8.188  19.725  0.00  0.00    +0.000 NA
ATOM      3  C   UNL     1       2.241   7.982  18.428  0.00  0.00    +0.000 A 
ATOM      4  C   UNL     1       1.902   8.988  17.541  0.00  0.00    +0.000 A 
ATOM      5  S   UNL     1       0.951  10.174  18.320  0.00  0.00    +0.000 S 
ENDROOT
BRANCH   3   6
ATOM      6  C   UNL     1       3.078   6.840  18.056  0.00  0.00    +0.000 A 
ATOM      7  C   UNL     1       4.378   7.044  17.564  0.00  0.00    +0.000 A 
ATOM      8  C   UNL     1       5.136   5.966  17.067  0.00  0.00    +0.000 A 
ATOM      9  C   UNL     1       4.562   4.687  17.034  0.00  0.00    +0.000 A 
ATOM     10  C   UNL     1       3.322   4.452  17.612  0.00  0.00    +0.000 A 
ATOM     11  C   UNL     1       2.597   5.525  18.123  0.00  0.00    +0.000 A 
ATOM     12  F   UNL     1       1.392   5.255  18.648  0.00  0.00    +0.000 F 
ATOM     13  N   UNL     1       5.161   3.665  16.283  0.00  0.00    +0.000 N 
ATOM     14  C   UNL     1       6.229   3.938  15.463  0.00  0.00    +0.000 C 
ATOM     15  O   UNL     1       6.400   3.368  14.392  0.00  0.00    +0.000 OA
ATOM     16  C   UNL     1       7.203   4.913  16.066  0.00  0.00    +0.000 C 
ATOM     17  C   UNL     1       6.515   6.197  16.500  0.00  0.00    +0.000 C 
ATOM     18  H   UNL     1       4.613   2.850  16.042  0.00  0.00    +0.000 HD
ENDBRANCH   3   6
BRANCH   1  23
ATOM     19  C   UNL     1      -1.207  11.269  22.136  0.00  0.00    +0.000 A 
ATOM     20  C   UNL     1      -1.020  10.565  23.331  0.00  0.00    +0.000 A 
ATOM     21  C   UNL     1      -0.144   9.479  23.370  0.00  0.00    +0.000 A 
ATOM     22  C   UNL     1       0.532   9.080  22.213  0.00  0.00    +0.000 A 
ATOM     23  C   UNL     1       0.349   9.756  20.997  0.00  0.00    +0.000 A 
ATOM     24  C   UNL     1      -0.528  10.855  20.974  0.00  0.00    +0.000 A 
BRANCH  19  26
ATOM     25  N   UNL     1      -3.388  12.250  22.617  0.00  0.00    +0.000 N 
ATOM     26  C   UNL     1      -2.160  12.394  22.019  0.00  0.00    +0.000 C 
ATOM     27  O   UNL     1      -1.867  13.435  21.441  0.00  0.00    +0.000 OA
ATOM     28  H   UNL     1      -3.985  13.063  22.605  0.00  0.00    +0.000 HD
ATOM     29  H   UNL     1      -3.571  11.540  23.308  0.00  0.00    +0.000 HD
ENDBRANCH  19  26
ENDBRANCH   1  23
TORSDOF 3
ENDMDL
MODEL 4
REMARK VINA RESULT:      -8.6      4.316      8.755
REMARK  Name = 
REMARK  3 active torsions:
REMARK  status: ('A' for Active; 'I' for Inactive)
REMARK    1  A    between atoms: C_2  and  C_4
REMARK    2  A    between atoms: C_8  and  C_9
REMARK    3  A    between atoms: C_11  and  C_12
REMARK                            x       y       z     vdW  Elec       q    Type
REMARK                         _______ _______ _______ _____ _____    ______ ____
ROOT
ATOM      1  C   UNL     1      -0.750  10.248  18.244  0.00  0.00    +0.000 A 
ATOM      2  N   UNL     1       0.008   9.193  18.002  0.00  0.00    +0.000 NA
ATOM      3  C   UNL     1       1.122   9.191  18.831  0.00  0.00    +0.000 A 
ATOM      4  C   UNL     1       1.135  10.210  19.767  0.00  0.00    +0.000 A 
ATOM      5  S   UNL     1      -0.228  11.219  19.568  0.00  0.00    +0.000 S 
ENDROOT
BRANCH   3   6
ATOM      6  C   UNL     1       2.149   8.150  18.772  0.00  0.00    +0.000 A 
ATOM      7  C   UNL     1       3.035   8.088  17.684  0.00  0.00    +0.000 A 
ATOM      8  C   UNL     1       3.928   7.007  17.544  0.00  0.00    +0.000 A 
ATOM      9  C   UNL     1       3.898   5.971  18.488  0.00  0.00    +0.000 A 
ATOM     10  C   UNL     1       3.104   6.070  19.623  0.00  0.00    +0.000 A 
ATOM     11  C   UNL     1       2.246   7.158  19.758  0.00  0.00    +0.000 A 
ATOM     12  F   UNL     1       1.477   7.199  20.857  0.00  0.00    +0.000 F 
ATOM     13  N   UNL     1       4.548   4.757  18.223  0.00  0.00    +0.000 N 
ATOM     14  C   UNL     1       5.098   4.517  16.987  0.00  0.00    +0.000 C 
ATOM     15  O   UNL     1       5.102   3.405  16.472  0.00  0.00    +0.000 OA
ATOM     16  C   UNL     1       5.779   5.722  16.399  0.00  0.00    +0.000 C 
ATOM     17  C   UNL     1       4.848   6.924  16.351  0.00  0.00    +0.000 C 
ATOM     18  H   UNL     1       4.297   3.939  18.764  0.00  0.00    +0.000 HD
ENDBRANCH   3   6
BRANCH   1  23
ATOM     19  C   UNL     1      -3.373  10.531  15.493  0.00  0.00    +0.000 A 
ATOM     20  C   UNL     1      -4.392  11.204  16.176  0.00  0.00    +0.000 A 
ATOM     21  C   UNL     1      -4.204  11.588  17.504  0.00  0.00    +0.000 A 
ATOM     22  C   UNL     1      -3.008  11.284  18.161  0.00  0.00    +0.000 A 
ATOM     23  C   UNL     1      -1.977  10.593  17.506  0.00  0.00    +0.000 A 
ATOM     24  C   UNL     1      -2.175  10.222  16.164  0.00  0.00    +0.000 A 
BRANCH  19  26
ATOM     25  N   UNL     1      -4.813   9.899  13.628  0.00  0.00    +0.000 N 
ATOM     26  C   UNL     1      -3.533  10.052  14.102  0.00  0.00    +0.000 C 
ATOM     27  O   UNL     1      -2.570   9.827  13.379  0.00  0.00    +0.000 OA
ATOM     28  H   UNL     1      -4.898   9.663  12.650  0.00  0.00    +0.000 HD
ATOM     29  H   UNL     1      -5.610  10.313  14.084  0.00  0.00    +0.000 HD
ENDBRANCH  19  26
ENDBRANCH   1  23
TORSDOF 3
ENDMDL
MODEL 5
REMARK VINA RESULT:      -8.5      2.958      8.973
REMARK  Name = 
REMARK  3 active torsions:
REMARK  status: ('A' for Active; 'I' for Inactive)
REMARK    1  A    between atoms: C_2  and  C_4
REMARK    2  A    between atoms: C_8  and  C_9
REMARK    3  A    between atoms: C_11  and  C_12
REMARK                            x       y       z     vdW  Elec       q    Type
REMARK                         _______ _______ _______ _____ _____    ______ ____
ROOT
ATOM      1  C   UNL     1       1.277   9.278  19.284  0.00  0.00    +0.000 A 
ATOM      2  N   UNL     1       1.937   8.510  18.436  0.00  0.00    +0.000 NA
ATOM      3  C   UNL     1       2.384   7.357  19.068  0.00  0.00    +0.000 A 
ATOM      4  C   UNL     1       1.962   7.228  20.380  0.00  0.00    +0.000 A 
ATOM      5  S   UNL     1       1.050   8.594  20.849  0.00  0.00    +0.000 S 
ENDROOT
BRANCH   3   6
ATOM      6  C   UNL     1       3.163   6.329  18.377  0.00  0.00    +0.000 A 
ATOM      7  C   UNL     1       4.454   6.615  17.903  0.00  0.00    +0.000 A 
ATOM      8  C   UNL     1       5.153   5.682  17.111  0.00  0.00    +0.000 A 
ATOM      9  C   UNL     1       4.528   4.474  16.769  0.00  0.00    +0.000 A 
ATOM     10  C   UNL     1       3.298   4.134  17.316  0.00  0.00    +0.000 A 
ATOM     11  C   UNL     1       2.633   5.057  18.118  0.00  0.00    +0.000 A 
ATOM     12  F   UNL     1       1.435   4.695  18.603  0.00  0.00    +0.000 F 
ATOM     13  N   UNL     1       5.062   3.668  15.754  0.00  0.00    +0.000 N 
ATOM     14  C   UNL     1       6.113   4.115  14.991  0.00  0.00    +0.000 C 
ATOM     15  O   UNL     1       6.228   3.840  13.802  0.00  0.00    +0.000 OA
ATOM     16  C   UNL     1       7.144   4.867  15.787  0.00  0.00    +0.000 C 
ATOM     17  C   UNL     1       6.521   6.012  16.569  0.00  0.00    +0.000 C 
ATOM     18  H   UNL     1       4.474   2.961  15.330  0.00  0.00    +0.000 HD
ENDBRANCH   3   6
BRANCH   1  23
ATOM     19  C   UNL     1       0.963  13.007  18.556  0.00  0.00    +0.000 A 
ATOM     20  C   UNL     1      -0.398  13.097  18.247  0.00  0.00    +0.000 A 
ATOM     21  C   UNL     1      -1.203  11.959  18.312  0.00  0.00    +0.000 A 
ATOM     22  C   UNL     1      -0.648  10.725  18.666  0.00  0.00    +0.000 A 
ATOM     23  C   UNL     1       0.718  10.603  18.963  0.00  0.00    +0.000 A 
ATOM     24  C   UNL     1       1.515  11.760  18.904  0.00  0.00    +0.000 A 
BRANCH  19  26
ATOM     25  N   UNL     1       3.055  13.988  17.773  0.00  0.00    +0.000 N 
ATOM     26  C   UNL     1       1.877  14.167  18.455  0.00  0.00    +0.000 C 
ATOM     27  O   UNL     1       1.592  15.260  18.930  0.00  0.00    +0.000 OA
ATOM     28  H   UNL     1       3.618  14.814  17.636  0.00  0.00    +0.000 HD
ATOM     29  H   UNL     1       3.208  13.206  17.156  0.00  0.00    +0.000 HD
ENDBRANCH  19  26
ENDBRANCH   1  23
TORSDOF 3
ENDMDL
MODEL 6
REMARK VINA RESULT:      -8.5      3.805      5.791
REMARK  Name = 
REMARK  3 active torsions:
REMARK  status: ('A' for Active; 'I' for Inactive)
REMARK    1  A    between atoms: C_2  and  C_4
REMARK    2  A    between atoms: C_8  and  C_9
REMARK    3  A    between atoms: C_11  and  C_12
REMARK                            x       y       z     vdW  Elec       q    Type
REMARK                         _______ _______ _______ _____ _____    ______ ____
ROOT
ATOM      1  C   UNL     1       2.495   7.327  18.683  0.00  0.00    +0.000 A 
ATOM      2  N   UNL     1       2.184   8.507  18.175  0.00  0.00    +0.000 NA
ATOM      3  C   UNL     1       1.398   9.229  19.064  0.00  0.00    +0.000 A 
ATOM      4  C   UNL     1       1.208   8.609  20.287  0.00  0.00    +0.000 A 
ATOM      5  S   UNL     1       1.967   7.079  20.304  0.00  0.00    +0.000 S 
ENDROOT
BRANCH   3   6
ATOM      6  C   UNL     1       0.887  10.566  18.762  0.00  0.00    +0.000 A 
ATOM      7  C   UNL     1       1.733  11.684  18.847  0.00  0.00    +0.000 A 
ATOM      8  C   UNL     1       1.218  12.988  18.701  0.00  0.00    +0.000 A 
ATOM      9  C   UNL     1      -0.159  13.160  18.506  0.00  0.00    +0.000 A 
ATOM     10  C   UNL     1      -0.989  12.063  18.316  0.00  0.00    +0.000 A 
ATOM     11  C   UNL     1      -0.460  10.782  18.437  0.00  0.00    +0.000 A 
ATOM     12  F   UNL     1      -1.304   9.752  18.271  0.00  0.00    +0.000 F 
ATOM     13  N   UNL     1      -0.739  14.427  18.656  0.00  0.00    +0.000 N 
ATOM     14  C   UNL     1       0.004  15.481  19.130  0.00  0.00    +0.000 C 
ATOM     15  O   UNL     1      -0.473  16.353  19.848  0.00  0.00    +0.000 OA
ATOM     16  C   UNL     1       1.407  15.505  18.591  0.00  0.00    +0.000 C 
ATOM     17  C   UNL     1       2.124  14.187  18.836  0.00  0.00    +0.000 C 
ATOM     18  H   UNL     1      -1.741  14.495  18.787  0.00  0.00    +0.000 HD
ENDBRANCH   3   6
BRANCH   1  23
ATOM     19  C   UNL     1       5.310   5.473  16.903  0.00  0.00    +0.000 A 
ATOM     20  C   UNL     1       4.724   4.213  16.735  0.00  0.00    +0.000 A 
ATOM     21  C   UNL     1       3.416   3.991  17.167  0.00  0.00    +0.000 A 
ATOM     22  C   UNL     1       2.697   5.018  17.786  0.00  0.00    +0.000 A 
ATOM     23  C   UNL     1       3.266   6.285  17.983  0.00  0.00    +0.000 A 
ATOM     24  C   UNL     1       4.581   6.498  17.533  0.00  0.00    +0.000 A 
BRANCH  19  26
ATOM     25  N   UNL     1       7.181   7.027  16.719  0.00  0.00    +0.000 N 
ATOM     26  C   UNL     1       6.709   5.754  16.512  0.00  0.00    +0.000 C 
ATOM     27  O   UNL     1       7.441   4.886  16.050  0.00  0.00    +0.000 OA
ATOM     28  H   UNL     1       8.163   7.172  16.534  0.00  0.00    +0.000 HD
ATOM     29  H   UNL     1       6.714   7.684  17.324  0.00  0.00    +0.000 HD
ENDBRANCH  19  26
ENDBRANCH   1  23
TORSDOF 3
ENDMDL
MODEL 7
REMARK VINA RESULT:      -8.5      3.997      5.859
REMARK  Name = 
REMARK  3 active torsions:
REMARK  status: ('A' for Active; 'I' for Inactive)
REMARK    1  A    between atoms: C_2  and  C_4
REMARK    2  A    between atoms: C_8  and  C_9
REMARK    3  A    between atoms: C_11  and  C_12
REMARK                            x       y       z     vdW  Elec       q    Type
REMARK                         _______ _______ _______ _____ _____    ______ ____
ROOT
ATOM      1  C   UNL     1       2.385   7.499  18.771  0.00  0.00    +0.000 A 
ATOM      2  N   UNL     1       2.080   8.675  18.254  0.00  0.00    +0.000 NA
ATOM      3  C   UNL     1       1.296   9.408  19.135  0.00  0.00    +0.000 A 
ATOM      4  C   UNL     1       1.101   8.799  20.363  0.00  0.00    +0.000 A 
ATOM      5  S   UNL     1       1.853   7.266  20.394  0.00  0.00    +0.000 S 
ENDROOT
BRANCH   3   6
ATOM      6  C   UNL     1       0.792  10.745  18.821  0.00  0.00    +0.000 A 
ATOM      7  C   UNL     1       1.647  11.859  18.885  0.00  0.00    +0.000 A 
ATOM      8  C   UNL     1       1.140  13.164  18.728  0.00  0.00    +0.000 A 
ATOM      9  C   UNL     1      -0.238  13.343  18.543  0.00  0.00    +0.000 A 
ATOM     10  C   UNL     1      -1.077  12.250  18.372  0.00  0.00    +0.000 A 
ATOM     11  C   UNL     1      -0.556  10.967  18.505  0.00  0.00    +0.000 A 
ATOM     12  F   UNL     1      -1.409   9.941  18.358  0.00  0.00    +0.000 F 
ATOM     13  N   UNL     1      -0.807  14.617  18.682  0.00  0.00    +0.000 N 
ATOM     14  C   UNL     1      -0.053  15.671  19.137  0.00  0.00    +0.000 C 
ATOM     15  O   UNL     1      -0.517  16.555  19.848  0.00  0.00    +0.000 OA
ATOM     16  C   UNL     1       1.346  15.679  18.585  0.00  0.00    +0.000 C 
ATOM     17  C   UNL     1       2.055  14.358  18.840  0.00  0.00    +0.000 C 
ATOM     18  H   UNL     1      -1.807  14.693  18.821  0.00  0.00    +0.000 HD
ENDBRANCH   3   6
BRANCH   1  23
ATOM     19  C   UNL     1       3.576   4.099  17.525  0.00  0.00    +0.000 A 
ATOM     20  C   UNL     1       4.602   4.486  16.657  0.00  0.00    +0.000 A 
ATOM     21  C   UNL     1       4.919   5.838  16.513  0.00  0.00    +0.000 A 
ATOM     22  C   UNL     1       4.199   6.807  17.219  0.00  0.00    +0.000 A 
ATOM     23  C   UNL     1       3.153   6.447  18.082  0.00  0.00    +0.000 A 
ATOM     24  C   UNL     1       2.852   5.081  18.226  0.00  0.00    +0.000 A 
BRANCH  19  26
ATOM     25  N   UNL     1       4.051   1.826  18.274  0.00  0.00    +0.000 N 
ATOM     26  C   UNL     1       3.161   2.687  17.681  0.00  0.00    +0.000 C 
ATOM     27  O   UNL     1       2.056   2.293  17.326  0.00  0.00    +0.000 OA
ATOM     28  H   UNL     1       3.712   0.893  18.455  0.00  0.00    +0.000 HD
ATOM     29  H   UNL     1       4.843   2.151  18.807  0.00  0.00    +0.000 HD
ENDBRANCH  19  26
ENDBRANCH   1  23
TORSDOF 3
ENDMDL
MODEL 8
REMARK VINA RESULT:      -8.5      1.158      1.320
REMARK  Name = 
REMARK  3 active torsions:
REMARK  status: ('A' for Active; 'I' for Inactive)
REMARK    1  A    between atoms: C_2  and  C_4
REMARK    2  A    between atoms: C_8  and  C_9
REMARK    3  A    between atoms: C_11  and  C_12
REMARK                            x       y       z     vdW  Elec       q    Type
REMARK                         _______ _______ _______ _____ _____    ______ ____
ROOT
ATOM      1  C   UNL     1       4.866   4.773  16.605  0.00  0.00    +0.000 A 
ATOM      2  N   UNL     1       4.182   5.848  16.957  0.00  0.00    +0.000 NA
ATOM      3  C   UNL     1       3.527   5.637  18.163  0.00  0.00    +0.000 A 
ATOM      4  C   UNL     1       3.812   4.421  18.759  0.00  0.00    +0.000 A 
ATOM      5  S   UNL     1       4.860   3.503  17.770  0.00  0.00    +0.000 S 
ENDROOT
BRANCH   3   6
ATOM      6  C   UNL     1       2.677   6.650  18.789  0.00  0.00    +0.000 A 
ATOM      7  C   UNL     1       2.417   7.864  18.130  0.00  0.00    +0.000 A 
ATOM      8  C   UNL     1       1.724   8.902  18.782  0.00  0.00    +0.000 A 
ATOM      9  C   UNL     1       1.327   8.725  20.115  0.00  0.00    +0.000 A 
ATOM     10  C   UNL     1       1.483   7.497  20.743  0.00  0.00    +0.000 A 
ATOM     11  C   UNL     1       2.147   6.472  20.075  0.00  0.00    +0.000 A 
ATOM     12  F   UNL     1       2.299   5.311  20.730  0.00  0.00    +0.000 F 
ATOM     13  N   UNL     1       0.911   9.826  20.878  0.00  0.00    +0.000 N 
ATOM     14  C   UNL     1       1.021  11.101  20.379  0.00  0.00    +0.000 C 
ATOM     15  O   UNL     1       1.289  12.064  21.087  0.00  0.00    +0.000 OA
ATOM     16  C   UNL     1       0.673  11.196  18.919  0.00  0.00    +0.000 C 
ATOM     17  C   UNL     1       1.485  10.218  18.085  0.00  0.00    +0.000 C 
ATOM     18  H   UNL     1       0.894   9.743  21.887  0.00  0.00    +0.000 HD
ENDBRANCH   3   6
BRANCH   1  23
ATOM     19  C   UNL     1       5.886   3.774  13.071  0.00  0.00    +0.000 A 
ATOM     20  C   UNL     1       7.089   4.475  12.941  0.00  0.00    +0.000 A 
ATOM     21  C   UNL     1       7.573   5.232  14.009  0.00  0.00    +0.000 A 
ATOM     22  C   UNL     1       6.846   5.308  15.201  0.00  0.00    +0.000 A 
ATOM     23  C   UNL     1       5.627   4.630  15.352  0.00  0.00    +0.000 A 
ATOM     24  C   UNL     1       5.157   3.862  14.272  0.00  0.00    +0.000 A 
BRANCH  19  26
ATOM     25  N   UNL     1       5.918   1.824  11.604  0.00  0.00    +0.000 N 
ATOM     26  C   UNL     1       5.297   2.997  11.957  0.00  0.00    +0.000 C 
ATOM     27  O   UNL     1       4.276   3.359  11.383  0.00  0.00    +0.000 OA
ATOM     28  H   UNL     1       5.449   1.266  10.908  0.00  0.00    +0.000 HD
ATOM     29  H   UNL     1       6.586   1.366  12.204  0.00  0.00    +0.000 HD
ENDBRANCH  19  26
ENDBRANCH   1  23
TORSDOF 3
ENDMDL
MODEL 9
REMARK VINA RESULT:      -8.4      4.543      9.931
REMARK  Name = 
REMARK  3 active torsions:
REMARK  status: ('A' for Active; 'I' for Inactive)
REMARK    1  A    between atoms: C_2  and  C_4
REMARK    2  A    between atoms: C_8  and  C_9
REMARK    3  A    between atoms: C_11  and  C_12
REMARK                            x       y       z     vdW  Elec       q    Type
REMARK                         _______ _______ _______ _____ _____    ______ ____
ROOT
ATOM      1  C   UNL     1       0.926   9.561  19.849  0.00  0.00    +0.000 A 
ATOM      2  N   UNL     1       1.461   8.363  20.008  0.00  0.00    +0.000 NA
ATOM      3  C   UNL     1       2.091   7.952  18.840  0.00  0.00    +0.000 A 
ATOM      4  C   UNL     1       2.105   8.904  17.836  0.00  0.00    +0.000 A 
ATOM      5  S   UNL     1       1.264  10.306  18.333  0.00  0.00    +0.000 S 
ENDROOT
BRANCH   3   6
ATOM      6  C   UNL     1       2.758   6.655  18.717  0.00  0.00    +0.000 A 
ATOM      7  C   UNL     1       2.154   5.495  19.231  0.00  0.00    +0.000 A 
ATOM      8  C   UNL     1       2.849   4.270  19.249  0.00  0.00    +0.000 A 
ATOM      9  C   UNL     1       4.169   4.228  18.780  0.00  0.00    +0.000 A 
ATOM     10  C   UNL     1       4.740   5.339  18.173  0.00  0.00    +0.000 A 
ATOM     11  C   UNL     1       4.030   6.535  18.141  0.00  0.00    +0.000 A 
ATOM     12  F   UNL     1       4.632   7.589  17.569  0.00  0.00    +0.000 F 
ATOM     13  N   UNL     1       4.980   3.118  19.055  0.00  0.00    +0.000 N 
ATOM     14  C   UNL     1       4.541   2.128  19.901  0.00  0.00    +0.000 C 
ATOM     15  O   UNL     1       5.295   1.524  20.655  0.00  0.00    +0.000 OA
ATOM     16  C   UNL     1       3.085   1.799  19.721  0.00  0.00    +0.000 C 
ATOM     17  C   UNL     1       2.212   3.038  19.841  0.00  0.00    +0.000 C 
ATOM     18  H   UNL     1       5.983   3.209  18.961  0.00  0.00    +0.000 HD
ENDBRANCH   3   6
BRANCH   1  23
ATOM     19  C   UNL     1      -1.317  12.118  21.570  0.00  0.00    +0.000 A 
ATOM     20  C   UNL     1      -1.457  11.532  22.833  0.00  0.00    +0.000 A 
ATOM     21  C   UNL     1      -0.796  10.337  23.122  0.00  0.00    +0.000 A 
ATOM     22  C   UNL     1      -0.011   9.715  22.147  0.00  0.00    +0.000 A 
ATOM     23  C   UNL     1       0.131  10.271  20.866  0.00  0.00    +0.000 A 
ATOM     24  C   UNL     1      -0.532  11.480  20.592  0.00  0.00    +0.000 A 
BRANCH  19  26
ATOM     25  N   UNL     1      -2.797  13.319  20.046  0.00  0.00    +0.000 N 
ATOM     26  C   UNL     1      -2.034  13.355  21.187  0.00  0.00    +0.000 C 
ATOM     27  O   UNL     1      -1.982  14.372  21.870  0.00  0.00    +0.000 OA
ATOM     28  H   UNL     1      -3.349  14.141  19.856  0.00  0.00    +0.000 HD
ATOM     29  H   UNL     1      -3.074  12.453  19.610  0.00  0.00    +0.000 HD
ENDBRANCH  19  26
ENDBRANCH   1  23
TORSDOF 3
ENDMDL
