MODEL 1
REMARK VINA RESULT:      -9.3      0.000      0.000
REMARK  Name = 
REMARK  7 active torsions:
REMARK  status: ('A' for Active; 'I' for Inactive)
REMARK    1  A    between atoms: C_1  and  N_2
REMARK    2  A    between atoms: C_6  and  C_7
REMARK    3  A    between atoms: C_7  and  C_8
REMARK    4  A    between atoms: C_8  and  C_9
REMARK    5  A    between atoms: C_13  and  N_14
REMARK    6  A    between atoms: N_14  and  C_15
REMARK    7  A    between atoms: C_22  and  C_23
REMARK                            x       y       z     vdW  Elec       q    Type
REMARK                         _______ _______ _______ _____ _____    ______ ____
ROOT
ATOM      1  C   UNL     1       4.731   4.873  17.562  0.00  0.00    +0.000 A 
ATOM      2  C   UNL     1       4.175   3.705  18.114  0.00  0.00    +0.000 A 
ATOM      3  C   UNL     1       2.878   3.681  18.643  0.00  0.00    +0.000 A 
ATOM      4  C   UNL     1       2.082   4.828  18.622  0.00  0.00    +0.000 A 
ATOM      5  C   UNL     1       2.570   6.004  18.056  0.00  0.00    +0.000 A 
ATOM      6  C   UNL     1       3.897   6.016  17.587  0.00  0.00    +0.000 A 
ENDROOT
BRANCH   1   7
ATOM      7  C   UNL     1       6.255   4.935  16.943  0.00  0.00    +0.000 C 
ATOM      8  C   UNL     1       6.867   6.370  16.765  0.00  0.00    +0.000 C 
ATOM      9  C   UNL     1       7.645   6.196  18.071  0.00  0.00    +0.000 C 
ATOM     10  C   UNL     1       7.404   4.683  17.996  0.00  0.00    +0.000 C 
BRANCH   7  11
ATOM     11  C   UNL     1       6.269   4.072  15.657  0.00  0.00    +0.000 C 
BRANCH  11  17
ATOM     12  C   UNL     1       5.733   3.345  12.601  0.00  0.00    +0.000 C 
ATOM     13  N   UNL     1       6.688   4.283  13.131  0.00  0.00    +0.000 N 
ATOM     14  C   UNL     1       7.569   4.995  12.372  0.00  0.00    +0.000 A 
ATOM     15  N   UNL     1       8.298   5.753  13.151  0.00  0.00    +0.000 NA
ATOM     16  N   UNL     1       7.892   5.531  14.443  0.00  0.00    +0.000 NA
ATOM     17  C   UNL     1       6.913   4.648  14.433  0.00  0.00    +0.000 A 
ENDBRANCH  11  17
ENDBRANCH   7  11
ENDBRANCH   1   7
BRANCH   5  18
ATOM     18  N   UNL     1       1.747   7.161  17.965  0.00  0.00    +0.000 N 
ATOM     19  H   UNL     1       1.466   7.333  17.002  0.00  0.00    +0.000 HD
BRANCH  18  20
ATOM     20  C   UNL     1       2.108   8.384  18.651  0.00  0.00    +0.000 C 
ATOM     21  C   UNL     1       1.309   9.606  18.060  0.00  0.00    +0.000 C 
ATOM     22  C   UNL     1       0.652   9.704  19.406  0.00  0.00    +0.000 A 
ATOM     23  C   UNL     1       1.377   8.664  19.938  0.00  0.00    +0.000 A 
ATOM     24  C   UNL     1       1.283   8.338  21.273  0.00  0.00    +0.000 A 
ATOM     25  C   UNL     1       0.411   9.097  22.063  0.00  0.00    +0.000 A 
ATOM     26  C   UNL     1      -0.372  10.122  21.494  0.00  0.00    +0.000 A 
ATOM     27  C   UNL     1      -0.276  10.426  20.127  0.00  0.00    +0.000 A 
BRANCH  27  28
ATOM     28  C   UNL     1      -1.135  11.471  19.478  0.00  0.00    +0.000 C 
ATOM     29  F   UNL     1      -1.784  12.276  20.366  0.00  0.00    +0.000 F 
ATOM     30  F   UNL     1      -0.414  12.311  18.683  0.00  0.00    +0.000 F 
ATOM     31  F   UNL     1      -2.102  10.940  18.680  0.00  0.00    +0.000 F 
ENDBRANCH  27  28
ENDBRANCH  18  20
ENDBRANCH   5  18
TORSDOF 6
ENDMDL
MODEL 2
REMARK VINA RESULT:      -9.3      2.461      4.400
REMARK  Name = 
REMARK  7 active torsions:
REMARK  status: ('A' for Active; 'I' for Inactive)
REMARK    1  A    between atoms: C_1  and  N_2
REMARK    2  A    between atoms: C_6  and  C_7
REMARK    3  A    between atoms: C_7  and  C_8
REMARK    4  A    between atoms: C_8  and  C_9
REMARK    5  A    between atoms: C_13  and  N_14
REMARK    6  A    between atoms: N_14  and  C_15
REMARK    7  A    between atoms: C_22  and  C_23
REMARK                            x       y       z     vdW  Elec       q    Type
REMARK                         _______ _______ _______ _____ _____    ______ ____
ROOT
ATOM      1  C   UNL     1       2.497   5.405  19.135  0.00  0.00    +0.000 A 
ATOM      2  C   UNL     1       2.779   6.060  17.923  0.00  0.00    +0.000 A 
ATOM      3  C   UNL     1       2.621   7.445  17.775  0.00  0.00    +0.000 A 
ATOM      4  C   UNL     1       2.188   8.227  18.848  0.00  0.00    +0.000 A 
ATOM      5  C   UNL     1       1.926   7.635  20.082  0.00  0.00    +0.000 A 
ATOM      6  C   UNL     1       2.036   6.235  20.184  0.00  0.00    +0.000 A 
ENDROOT
BRANCH   1   7
ATOM      7  C   UNL     1       2.663   3.780  19.336  0.00  0.00    +0.000 C 
ATOM      8  C   UNL     1       2.598   3.260  20.816  0.00  0.00    +0.000 C 
ATOM      9  C   UNL     1       1.136   2.858  20.606  0.00  0.00    +0.000 C 
ATOM     10  C   UNL     1       1.344   2.947  19.089  0.00  0.00    +0.000 C 
BRANCH   7  11
ATOM     11  C   UNL     1       3.933   3.344  18.562  0.00  0.00    +0.000 C 
BRANCH  11  17
ATOM     12  C   UNL     1       5.911   4.411  16.303  0.00  0.00    +0.000 C 
ATOM     13  N   UNL     1       6.022   4.584  17.728  0.00  0.00    +0.000 N 
ATOM     14  C   UNL     1       7.059   5.220  18.346  0.00  0.00    +0.000 A 
ATOM     15  N   UNL     1       6.864   5.207  19.641  0.00  0.00    +0.000 NA
ATOM     16  N   UNL     1       5.684   4.546  19.876  0.00  0.00    +0.000 NA
ATOM     17  C   UNL     1       5.169   4.176  18.720  0.00  0.00    +0.000 A 
ENDBRANCH  11  17
ENDBRANCH   7  11
ENDBRANCH   1   7
BRANCH   5  18
ATOM     18  N   UNL     1       1.551   8.427  21.201  0.00  0.00    +0.000 N 
ATOM     19  H   UNL     1       2.002   8.095  22.051  0.00  0.00    +0.000 HD
BRANCH  18  20
ATOM     20  C   UNL     1       0.165   8.782  21.428  0.00  0.00    +0.000 C 
ATOM     21  C   UNL     1       0.052   9.889  22.543  0.00  0.00    +0.000 C 
ATOM     22  C   UNL     1      -0.476  10.788  21.462  0.00  0.00    +0.000 A 
ATOM     23  C   UNL     1      -0.417   9.813  20.495  0.00  0.00    +0.000 A 
ATOM     24  C   UNL     1      -0.916  10.032  19.230  0.00  0.00    +0.000 A 
ATOM     25  C   UNL     1      -1.471  11.289  18.964  0.00  0.00    +0.000 A 
ATOM     26  C   UNL     1      -1.471  12.301  19.946  0.00  0.00    +0.000 A 
ATOM     27  C   UNL     1      -0.940  12.064  21.223  0.00  0.00    +0.000 A 
BRANCH  27  28
ATOM     28  C   UNL     1      -0.871  13.134  22.272  0.00  0.00    +0.000 C 
ATOM     29  F   UNL     1      -1.769  14.144  22.084  0.00  0.00    +0.000 F 
ATOM     30  F   UNL     1      -1.123  12.650  23.521  0.00  0.00    +0.000 F 
ATOM     31  F   UNL     1       0.351  13.730  22.342  0.00  0.00    +0.000 F 
ENDBRANCH  27  28
ENDBRANCH  18  20
ENDBRANCH   5  18
TORSDOF 6
ENDMDL
MODEL 3
REMARK VINA RESULT:      -9.3      0.847      1.100
REMARK  Name = 
REMARK  7 active torsions:
REMARK  status: ('A' for Active; 'I' for Inactive)
REMARK    1  A    between atoms: C_1  and  N_2
REMARK    2  A    between atoms: C_6  and  C_7
REMARK    3  A    between atoms: C_7  and  C_8
REMARK    4  A    between atoms: C_8  and  C_9
REMARK    5  A    between atoms: C_13  and  N_14
REMARK    6  A    between atoms: N_14  and  C_15
REMARK    7  A    between atoms: C_22  and  C_23
REMARK                            x       y       z     vdW  Elec       q    Type
REMARK                         _______ _______ _______ _____ _____    ______ ____
ROOT
ATOM      1  C   UNL     1       4.495   4.386  17.515  0.00  0.00    +0.000 A 
ATOM      2  C   UNL     1       3.925   3.105  17.401  0.00  0.00    +0.000 A 
ATOM      3  C   UNL     1       2.691   2.790  17.984  0.00  0.00    +0.000 A 
ATOM      4  C   UNL     1       1.973   3.756  18.690  0.00  0.00    +0.000 A 
ATOM      5  C   UNL     1       2.475   5.051  18.806  0.00  0.00    +0.000 A 
ATOM      6  C   UNL     1       3.744   5.323  18.262  0.00  0.00    +0.000 A 
ENDROOT
BRANCH   1   7
ATOM      7  C   UNL     1       5.948   4.783  16.849  0.00  0.00    +0.000 C 
ATOM      8  C   UNL     1       6.233   6.319  16.690  0.00  0.00    +0.000 C 
ATOM      9  C   UNL     1       7.078   6.290  17.966  0.00  0.00    +0.000 C 
ATOM     10  C   UNL     1       7.162   4.763  17.859  0.00  0.00    +0.000 C 
BRANCH   7  11
ATOM     11  C   UNL     1       6.098   3.967  15.542  0.00  0.00    +0.000 C 
BRANCH  11  17
ATOM     12  C   UNL     1       5.825   3.386  12.420  0.00  0.00    +0.000 C 
ATOM     13  N   UNL     1       6.733   4.293  13.074  0.00  0.00    +0.000 N 
ATOM     14  C   UNL     1       7.676   5.034  12.426  0.00  0.00    +0.000 A 
ATOM     15  N   UNL     1       8.337   5.752  13.299  0.00  0.00    +0.000 NA
ATOM     16  N   UNL     1       7.821   5.472  14.540  0.00  0.00    +0.000 NA
ATOM     17  C   UNL     1       6.845   4.596  14.406  0.00  0.00    +0.000 A 
ENDBRANCH  11  17
ENDBRANCH   7  11
ENDBRANCH   1   7
BRANCH   5  18
ATOM     18  N   UNL     1       1.724   6.064  19.464  0.00  0.00    +0.000 N 
ATOM     19  H   UNL     1       0.773   6.106  19.101  0.00  0.00    +0.000 HD
BRANCH  18  20
ATOM     20  C   UNL     1       2.282   7.383  19.676  0.00  0.00    +0.000 C 
ATOM     21  C   UNL     1       1.808   8.372  18.545  0.00  0.00    +0.000 C 
ATOM     22  C   UNL     1       1.085   9.115  19.631  0.00  0.00    +0.000 A 
ATOM     23  C   UNL     1       1.529   8.277  20.626  0.00  0.00    +0.000 A 
ATOM     24  C   UNL     1       1.265   8.543  21.952  0.00  0.00    +0.000 A 
ATOM     25  C   UNL     1       0.515   9.688  22.244  0.00  0.00    +0.000 A 
ATOM     26  C   UNL     1       0.014  10.506  21.211  0.00  0.00    +0.000 A 
ATOM     27  C   UNL     1       0.278  10.208  19.865  0.00  0.00    +0.000 A 
BRANCH  27  28
ATOM     28  C   UNL     1      -0.287  11.024  18.740  0.00  0.00    +0.000 C 
ATOM     29  F   UNL     1       0.599  11.914  18.210  0.00  0.00    +0.000 F 
ATOM     30  F   UNL     1      -0.695  10.249  17.695  0.00  0.00    +0.000 F 
ATOM     31  F   UNL     1      -1.374  11.754  19.109  0.00  0.00    +0.000 F 
ENDBRANCH  27  28
ENDBRANCH  18  20
ENDBRANCH   5  18
TORSDOF 6
ENDMDL
MODEL 4
REMARK VINA RESULT:      -9.2      4.489      9.167
REMARK  Name = 
REMARK  7 active torsions:
REMARK  status: ('A' for Active; 'I' for Inactive)
REMARK    1  A    between atoms: C_1  and  N_2
REMARK    2  A    between atoms: C_6  and  C_7
REMARK    3  A    between atoms: C_7  and  C_8
REMARK    4  A    between atoms: C_8  and  C_9
REMARK    5  A    between atoms: C_13  and  N_14
REMARK    6  A    between atoms: N_14  and  C_15
REMARK    7  A    between atoms: C_22  and  C_23
REMARK                            x       y       z     vdW  Elec       q    Type
REMARK                         _______ _______ _______ _____ _____    ______ ____
ROOT
ATOM      1  C   UNL     1      -0.379  10.155  20.180  0.00  0.00    +0.000 A 
ATOM      2  C   UNL     1      -0.394  10.273  21.581  0.00  0.00    +0.000 A 
ATOM      3  C   UNL     1       0.440   9.499  22.398  0.00  0.00    +0.000 A 
ATOM      4  C   UNL     1       1.335   8.587  21.836  0.00  0.00    +0.000 A 
ATOM      5  C   UNL     1       1.416   8.454  20.451  0.00  0.00    +0.000 A 
ATOM      6  C   UNL     1       0.525   9.200  19.658  0.00  0.00    +0.000 A 
ENDROOT
BRANCH   1   7
ATOM      7  C   UNL     1      -1.354  11.044  19.194  0.00  0.00    +0.000 C 
ATOM      8  C   UNL     1      -2.042  12.292  19.853  0.00  0.00    +0.000 C 
ATOM      9  C   UNL     1      -0.972  13.199  19.240  0.00  0.00    +0.000 C 
ATOM     10  C   UNL     1      -0.593  12.074  18.270  0.00  0.00    +0.000 C 
BRANCH   7  11
ATOM     11  C   UNL     1      -2.336  10.063  18.507  0.00  0.00    +0.000 C 
BRANCH  11  17
ATOM     12  C   UNL     1      -4.803  11.778  17.444  0.00  0.00    +0.000 C 
ATOM     13  N   UNL     1      -3.828  11.057  16.667  0.00  0.00    +0.000 N 
ATOM     14  C   UNL     1      -3.846  10.965  15.306  0.00  0.00    +0.000 A 
ATOM     15  N   UNL     1      -2.829  10.243  14.908  0.00  0.00    +0.000 NA
ATOM     16  N   UNL     1      -2.137   9.850  16.027  0.00  0.00    +0.000 NA
ATOM     17  C   UNL     1      -2.734  10.348  17.091  0.00  0.00    +0.000 A 
ENDBRANCH  11  17
ENDBRANCH   7  11
ENDBRANCH   1   7
BRANCH   5  18
ATOM     18  N   UNL     1       2.370   7.579  19.862  0.00  0.00    +0.000 N 
ATOM     19  H   UNL     1       3.318   7.848  20.118  0.00  0.00    +0.000 HD
BRANCH  18  20
ATOM     20  C   UNL     1       2.272   7.204  18.467  0.00  0.00    +0.000 C 
ATOM     21  C   UNL     1       3.674   7.334  17.759  0.00  0.00    +0.000 C 
ATOM     22  C   UNL     1       3.616   5.844  17.586  0.00  0.00    +0.000 A 
ATOM     23  C   UNL     1       2.376   5.731  18.166  0.00  0.00    +0.000 A 
ATOM     24  C   UNL     1       1.706   4.528  18.190  0.00  0.00    +0.000 A 
ATOM     25  C   UNL     1       2.343   3.423  17.615  0.00  0.00    +0.000 A 
ATOM     26  C   UNL     1       3.641   3.538  17.075  0.00  0.00    +0.000 A 
ATOM     27  C   UNL     1       4.315   4.769  17.078  0.00  0.00    +0.000 A 
BRANCH  27  28
ATOM     28  C   UNL     1       5.717   4.914  16.566  0.00  0.00    +0.000 C 
ATOM     29  F   UNL     1       6.155   3.837  15.854  0.00  0.00    +0.000 F 
ATOM     30  F   UNL     1       5.854   5.983  15.731  0.00  0.00    +0.000 F 
ATOM     31  F   UNL     1       6.628   5.099  17.561  0.00  0.00    +0.000 F 
ENDBRANCH  27  28
ENDBRANCH  18  20
ENDBRANCH   5  18
TORSDOF 6
ENDMDL
MODEL 5
REMARK VINA RESULT:      -9.1      5.343      7.522
REMARK  Name = 
REMARK  7 active torsions:
REMARK  status: ('A' for Active; 'I' for Inactive)
REMARK    1  A    between atoms: C_1  and  N_2
REMARK    2  A    between atoms: C_6  and  C_7
REMARK    3  A    between atoms: C_7  and  C_8
REMARK    4  A    between atoms: C_8  and  C_9
REMARK    5  A    between atoms: C_13  and  N_14
REMARK    6  A    between atoms: N_14  and  C_15
REMARK    7  A    between atoms: C_22  and  C_23
REMARK                            x       y       z     vdW  Elec       q    Type
REMARK                         _______ _______ _______ _____ _____    ______ ____
ROOT
ATOM      1  C   UNL     1       6.486   5.944  17.467  0.00  0.00    +0.000 A 
ATOM      2  C   UNL     1       7.162   5.232  18.474  0.00  0.00    +0.000 A 
ATOM      3  C   UNL     1       8.153   5.829  19.264  0.00  0.00    +0.000 A 
ATOM      4  C   UNL     1       8.490   7.172  19.084  0.00  0.00    +0.000 A 
ATOM      5  C   UNL     1       7.827   7.934  18.124  0.00  0.00    +0.000 A 
ATOM      6  C   UNL     1       6.880   7.293  17.304  0.00  0.00    +0.000 A 
ENDROOT
BRANCH   1   7
ATOM      7  C   UNL     1       5.325   5.267  16.516  0.00  0.00    +0.000 C 
ATOM      8  C   UNL     1       5.232   5.818  15.048  0.00  0.00    +0.000 C 
ATOM      9  C   UNL     1       6.029   4.610  14.549  0.00  0.00    +0.000 C 
ATOM     10  C   UNL     1       5.729   3.885  15.867  0.00  0.00    +0.000 C 
BRANCH   7  11
ATOM     11  C   UNL     1       3.991   5.319  17.302  0.00  0.00    +0.000 C 
BRANCH  11  17
ATOM     12  C   UNL     1       4.597   3.281  19.675  0.00  0.00    +0.000 C 
ATOM     13  N   UNL     1       3.625   3.146  18.622  0.00  0.00    +0.000 N 
ATOM     14  C   UNL     1       2.817   2.060  18.456  0.00  0.00    +0.000 A 
ATOM     15  N   UNL     1       2.051   2.245  17.411  0.00  0.00    +0.000 NA
ATOM     16  N   UNL     1       2.366   3.471  16.879  0.00  0.00    +0.000 NA
ATOM     17  C   UNL     1       3.311   4.022  17.615  0.00  0.00    +0.000 A 
ENDBRANCH  11  17
ENDBRANCH   7  11
ENDBRANCH   1   7
BRANCH   5  18
ATOM     18  N   UNL     1       8.112   9.320  17.975  0.00  0.00    +0.000 N 
ATOM     19  H   UNL     1       7.907   9.634  17.028  0.00  0.00    +0.000 HD
BRANCH  18  20
ATOM     20  C   UNL     1       9.348   9.881  18.477  0.00  0.00    +0.000 C 
ATOM     21  C   UNL     1       9.725  11.189  17.683  0.00  0.00    +0.000 C 
ATOM     22  C   UNL     1       9.519  11.919  18.978  0.00  0.00    +0.000 A 
ATOM     23  C   UNL     1       9.230  10.776  19.684  0.00  0.00    +0.000 A 
ATOM     24  C   UNL     1       9.053  10.806  21.049  0.00  0.00    +0.000 A 
ATOM     25  C   UNL     1       9.163  12.047  21.687  0.00  0.00    +0.000 A 
ATOM     26  C   UNL     1       9.401  13.222  20.945  0.00  0.00    +0.000 A 
ATOM     27  C   UNL     1       9.560  13.173  19.551  0.00  0.00    +0.000 A 
BRANCH  27  28
ATOM     28  C   UNL     1       9.756  14.409  18.725  0.00  0.00    +0.000 C 
ATOM     29  F   UNL     1       9.581  15.568  19.422  0.00  0.00    +0.000 F 
ATOM     30  F   UNL     1      11.011  14.485  18.200  0.00  0.00    +0.000 F 
ATOM     31  F   UNL     1       8.904  14.479  17.665  0.00  0.00    +0.000 F 
ENDBRANCH  27  28
ENDBRANCH  18  20
ENDBRANCH   5  18
TORSDOF 6
ENDMDL
MODEL 6
REMARK VINA RESULT:      -9.1      1.024      1.303
REMARK  Name = 
REMARK  7 active torsions:
REMARK  status: ('A' for Active; 'I' for Inactive)
REMARK    1  A    between atoms: C_1  and  N_2
REMARK    2  A    between atoms: C_6  and  C_7
REMARK    3  A    between atoms: C_7  and  C_8
REMARK    4  A    between atoms: C_8  and  C_9
REMARK    5  A    between atoms: C_13  and  N_14
REMARK    6  A    between atoms: N_14  and  C_15
REMARK    7  A    between atoms: C_22  and  C_23
REMARK                            x       y       z     vdW  Elec       q    Type
REMARK                         _______ _______ _______ _____ _____    ______ ____
ROOT
ATOM      1  C   UNL     1       5.615   5.457  18.419  0.00  0.00    +0.000 A 
ATOM      2  C   UNL     1       5.191   4.310  19.115  0.00  0.00    +0.000 A 
ATOM      3  C   UNL     1       3.857   4.132  19.505  0.00  0.00    +0.000 A 
ATOM      4  C   UNL     1       2.893   5.093  19.195  0.00  0.00    +0.000 A 
ATOM      5  C   UNL     1       3.251   6.233  18.477  0.00  0.00    +0.000 A 
ATOM      6  C   UNL     1       4.608   6.414  18.151  0.00  0.00    +0.000 A 
ENDROOT
BRANCH   1   7
ATOM      7  C   UNL     1       7.176   5.699  17.957  0.00  0.00    +0.000 C 
ATOM      8  C   UNL     1       7.513   7.127  17.397  0.00  0.00    +0.000 C 
ATOM      9  C   UNL     1       8.090   7.520  18.759  0.00  0.00    +0.000 C 
ATOM     10  C   UNL     1       8.168   6.036  19.139  0.00  0.00    +0.000 C 
BRANCH   7  11
ATOM     11  C   UNL     1       7.566   4.535  17.012  0.00  0.00    +0.000 C 
BRANCH  11  17
ATOM     12  C   UNL     1       4.996   3.207  15.678  0.00  0.00    +0.000 C 
ATOM     13  N   UNL     1       6.020   3.989  15.035  0.00  0.00    +0.000 N 
ATOM     14  C   UNL     1       6.062   4.249  13.697  0.00  0.00    +0.000 A 
ATOM     15  N   UNL     1       7.114   4.981  13.431  0.00  0.00    +0.000 NA
ATOM     16  N   UNL     1       7.776   5.200  14.614  0.00  0.00    +0.000 NA
ATOM     17  C   UNL     1       7.111   4.608  15.587  0.00  0.00    +0.000 A 
ENDBRANCH  11  17
ENDBRANCH   7  11
ENDBRANCH   1   7
BRANCH   5  18
ATOM     18  N   UNL     1       2.268   7.187  18.096  0.00  0.00    +0.000 N 
ATOM     19  H   UNL     1       2.109   7.163  17.090  0.00  0.00    +0.000 HD
BRANCH  18  20
ATOM     20  C   UNL     1       2.313   8.542  18.604  0.00  0.00    +0.000 C 
ATOM     21  C   UNL     1       1.305   9.462  17.817  0.00  0.00    +0.000 C 
ATOM     22  C   UNL     1       0.561   9.594  19.113  0.00  0.00    +0.000 A 
ATOM     23  C   UNL     1       1.459   8.825  19.814  0.00  0.00    +0.000 A 
ATOM     24  C   UNL     1       1.356   8.672  21.179  0.00  0.00    +0.000 A 
ATOM     25  C   UNL     1       0.293   9.317  21.822  0.00  0.00    +0.000 A 
ATOM     26  C   UNL     1      -0.657  10.054  21.085  0.00  0.00    +0.000 A 
ATOM     27  C   UNL     1      -0.545  10.182  19.692  0.00  0.00    +0.000 A 
BRANCH  27  28
ATOM     28  C   UNL     1      -1.568  10.909  18.870  0.00  0.00    +0.000 C 
ATOM     29  F   UNL     1      -2.442  11.647  19.612  0.00  0.00    +0.000 F 
ATOM     30  F   UNL     1      -0.999  11.787  17.997  0.00  0.00    +0.000 F 
ATOM     31  F   UNL     1      -2.333  10.073  18.115  0.00  0.00    +0.000 F 
ENDBRANCH  27  28
ENDBRANCH  18  20
ENDBRANCH   5  18
TORSDOF 6
ENDMDL
MODEL 7
REMARK VINA RESULT:      -9.0      2.436      4.429
REMARK  Name = 
REMARK  7 active torsions:
REMARK  status: ('A' for Active; 'I' for Inactive)
REMARK    1  A    between atoms: C_1  and  N_2
REMARK    2  A    between atoms: C_6  and  C_7
REMARK    3  A    between atoms: C_7  and  C_8
REMARK    4  A    between atoms: C_8  and  C_9
REMARK    5  A    between atoms: C_13  and  N_14
REMARK    6  A    between atoms: N_14  and  C_15
REMARK    7  A    between atoms: C_22  and  C_23
REMARK                            x       y       z     vdW  Elec       q    Type
REMARK                         _______ _______ _______ _____ _____    ______ ____
ROOT
ATOM      1  C   UNL     1       2.382   5.531  19.199  0.00  0.00    +0.000 A 
ATOM      2  C   UNL     1       2.679   6.218  18.008  0.00  0.00    +0.000 A 
ATOM      3  C   UNL     1       2.534   7.608  17.900  0.00  0.00    +0.000 A 
ATOM      4  C   UNL     1       2.101   8.363  18.991  0.00  0.00    +0.000 A 
ATOM      5  C   UNL     1       1.825   7.737  20.206  0.00  0.00    +0.000 A 
ATOM      6  C   UNL     1       1.922   6.335  20.268  0.00  0.00    +0.000 A 
ENDROOT
BRANCH   1   7
ATOM      7  C   UNL     1       2.533   3.899  19.353  0.00  0.00    +0.000 C 
ATOM      8  C   UNL     1       1.647   3.229  20.464  0.00  0.00    +0.000 C 
ATOM      9  C   UNL     1       0.634   2.810  19.397  0.00  0.00    +0.000 C 
ATOM     10  C   UNL     1       1.691   3.059  18.315  0.00  0.00    +0.000 C 
BRANCH   7  11
ATOM     11  C   UNL     1       4.045   3.581  19.465  0.00  0.00    +0.000 C 
BRANCH  11  17
ATOM     12  C   UNL     1       6.618   5.451  19.283  0.00  0.00    +0.000 C 
ATOM     13  N   UNL     1       5.988   4.710  18.222  0.00  0.00    +0.000 N 
ATOM     14  C   UNL     1       6.395   4.736  16.920  0.00  0.00    +0.000 A 
ATOM     15  N   UNL     1       5.618   3.960  16.208  0.00  0.00    +0.000 NA
ATOM     16  N   UNL     1       4.683   3.419  17.056  0.00  0.00    +0.000 NA
ATOM     17  C   UNL     1       4.910   3.865  18.276  0.00  0.00    +0.000 A 
ENDBRANCH  11  17
ENDBRANCH   7  11
ENDBRANCH   1   7
BRANCH   5  18
ATOM     18  N   UNL     1       1.448   8.500  21.345  0.00  0.00    +0.000 N 
ATOM     19  H   UNL     1       1.873   8.126  22.191  0.00  0.00    +0.000 HD
BRANCH  18  20
ATOM     20  C   UNL     1       0.068   8.885  21.557  0.00  0.00    +0.000 C 
ATOM     21  C   UNL     1      -0.031  10.004  22.662  0.00  0.00    +0.000 C 
ATOM     22  C   UNL     1      -0.533  10.903  21.570  0.00  0.00    +0.000 A 
ATOM     23  C   UNL     1      -0.486   9.919  20.611  0.00  0.00    +0.000 A 
ATOM     24  C   UNL     1      -0.971  10.136  19.341  0.00  0.00    +0.000 A 
ATOM     25  C   UNL     1      -1.498  11.402  19.059  0.00  0.00    +0.000 A 
ATOM     26  C   UNL     1      -1.486  12.422  20.032  0.00  0.00    +0.000 A 
ATOM     27  C   UNL     1      -0.969  12.186  21.316  0.00  0.00    +0.000 A 
BRANCH  27  28
ATOM     28  C   UNL     1      -0.888  13.264  22.356  0.00  0.00    +0.000 C 
ATOM     29  F   UNL     1       0.345  13.840  22.453  0.00  0.00    +0.000 F 
ATOM     30  F   UNL     1      -1.750  14.290  22.105  0.00  0.00    +0.000 F 
ATOM     31  F   UNL     1      -1.191  12.819  23.606  0.00  0.00    +0.000 F 
ENDBRANCH  27  28
ENDBRANCH  18  20
ENDBRANCH   5  18
TORSDOF 6
ENDMDL
MODEL 8
REMARK VINA RESULT:      -9.0      1.436      1.720
REMARK  Name = 
REMARK  7 active torsions:
REMARK  status: ('A' for Active; 'I' for Inactive)
REMARK    1  A    between atoms: C_1  and  N_2
REMARK    2  A    between atoms: C_6  and  C_7
REMARK    3  A    between atoms: C_7  and  C_8
REMARK    4  A    between atoms: C_8  and  C_9
REMARK    5  A    between atoms: C_13  and  N_14
REMARK    6  A    between atoms: N_14  and  C_15
REMARK    7  A    between atoms: C_22  and  C_23
REMARK                            x       y       z     vdW  Elec       q    Type
REMARK                         _______ _______ _______ _____ _____    ______ ____
ROOT
ATOM      1  C   UNL     1       4.337   5.171  17.576  0.00  0.00    +0.000 A 
ATOM      2  C   UNL     1       3.451   4.080  17.589  0.00  0.00    +0.000 A 
ATOM      3  C   UNL     1       2.194   4.154  18.205  0.00  0.00    +0.000 A 
ATOM      4  C   UNL     1       1.773   5.337  18.816  0.00  0.00    +0.000 A 
ATOM      5  C   UNL     1       2.598   6.460  18.802  0.00  0.00    +0.000 A 
ATOM      6  C   UNL     1       3.878   6.339  18.230  0.00  0.00    +0.000 A 
ENDROOT
BRANCH   1   7
ATOM      7  C   UNL     1       5.824   5.110  16.870  0.00  0.00    +0.000 C 
ATOM      8  C   UNL     1       6.624   6.461  16.837  0.00  0.00    +0.000 C 
ATOM      9  C   UNL     1       7.431   6.008  18.056  0.00  0.00    +0.000 C 
ATOM     10  C   UNL     1       6.974   4.566  17.804  0.00  0.00    +0.000 C 
BRANCH   7  11
ATOM     11  C   UNL     1       5.653   4.436  15.486  0.00  0.00    +0.000 C 
BRANCH  11  17
ATOM     12  C   UNL     1       5.722   3.440  12.460  0.00  0.00    +0.000 C 
ATOM     13  N   UNL     1       6.653   4.316  13.123  0.00  0.00    +0.000 N 
ATOM     14  C   UNL     1       7.770   4.835  12.537  0.00  0.00    +0.000 A 
ATOM     15  N   UNL     1       8.402   5.588  13.402  0.00  0.00    +0.000 NA
ATOM     16  N   UNL     1       7.690   5.558  14.576  0.00  0.00    +0.000 NA
ATOM     17  C   UNL     1       6.627   4.796  14.407  0.00  0.00    +0.000 A 
ENDBRANCH  11  17
ENDBRANCH   7  11
ENDBRANCH   1   7
BRANCH   5  18
ATOM     18  N   UNL     1       2.155   7.691  19.361  0.00  0.00    +0.000 N 
ATOM     19  H   UNL     1       1.355   7.546  19.973  0.00  0.00    +0.000 HD
BRANCH  18  20
ATOM     20  C   UNL     1       1.996   8.868  18.532  0.00  0.00    +0.000 C 
ATOM     21  C   UNL     1       0.817   8.667  17.506  0.00  0.00    +0.000 C 
ATOM     22  C   UNL     1       0.118   9.773  18.239  0.00  0.00    +0.000 A 
ATOM     23  C   UNL     1       1.160   9.980  19.111  0.00  0.00    +0.000 A 
ATOM     24  C   UNL     1       1.142  11.022  20.011  0.00  0.00    +0.000 A 
ATOM     25  C   UNL     1       0.016  11.853  20.014  0.00  0.00    +0.000 A 
ATOM     26  C   UNL     1      -1.074  11.596  19.157  0.00  0.00    +0.000 A 
ATOM     27  C   UNL     1      -1.044  10.516  18.260  0.00  0.00    +0.000 A 
BRANCH  27  28
ATOM     28  C   UNL     1      -2.208  10.179  17.375  0.00  0.00    +0.000 C 
ATOM     29  F   UNL     1      -3.037   9.231  17.898  0.00  0.00    +0.000 F 
ATOM     30  F   UNL     1      -3.000  11.261  17.130  0.00  0.00    +0.000 F 
ATOM     31  F   UNL     1      -1.827   9.711  16.155  0.00  0.00    +0.000 F 
ENDBRANCH  27  28
ENDBRANCH  18  20
ENDBRANCH   5  18
TORSDOF 6
ENDMDL
MODEL 9
REMARK VINA RESULT:      -9.0      1.509      2.909
REMARK  Name = 
REMARK  7 active torsions:
REMARK  status: ('A' for Active; 'I' for Inactive)
REMARK    1  A    between atoms: C_1  and  N_2
REMARK    2  A    between atoms: C_6  and  C_7
REMARK    3  A    between atoms: C_7  and  C_8
REMARK    4  A    between atoms: C_8  and  C_9
REMARK    5  A    between atoms: C_13  and  N_14
REMARK    6  A    between atoms: N_14  and  C_15
REMARK    7  A    between atoms: C_22  and  C_23
REMARK                            x       y       z     vdW  Elec       q    Type
REMARK                         _______ _______ _______ _____ _____    ______ ____
ROOT
ATOM      1  C   UNL     1       4.481   4.300  16.980  0.00  0.00    +0.000 A 
ATOM      2  C   UNL     1       4.006   3.086  17.508  0.00  0.00    +0.000 A 
ATOM      3  C   UNL     1       2.845   3.023  18.290  0.00  0.00    +0.000 A 
ATOM      4  C   UNL     1       2.107   4.177  18.558  0.00  0.00    +0.000 A 
ATOM      5  C   UNL     1       2.513   5.402  18.032  0.00  0.00    +0.000 A 
ATOM      6  C   UNL     1       3.714   5.446  17.300  0.00  0.00    +0.000 A 
ENDROOT
BRANCH   1   7
ATOM      7  C   UNL     1       5.846   4.407  16.066  0.00  0.00    +0.000 C 
ATOM      8  C   UNL     1       6.023   3.303  14.963  0.00  0.00    +0.000 C 
ATOM      9  C   UNL     1       5.507   4.282  13.906  0.00  0.00    +0.000 C 
ATOM     10  C   UNL     1       5.762   5.442  14.876  0.00  0.00    +0.000 C 
BRANCH   7  11
ATOM     11  C   UNL     1       7.045   4.537  17.037  0.00  0.00    +0.000 C 
BRANCH  11  17
ATOM     12  C   UNL     1       8.010   5.608  19.879  0.00  0.00    +0.000 C 
ATOM     13  N   UNL     1       7.869   6.354  18.656  0.00  0.00    +0.000 N 
ATOM     14  C   UNL     1       8.096   7.694  18.543  0.00  0.00    +0.000 A 
ATOM     15  N   UNL     1       7.878   8.067  17.307  0.00  0.00    +0.000 NA
ATOM     16  N   UNL     1       7.497   6.953  16.599  0.00  0.00    +0.000 NA
ATOM     17  C   UNL     1       7.498   5.915  17.411  0.00  0.00    +0.000 A 
ENDBRANCH  11  17
ENDBRANCH   7  11
ENDBRANCH   1   7
BRANCH   5  18
ATOM     18  N   UNL     1       1.735   6.574  18.240  0.00  0.00    +0.000 N 
ATOM     19  H   UNL     1       1.183   6.795  17.414  0.00  0.00    +0.000 HD
BRANCH  18  20
ATOM     20  C   UNL     1       2.321   7.758  18.833  0.00  0.00    +0.000 C 
ATOM     21  C   UNL     1       1.887   9.047  18.038  0.00  0.00    +0.000 C 
ATOM     22  C   UNL     1       1.165   9.459  19.288  0.00  0.00    +0.000 A 
ATOM     23  C   UNL     1       1.574   8.355  19.998  0.00  0.00    +0.000 A 
ATOM     24  C   UNL     1       1.296   8.228  21.341  0.00  0.00    +0.000 A 
ATOM     25  C   UNL     1       0.569   9.257  21.950  0.00  0.00    +0.000 A 
ATOM     26  C   UNL     1       0.103  10.355  21.198  0.00  0.00    +0.000 A 
ATOM     27  C   UNL     1       0.380  10.457  19.826  0.00  0.00    +0.000 A 
BRANCH  27  28
ATOM     28  C   UNL     1      -0.148  11.581  18.985  0.00  0.00    +0.000 C 
ATOM     29  F   UNL     1      -0.862  12.505  19.689  0.00  0.00    +0.000 F 
ATOM     30  F   UNL     1       0.849  12.280  18.372  0.00  0.00    +0.000 F 
ATOM     31  F   UNL     1      -0.971  11.154  17.988  0.00  0.00    +0.000 F 
ENDBRANCH  27  28
ENDBRANCH  18  20
ENDBRANCH   5  18
TORSDOF 6
ENDMDL
