MODEL 1
REMARK VINA RESULT:      -9.4      0.000      0.000
REMARK  Name = 
REMARK  6 active torsions:
REMARK  status: ('A' for Active; 'I' for Inactive)
REMARK    1  A    between atoms: C_1  and  N_2
REMARK    2  A    between atoms: C_6  and  C_7
REMARK    3  A    between atoms: C_6  and  C_8
REMARK    4  A    between atoms: C_11  and  N_12
REMARK    5  A    between atoms: C_13  and  C_15
REMARK    6  A    between atoms: C_18  and  C_19
REMARK                            x       y       z     vdW  Elec       q    Type
REMARK                         _______ _______ _______ _____ _____    ______ ____
ROOT
ATOM      1  C   UNL     1       3.759   5.997  18.380  0.00  0.00    +0.000 A 
ATOM      2  C   UNL     1       3.095   5.791  19.594  0.00  0.00    +0.000 A 
ATOM      3  C   UNL     1       2.193   6.724  20.090  0.00  0.00    +0.000 A 
ATOM      4  C   UNL     1       1.898   7.893  19.395  0.00  0.00    +0.000 A 
ATOM      5  C   UNL     1       2.541   8.114  18.173  0.00  0.00    +0.000 A 
ATOM      6  C   UNL     1       3.460   7.175  17.670  0.00  0.00    +0.000 A 
ENDROOT
BRANCH   1  12
ATOM      7  C   UNL     1       7.820   7.321  17.939  0.00  0.00    +0.000 C 
ATOM      8  N   UNL     1       6.918   6.211  18.091  0.00  0.00    +0.000 N 
ATOM      9  C   UNL     1       6.773   5.467  19.219  0.00  0.00    +0.000 C 
ATOM     10  O   UNL     1       7.412   5.535  20.255  0.00  0.00    +0.000 OA
ATOM     11  N   UNL     1       5.706   4.609  19.039  0.00  0.00    +0.000 N 
ATOM     12  C   UNL     1       4.878   5.046  17.929  0.00  0.00    +0.000 C 
ATOM     13  C   UNL     1       4.375   3.851  17.135  0.00  0.00    +0.000 C 
ATOM     14  C   UNL     1       5.936   5.897  17.187  0.00  0.00    +0.000 C 
ATOM     15  O   UNL     1       5.836   6.334  16.046  0.00  0.00    +0.000 OA
ATOM     16  H   UNL     1       5.345   4.120  19.846  0.00  0.00    +0.000 HD
ENDBRANCH   1  12
BRANCH   4  17
ATOM     17  N   UNL     1       0.992   8.862  19.886  0.00  0.00    +0.000 N 
ATOM     18  C   UNL     1       0.965   9.329  21.190  0.00  0.00    +0.000 C 
ATOM     19  O   UNL     1       1.725   8.995  22.102  0.00  0.00    +0.000 OA
ATOM     20  H   UNL     1       0.343   9.254  19.221  0.00  0.00    +0.000 HD
BRANCH  18  21
ATOM     21  C   UNL     1      -0.060  10.335  21.545  0.00  0.00    +0.000 A 
ATOM     22  C   UNL     1      -0.653  11.196  20.623  0.00  0.00    +0.000 A 
ATOM     23  C   UNL     1      -1.678  12.059  21.044  0.00  0.00    +0.000 A 
ATOM     24  C   UNL     1      -2.142  12.067  22.376  0.00  0.00    +0.000 A 
ATOM     25  C   UNL     1      -1.536  11.172  23.273  0.00  0.00    +0.000 A 
ATOM     26  C   UNL     1      -0.506  10.330  22.871  0.00  0.00    +0.000 A 
BRANCH  24  27
ATOM     27  C   UNL     1      -3.229  12.963  22.834  0.00  0.00    +0.000 A 
ATOM     28  C   UNL     1      -3.067  13.833  23.923  0.00  0.00    +0.000 A 
ATOM     29  C   UNL     1      -4.098  14.687  24.331  0.00  0.00    +0.000 A 
ATOM     30  C   UNL     1      -5.310  14.695  23.649  0.00  0.00    +0.000 A 
ATOM     31  C   UNL     1      -5.497  13.848  22.564  0.00  0.00    +0.000 A 
ATOM     32  C   UNL     1      -4.473  12.987  22.171  0.00  0.00    +0.000 A 
ENDBRANCH  24  27
ENDBRANCH  18  21
ENDBRANCH   4  17
TORSDOF 4
ENDMDL
MODEL 2
REMARK VINA RESULT:      -9.2      0.666      1.099
REMARK  Name = 
REMARK  6 active torsions:
REMARK  status: ('A' for Active; 'I' for Inactive)
REMARK    1  A    between atoms: C_1  and  N_2
REMARK    2  A    between atoms: C_6  and  C_7
REMARK    3  A    between atoms: C_6  and  C_8
REMARK    4  A    between atoms: C_11  and  N_12
REMARK    5  A    between atoms: C_13  and  C_15
REMARK    6  A    between atoms: C_18  and  C_19
REMARK                            x       y       z     vdW  Elec       q    Type
REMARK                         _______ _______ _______ _____ _____    ______ ____
ROOT
ATOM      1  C   UNL     1       3.457   6.548  18.474  0.00  0.00    +0.000 A 
ATOM      2  C   UNL     1       3.145   7.695  17.736  0.00  0.00    +0.000 A 
ATOM      3  C   UNL     1       2.214   8.618  18.196  0.00  0.00    +0.000 A 
ATOM      4  C   UNL     1       1.566   8.452  19.417  0.00  0.00    +0.000 A 
ATOM      5  C   UNL     1       1.871   7.320  20.178  0.00  0.00    +0.000 A 
ATOM      6  C   UNL     1       2.808   6.379  19.712  0.00  0.00    +0.000 A 
ENDROOT
BRANCH   1  12
ATOM      7  C   UNL     1       7.621   7.215  17.665  0.00  0.00    +0.000 C 
ATOM      8  N   UNL     1       6.565   6.261  17.869  0.00  0.00    +0.000 N 
ATOM      9  C   UNL     1       6.406   5.493  18.980  0.00  0.00    +0.000 C 
ATOM     10  O   UNL     1       7.144   5.403  19.946  0.00  0.00    +0.000 OA
ATOM     11  N   UNL     1       5.198   4.830  18.880  0.00  0.00    +0.000 N 
ATOM     12  C   UNL     1       4.353   5.453  17.878  0.00  0.00    +0.000 C 
ATOM     13  C   UNL     1       3.584   4.398  17.098  0.00  0.00    +0.000 C 
ATOM     14  C   UNL     1       5.463   6.158  17.061  0.00  0.00    +0.000 C 
ATOM     15  O   UNL     1       5.328   6.664  15.952  0.00  0.00    +0.000 OA
ATOM     16  H   UNL     1       4.840   4.366  19.703  0.00  0.00    +0.000 HD
ENDBRANCH   1  12
BRANCH   4  17
ATOM     17  N   UNL     1       0.607   9.374  19.899  0.00  0.00    +0.000 N 
ATOM     18  C   UNL     1       0.625   9.943  21.162  0.00  0.00    +0.000 C 
ATOM     19  O   UNL     1       1.472   9.754  22.037  0.00  0.00    +0.000 OA
ATOM     20  H   UNL     1      -0.119   9.651  19.256  0.00  0.00    +0.000 HD
BRANCH  18  21
ATOM     21  C   UNL     1      -0.464  10.880  21.515  0.00  0.00    +0.000 A 
ATOM     22  C   UNL     1      -1.130  11.680  20.588  0.00  0.00    +0.000 A 
ATOM     23  C   UNL     1      -2.208  12.475  21.009  0.00  0.00    +0.000 A 
ATOM     24  C   UNL     1      -2.652  12.476  22.347  0.00  0.00    +0.000 A 
ATOM     25  C   UNL     1      -1.972  11.643  23.251  0.00  0.00    +0.000 A 
ATOM     26  C   UNL     1      -0.889  10.869  22.848  0.00  0.00    +0.000 A 
BRANCH  24  27
ATOM     27  C   UNL     1      -3.793  13.301  22.806  0.00  0.00    +0.000 A 
ATOM     28  C   UNL     1      -3.613  14.452  23.588  0.00  0.00    +0.000 A 
ATOM     29  C   UNL     1      -4.701  15.231  23.998  0.00  0.00    +0.000 A 
ATOM     30  C   UNL     1      -5.993  14.880  23.622  0.00  0.00    +0.000 A 
ATOM     31  C   UNL     1      -6.201  13.748  22.844  0.00  0.00    +0.000 A 
ATOM     32  C   UNL     1      -5.116  12.965  22.452  0.00  0.00    +0.000 A 
ENDBRANCH  24  27
ENDBRANCH  18  21
ENDBRANCH   4  17
TORSDOF 4
ENDMDL
MODEL 3
REMARK VINA RESULT:      -9.2      1.477      2.588
REMARK  Name = 
REMARK  6 active torsions:
REMARK  status: ('A' for Active; 'I' for Inactive)
REMARK    1  A    between atoms: C_1  and  N_2
REMARK    2  A    between atoms: C_6  and  C_7
REMARK    3  A    between atoms: C_6  and  C_8
REMARK    4  A    between atoms: C_11  and  N_12
REMARK    5  A    between atoms: C_13  and  C_15
REMARK    6  A    between atoms: C_18  and  C_19
REMARK                            x       y       z     vdW  Elec       q    Type
REMARK                         _______ _______ _______ _____ _____    ______ ____
ROOT
ATOM      1  C   UNL     1       3.767   6.091  18.107  0.00  0.00    +0.000 A 
ATOM      2  C   UNL     1       3.551   7.293  17.424  0.00  0.00    +0.000 A 
ATOM      3  C   UNL     1       2.694   8.264  17.927  0.00  0.00    +0.000 A 
ATOM      4  C   UNL     1       2.028   8.092  19.137  0.00  0.00    +0.000 A 
ATOM      5  C   UNL     1       2.239   6.904  19.843  0.00  0.00    +0.000 A 
ATOM      6  C   UNL     1       3.100   5.915  19.335  0.00  0.00    +0.000 A 
ENDROOT
BRANCH   1  12
ATOM      7  C   UNL     1       4.340   2.310  20.060  0.00  0.00    +0.000 C 
ATOM      8  N   UNL     1       4.369   3.054  18.829  0.00  0.00    +0.000 N 
ATOM      9  C   UNL     1       3.459   2.946  17.826  0.00  0.00    +0.000 C 
ATOM     10  O   UNL     1       2.524   2.168  17.735  0.00  0.00    +0.000 OA
ATOM     11  N   UNL     1       3.723   3.929  16.892  0.00  0.00    +0.000 N 
ATOM     12  C   UNL     1       4.576   4.958  17.459  0.00  0.00    +0.000 C 
ATOM     13  C   UNL     1       5.583   5.444  16.429  0.00  0.00    +0.000 C 
ATOM     14  C   UNL     1       5.199   4.122  18.604  0.00  0.00    +0.000 C 
ATOM     15  O   UNL     1       6.169   4.440  19.281  0.00  0.00    +0.000 OA
ATOM     16  H   UNL     1       3.029   4.109  16.180  0.00  0.00    +0.000 HD
ENDBRANCH   1  12
BRANCH   4  17
ATOM     17  N   UNL     1       1.144   9.063  19.662  0.00  0.00    +0.000 N 
ATOM     18  C   UNL     1       0.869   9.235  21.009  0.00  0.00    +0.000 C 
ATOM     19  O   UNL     1       1.358   8.595  21.943  0.00  0.00    +0.000 OA
ATOM     20  H   UNL     1       0.712   9.688  18.999  0.00  0.00    +0.000 HD
BRANCH  18  21
ATOM     21  C   UNL     1      -0.095  10.291  21.391  0.00  0.00    +0.000 A 
ATOM     22  C   UNL     1      -0.696  11.158  20.480  0.00  0.00    +0.000 A 
ATOM     23  C   UNL     1      -1.663  12.071  20.930  0.00  0.00    +0.000 A 
ATOM     24  C   UNL     1      -2.060  12.126  22.282  0.00  0.00    +0.000 A 
ATOM     25  C   UNL     1      -1.449  11.224  23.168  0.00  0.00    +0.000 A 
ATOM     26  C   UNL     1      -0.475  10.331  22.736  0.00  0.00    +0.000 A 
BRANCH  24  27
ATOM     27  C   UNL     1      -3.085  13.076  22.772  0.00  0.00    +0.000 A 
ATOM     28  C   UNL     1      -4.348  13.185  22.169  0.00  0.00    +0.000 A 
ATOM     29  C   UNL     1      -5.313  14.075  22.655  0.00  0.00    +0.000 A 
ATOM     30  C   UNL     1      -5.037  14.866  23.766  0.00  0.00    +0.000 A 
ATOM     31  C   UNL     1      -3.797  14.775  24.386  0.00  0.00    +0.000 A 
ATOM     32  C   UNL     1      -2.833  13.900  23.888  0.00  0.00    +0.000 A 
ENDBRANCH  24  27
ENDBRANCH  18  21
ENDBRANCH   4  17
TORSDOF 4
ENDMDL
MODEL 4
REMARK VINA RESULT:      -9.1      0.660      1.097
REMARK  Name = 
REMARK  6 active torsions:
REMARK  status: ('A' for Active; 'I' for Inactive)
REMARK    1  A    between atoms: C_1  and  N_2
REMARK    2  A    between atoms: C_6  and  C_7
REMARK    3  A    between atoms: C_6  and  C_8
REMARK    4  A    between atoms: C_11  and  N_12
REMARK    5  A    between atoms: C_13  and  C_15
REMARK    6  A    between atoms: C_18  and  C_19
REMARK                            x       y       z     vdW  Elec       q    Type
REMARK                         _______ _______ _______ _____ _____    ______ ____
ROOT
ATOM      1  C   UNL     1       3.344   6.155  18.382  0.00  0.00    +0.000 A 
ATOM      2  C   UNL     1       2.717   5.989  19.622  0.00  0.00    +0.000 A 
ATOM      3  C   UNL     1       1.934   6.996  20.174  0.00  0.00    +0.000 A 
ATOM      4  C   UNL     1       1.727   8.203  19.512  0.00  0.00    +0.000 A 
ATOM      5  C   UNL     1       2.334   8.385  18.266  0.00  0.00    +0.000 A 
ATOM      6  C   UNL     1       3.132   7.372  17.707  0.00  0.00    +0.000 A 
ENDROOT
BRANCH   1  12
ATOM      7  C   UNL     1       7.446   7.139  17.574  0.00  0.00    +0.000 C 
ATOM      8  N   UNL     1       6.475   6.108  17.828  0.00  0.00    +0.000 N 
ATOM      9  C   UNL     1       6.368   5.400  18.983  0.00  0.00    +0.000 C 
ATOM     10  O   UNL     1       7.095   5.436  19.961  0.00  0.00    +0.000 OA
ATOM     11  N   UNL     1       5.225   4.627  18.914  0.00  0.00    +0.000 N 
ATOM     12  C   UNL     1       4.343   5.109  17.865  0.00  0.00    +0.000 C 
ATOM     13  C   UNL     1       3.683   3.943  17.146  0.00  0.00    +0.000 C 
ATOM     14  C   UNL     1       5.399   5.857  17.016  0.00  0.00    +0.000 C 
ATOM     15  O   UNL     1       5.237   6.279  15.877  0.00  0.00    +0.000 OA
ATOM     16  H   UNL     1       4.896   4.185  19.761  0.00  0.00    +0.000 HD
ENDBRANCH   1  12
BRANCH   4  17
ATOM     17  N   UNL     1       0.943   9.245  20.061  0.00  0.00    +0.000 N 
ATOM     18  C   UNL     1       0.989   9.657  21.382  0.00  0.00    +0.000 C 
ATOM     19  O   UNL     1       1.720   9.202  22.264  0.00  0.00    +0.000 OA
ATOM     20  H   UNL     1       0.332   9.735  19.425  0.00  0.00    +0.000 HD
BRANCH  18  21
ATOM     21  C   UNL     1       0.089  10.755  21.799  0.00  0.00    +0.000 A 
ATOM     22  C   UNL     1      -0.005  11.975  21.131  0.00  0.00    +0.000 A 
ATOM     23  C   UNL     1      -0.951  12.923  21.554  0.00  0.00    +0.000 A 
ATOM     24  C   UNL     1      -1.827  12.669  22.629  0.00  0.00    +0.000 A 
ATOM     25  C   UNL     1      -1.719  11.422  23.266  0.00  0.00    +0.000 A 
ATOM     26  C   UNL     1      -0.771  10.486  22.869  0.00  0.00    +0.000 A 
BRANCH  24  27
ATOM     27  C   UNL     1      -2.837  13.653  23.081  0.00  0.00    +0.000 A 
ATOM     28  C   UNL     1      -4.023  13.884  22.368  0.00  0.00    +0.000 A 
ATOM     29  C   UNL     1      -4.976  14.804  22.819  0.00  0.00    +0.000 A 
ATOM     30  C   UNL     1      -4.766  15.504  24.003  0.00  0.00    +0.000 A 
ATOM     31  C   UNL     1      -3.604  15.292  24.732  0.00  0.00    +0.000 A 
ATOM     32  C   UNL     1      -2.649  14.387  24.271  0.00  0.00    +0.000 A 
ENDBRANCH  24  27
ENDBRANCH  18  21
ENDBRANCH   4  17
TORSDOF 4
ENDMDL
MODEL 5
REMARK VINA RESULT:      -9.1      0.639      1.588
REMARK  Name = 
REMARK  6 active torsions:
REMARK  status: ('A' for Active; 'I' for Inactive)
REMARK    1  A    between atoms: C_1  and  N_2
REMARK    2  A    between atoms: C_6  and  C_7
REMARK    3  A    between atoms: C_6  and  C_8
REMARK    4  A    between atoms: C_11  and  N_12
REMARK    5  A    between atoms: C_13  and  C_15
REMARK    6  A    between atoms: C_18  and  C_19
REMARK                            x       y       z     vdW  Elec       q    Type
REMARK                         _______ _______ _______ _____ _____    ______ ____
ROOT
ATOM      1  C   UNL     1       3.565   6.468  18.513  0.00  0.00    +0.000 A 
ATOM      2  C   UNL     1       3.210   7.631  17.821  0.00  0.00    +0.000 A 
ATOM      3  C   UNL     1       2.247   8.500  18.317  0.00  0.00    +0.000 A 
ATOM      4  C   UNL     1       1.608   8.263  19.531  0.00  0.00    +0.000 A 
ATOM      5  C   UNL     1       1.956   7.114  20.246  0.00  0.00    +0.000 A 
ATOM      6  C   UNL     1       2.925   6.227  19.744  0.00  0.00    +0.000 A 
ENDROOT
BRANCH   1  12
ATOM      7  C   UNL     1       7.706   7.310  17.748  0.00  0.00    +0.000 C 
ATOM      8  N   UNL     1       6.682   6.312  17.907  0.00  0.00    +0.000 N 
ATOM      9  C   UNL     1       6.547   5.493  18.983  0.00  0.00    +0.000 C 
ATOM     10  O   UNL     1       7.285   5.386  19.948  0.00  0.00    +0.000 OA
ATOM     11  N   UNL     1       5.363   4.794  18.851  0.00  0.00    +0.000 N 
ATOM     12  C   UNL     1       4.499   5.431  17.873  0.00  0.00    +0.000 C 
ATOM     13  C   UNL     1       3.768   4.385  17.046  0.00  0.00    +0.000 C 
ATOM     14  C   UNL     1       5.585   6.207  17.091  0.00  0.00    +0.000 C 
ATOM     15  O   UNL     1       5.436   6.755  16.005  0.00  0.00    +0.000 OA
ATOM     16  H   UNL     1       5.019   4.283  19.652  0.00  0.00    +0.000 HD
ENDBRANCH   1  12
BRANCH   4  17
ATOM     17  N   UNL     1       0.617   9.130  20.050  0.00  0.00    +0.000 N 
ATOM     18  C   UNL     1       0.664   9.723  21.300  0.00  0.00    +0.000 C 
ATOM     19  O   UNL     1       1.567   9.607  22.132  0.00  0.00    +0.000 OA
ATOM     20  H   UNL     1      -0.159   9.347  19.443  0.00  0.00    +0.000 HD
BRANCH  18  21
ATOM     21  C   UNL     1      -0.465  10.594  21.697  0.00  0.00    +0.000 A 
ATOM     22  C   UNL     1      -0.947  10.692  23.002  0.00  0.00    +0.000 A 
ATOM     23  C   UNL     1      -1.967  11.611  23.294  0.00  0.00    +0.000 A 
ATOM     24  C   UNL     1      -2.510  12.457  22.305  0.00  0.00    +0.000 A 
ATOM     25  C   UNL     1      -1.987  12.346  21.006  0.00  0.00    +0.000 A 
ATOM     26  C   UNL     1      -0.992  11.424  20.703  0.00  0.00    +0.000 A 
BRANCH  24  27
ATOM     27  C   UNL     1      -3.580  13.439  22.598  0.00  0.00    +0.000 A 
ATOM     28  C   UNL     1      -4.937  13.082  22.603  0.00  0.00    +0.000 A 
ATOM     29  C   UNL     1      -5.934  14.018  22.901  0.00  0.00    +0.000 A 
ATOM     30  C   UNL     1      -5.591  15.330  23.212  0.00  0.00    +0.000 A 
ATOM     31  C   UNL     1      -4.255  15.710  23.219  0.00  0.00    +0.000 A 
ATOM     32  C   UNL     1      -3.266  14.779  22.906  0.00  0.00    +0.000 A 
ENDBRANCH  24  27
ENDBRANCH  18  21
ENDBRANCH   4  17
TORSDOF 4
ENDMDL
MODEL 6
REMARK VINA RESULT:      -9.0      1.487      1.821
REMARK  Name = 
REMARK  6 active torsions:
REMARK  status: ('A' for Active; 'I' for Inactive)
REMARK    1  A    between atoms: C_1  and  N_2
REMARK    2  A    between atoms: C_6  and  C_7
REMARK    3  A    between atoms: C_6  and  C_8
REMARK    4  A    between atoms: C_11  and  N_12
REMARK    5  A    between atoms: C_13  and  C_15
REMARK    6  A    between atoms: C_18  and  C_19
REMARK                            x       y       z     vdW  Elec       q    Type
REMARK                         _______ _______ _______ _____ _____    ______ ____
ROOT
ATOM      1  C   UNL     1       3.610   4.863  18.678  0.00  0.00    +0.000 A 
ATOM      2  C   UNL     1       2.846   4.638  19.828  0.00  0.00    +0.000 A 
ATOM      3  C   UNL     1       2.147   5.669  20.443  0.00  0.00    +0.000 A 
ATOM      4  C   UNL     1       2.162   6.965  19.933  0.00  0.00    +0.000 A 
ATOM      5  C   UNL     1       2.908   7.210  18.776  0.00  0.00    +0.000 A 
ATOM      6  C   UNL     1       3.623   6.170  18.154  0.00  0.00    +0.000 A 
ENDROOT
BRANCH   1  12
ATOM      7  C   UNL     1       6.983   5.755  16.174  0.00  0.00    +0.000 C 
ATOM      8  N   UNL     1       6.325   4.800  17.026  0.00  0.00    +0.000 N 
ATOM      9  C   UNL     1       6.731   4.457  18.277  0.00  0.00    +0.000 C 
ATOM     10  O   UNL     1       7.737   4.810  18.868  0.00  0.00    +0.000 OA
ATOM     11  N   UNL     1       5.764   3.645  18.839  0.00  0.00    +0.000 N 
ATOM     12  C   UNL     1       4.513   3.759  18.110  0.00  0.00    +0.000 C 
ATOM     13  C   UNL     1       3.828   2.405  18.012  0.00  0.00    +0.000 C 
ATOM     14  C   UNL     1       5.086   4.274  16.768  0.00  0.00    +0.000 C 
ATOM     15  O   UNL     1       4.480   4.337  15.704  0.00  0.00    +0.000 OA
ATOM     16  H   UNL     1       5.818   3.455  19.830  0.00  0.00    +0.000 HD
ENDBRANCH   1  12
BRANCH   4  17
ATOM     17  N   UNL     1       1.466   8.032  20.548  0.00  0.00    +0.000 N 
ATOM     18  C   UNL     1       1.000   9.156  19.887  0.00  0.00    +0.000 C 
ATOM     19  O   UNL     1       1.099   9.389  18.681  0.00  0.00    +0.000 OA
ATOM     20  H   UNL     1       1.276   7.939  21.535  0.00  0.00    +0.000 HD
BRANCH  18  21
ATOM     21  C   UNL     1       0.302  10.190  20.684  0.00  0.00    +0.000 A 
ATOM     22  C   UNL     1      -0.226  11.360  20.142  0.00  0.00    +0.000 A 
ATOM     23  C   UNL     1      -0.945  12.240  20.968  0.00  0.00    +0.000 A 
ATOM     24  C   UNL     1      -1.165  11.965  22.333  0.00  0.00    +0.000 A 
ATOM     25  C   UNL     1      -0.637  10.767  22.841  0.00  0.00    +0.000 A 
ATOM     26  C   UNL     1       0.095   9.900  22.037  0.00  0.00    +0.000 A 
BRANCH  24  27
ATOM     27  C   UNL     1      -1.930  12.877  23.215  0.00  0.00    +0.000 A 
ATOM     28  C   UNL     1      -3.263  12.622  23.573  0.00  0.00    +0.000 A 
ATOM     29  C   UNL     1      -3.965  13.485  24.423  0.00  0.00    +0.000 A 
ATOM     30  C   UNL     1      -3.342  14.615  24.942  0.00  0.00    +0.000 A 
ATOM     31  C   UNL     1      -2.022  14.889  24.608  0.00  0.00    +0.000 A 
ATOM     32  C   UNL     1      -1.331  14.037  23.748  0.00  0.00    +0.000 A 
ENDBRANCH  24  27
ENDBRANCH  18  21
ENDBRANCH   4  17
TORSDOF 4
ENDMDL
MODEL 7
REMARK VINA RESULT:      -9.0      1.042      1.118
REMARK  Name = 
REMARK  6 active torsions:
REMARK  status: ('A' for Active; 'I' for Inactive)
REMARK    1  A    between atoms: C_1  and  N_2
REMARK    2  A    between atoms: C_6  and  C_7
REMARK    3  A    between atoms: C_6  and  C_8
REMARK    4  A    between atoms: C_11  and  N_12
REMARK    5  A    between atoms: C_13  and  C_15
REMARK    6  A    between atoms: C_18  and  C_19
REMARK                            x       y       z     vdW  Elec       q    Type
REMARK                         _______ _______ _______ _____ _____    ______ ____
ROOT
ATOM      1  C   UNL     1       4.003   6.022  18.227  0.00  0.00    +0.000 A 
ATOM      2  C   UNL     1       3.384   5.758  19.454  0.00  0.00    +0.000 A 
ATOM      3  C   UNL     1       2.442   6.629  19.989  0.00  0.00    +0.000 A 
ATOM      4  C   UNL     1       2.061   7.789  19.321  0.00  0.00    +0.000 A 
ATOM      5  C   UNL     1       2.656   8.066  18.087  0.00  0.00    +0.000 A 
ATOM      6  C   UNL     1       3.615   7.192  17.545  0.00  0.00    +0.000 A 
ENDROOT
BRANCH   1  12
ATOM      7  C   UNL     1       8.046   7.465  18.118  0.00  0.00    +0.000 C 
ATOM      8  N   UNL     1       7.165   6.328  18.110  0.00  0.00    +0.000 N 
ATOM      9  C   UNL     1       6.988   5.466  19.146  0.00  0.00    +0.000 C 
ATOM     10  O   UNL     1       7.579   5.436  20.212  0.00  0.00    +0.000 OA
ATOM     11  N   UNL     1       5.951   4.610  18.826  0.00  0.00    +0.000 N 
ATOM     12  C   UNL     1       5.163   5.147  17.732  0.00  0.00    +0.000 C 
ATOM     13  C   UNL     1       4.725   4.033  16.794  0.00  0.00    +0.000 C 
ATOM     14  C   UNL     1       6.232   6.092  17.133  0.00  0.00    +0.000 C 
ATOM     15  O   UNL     1       6.172   6.646  16.041  0.00  0.00    +0.000 OA
ATOM     16  H   UNL     1       5.567   4.032  19.561  0.00  0.00    +0.000 HD
ENDBRANCH   1  12
BRANCH   4  17
ATOM     17  N   UNL     1       1.112   8.694  19.852  0.00  0.00    +0.000 N 
ATOM     18  C   UNL     1       0.963  10.010  19.447  0.00  0.00    +0.000 C 
ATOM     19  O   UNL     1       1.608  10.581  18.565  0.00  0.00    +0.000 OA
ATOM     20  H   UNL     1       0.484   8.333  20.554  0.00  0.00    +0.000 HD
BRANCH  18  21
ATOM     21  C   UNL     1      -0.071  10.829  20.117  0.00  0.00    +0.000 A 
ATOM     22  C   UNL     1      -1.052  11.549  19.436  0.00  0.00    +0.000 A 
ATOM     23  C   UNL     1      -2.041  12.228  20.164  0.00  0.00    +0.000 A 
ATOM     24  C   UNL     1      -2.084  12.190  21.573  0.00  0.00    +0.000 A 
ATOM     25  C   UNL     1      -1.093  11.440  22.226  0.00  0.00    +0.000 A 
ATOM     26  C   UNL     1      -0.096  10.782  21.515  0.00  0.00    +0.000 A 
BRANCH  24  27
ATOM     27  C   UNL     1      -3.126  12.893  22.356  0.00  0.00    +0.000 A 
ATOM     28  C   UNL     1      -3.511  12.464  23.636  0.00  0.00    +0.000 A 
ATOM     29  C   UNL     1      -4.485  13.151  24.371  0.00  0.00    +0.000 A 
ATOM     30  C   UNL     1      -5.085  14.289  23.843  0.00  0.00    +0.000 A 
ATOM     31  C   UNL     1      -4.720  14.739  22.581  0.00  0.00    +0.000 A 
ATOM     32  C   UNL     1      -3.762  14.043  21.845  0.00  0.00    +0.000 A 
ENDBRANCH  24  27
ENDBRANCH  18  21
ENDBRANCH   4  17
TORSDOF 4
ENDMDL
MODEL 8
REMARK VINA RESULT:      -9.0      1.456      2.584
REMARK  Name = 
REMARK  6 active torsions:
REMARK  status: ('A' for Active; 'I' for Inactive)
REMARK    1  A    between atoms: C_1  and  N_2
REMARK    2  A    between atoms: C_6  and  C_7
REMARK    3  A    between atoms: C_6  and  C_8
REMARK    4  A    between atoms: C_11  and  N_12
REMARK    5  A    between atoms: C_13  and  C_15
REMARK    6  A    between atoms: C_18  and  C_19
REMARK                            x       y       z     vdW  Elec       q    Type
REMARK                         _______ _______ _______ _____ _____    ______ ____
ROOT
ATOM      1  C   UNL     1       3.710   6.177  18.236  0.00  0.00    +0.000 A 
ATOM      2  C   UNL     1       3.441   7.397  17.606  0.00  0.00    +0.000 A 
ATOM      3  C   UNL     1       2.530   8.300  18.140  0.00  0.00    +0.000 A 
ATOM      4  C   UNL     1       1.859   8.038  19.331  0.00  0.00    +0.000 A 
ATOM      5  C   UNL     1       2.122   6.831  19.986  0.00  0.00    +0.000 A 
ATOM      6  C   UNL     1       3.039   5.912  19.445  0.00  0.00    +0.000 A 
ENDROOT
BRANCH   1  12
ATOM      7  C   UNL     1       4.391   2.317  19.989  0.00  0.00    +0.000 C 
ATOM      8  N   UNL     1       4.422   3.131  18.804  0.00  0.00    +0.000 N 
ATOM      9  C   UNL     1       3.544   3.043  17.770  0.00  0.00    +0.000 C 
ATOM     10  O   UNL     1       2.646   2.235  17.608  0.00  0.00    +0.000 OA
ATOM     11  N   UNL     1       3.791   4.089  16.901  0.00  0.00    +0.000 N 
ATOM     12  C   UNL     1       4.584   5.118  17.550  0.00  0.00    +0.000 C 
ATOM     13  C   UNL     1       5.596   5.703  16.578  0.00  0.00    +0.000 C 
ATOM     14  C   UNL     1       5.211   4.243  18.663  0.00  0.00    +0.000 C 
ATOM     15  O   UNL     1       6.149   4.562  19.385  0.00  0.00    +0.000 OA
ATOM     16  H   UNL     1       3.109   4.281  16.180  0.00  0.00    +0.000 HD
ENDBRANCH   1  12
BRANCH   4  17
ATOM     17  N   UNL     1       0.920   8.938  19.887  0.00  0.00    +0.000 N 
ATOM     18  C   UNL     1       0.857   9.288  21.226  0.00  0.00    +0.000 C 
ATOM     19  O   UNL     1       1.608   8.893  22.121  0.00  0.00    +0.000 OA
ATOM     20  H   UNL     1       0.274   9.372  19.246  0.00  0.00    +0.000 HD
BRANCH  18  21
ATOM     21  C   UNL     1      -0.199  10.234  21.647  0.00  0.00    +0.000 A 
ATOM     22  C   UNL     1      -0.676  10.332  22.954  0.00  0.00    +0.000 A 
ATOM     23  C   UNL     1      -1.621  11.321  23.272  0.00  0.00    +0.000 A 
ATOM     24  C   UNL     1      -2.092  12.236  22.308  0.00  0.00    +0.000 A 
ATOM     25  C   UNL     1      -1.575  12.122  21.007  0.00  0.00    +0.000 A 
ATOM     26  C   UNL     1      -0.655  11.133  20.677  0.00  0.00    +0.000 A 
BRANCH  24  27
ATOM     27  C   UNL     1      -3.080  13.291  22.629  0.00  0.00    +0.000 A 
ATOM     28  C   UNL     1      -3.147  13.888  23.897  0.00  0.00    +0.000 A 
ATOM     29  C   UNL     1      -4.075  14.897  24.179  0.00  0.00    +0.000 A 
ATOM     30  C   UNL     1      -4.948  15.339  23.190  0.00  0.00    +0.000 A 
ATOM     31  C   UNL     1      -4.901  14.770  21.924  0.00  0.00    +0.000 A 
ATOM     32  C   UNL     1      -3.987  13.753  21.652  0.00  0.00    +0.000 A 
ENDBRANCH  24  27
ENDBRANCH  18  21
ENDBRANCH   4  17
TORSDOF 4
ENDMDL
MODEL 9
REMARK VINA RESULT:      -8.8      1.844      2.735
REMARK  Name = 
REMARK  6 active torsions:
REMARK  status: ('A' for Active; 'I' for Inactive)
REMARK    1  A    between atoms: C_1  and  N_2
REMARK    2  A    between atoms: C_6  and  C_7
REMARK    3  A    between atoms: C_6  and  C_8
REMARK    4  A    between atoms: C_11  and  N_12
REMARK    5  A    between atoms: C_13  and  C_15
REMARK    6  A    between atoms: C_18  and  C_19
REMARK                            x       y       z     vdW  Elec       q    Type
REMARK                         _______ _______ _______ _____ _____    ______ ____
ROOT
ATOM      1  C   UNL     1       3.419   6.048  18.141  0.00  0.00    +0.000 A 
ATOM      2  C   UNL     1       2.843   5.817  19.395  0.00  0.00    +0.000 A 
ATOM      3  C   UNL     1       2.129   6.810  20.055  0.00  0.00    +0.000 A 
ATOM      4  C   UNL     1       1.941   8.068  19.492  0.00  0.00    +0.000 A 
ATOM      5  C   UNL     1       2.496   8.318  18.233  0.00  0.00    +0.000 A 
ATOM      6  C   UNL     1       3.225   7.318  17.565  0.00  0.00    +0.000 A 
ENDROOT
BRANCH   1  12
ATOM      7  C   UNL     1       4.324   2.325  20.080  0.00  0.00    +0.000 C 
ATOM      8  N   UNL     1       4.303   3.079  18.856  0.00  0.00    +0.000 N 
ATOM      9  C   UNL     1       3.428   2.890  17.833  0.00  0.00    +0.000 C 
ATOM     10  O   UNL     1       2.576   2.026  17.719  0.00  0.00    +0.000 OA
ATOM     11  N   UNL     1       3.611   3.903  16.912  0.00  0.00    +0.000 N 
ATOM     12  C   UNL     1       4.348   5.006  17.503  0.00  0.00    +0.000 C 
ATOM     13  C   UNL     1       5.322   5.597  16.496  0.00  0.00    +0.000 C 
ATOM     14  C   UNL     1       5.028   4.226  18.654  0.00  0.00    +0.000 C 
ATOM     15  O   UNL     1       5.949   4.632  19.352  0.00  0.00    +0.000 OA
ATOM     16  H   UNL     1       2.917   4.020  16.187  0.00  0.00    +0.000 HD
ENDBRANCH   1  12
BRANCH   4  17
ATOM     17  N   UNL     1       1.226   9.097  20.151  0.00  0.00    +0.000 N 
ATOM     18  C   UNL     1       0.259   9.891  19.558  0.00  0.00    +0.000 C 
ATOM     19  O   UNL     1      -0.138   9.814  18.393  0.00  0.00    +0.000 OA
ATOM     20  H   UNL     1       1.425   9.230  21.131  0.00  0.00    +0.000 HD
BRANCH  18  21
ATOM     21  C   UNL     1      -0.385  10.935  20.386  0.00  0.00    +0.000 A 
ATOM     22  C   UNL     1      -1.232  11.916  19.875  0.00  0.00    +0.000 A 
ATOM     23  C   UNL     1      -1.862  12.812  20.755  0.00  0.00    +0.000 A 
ATOM     24  C   UNL     1      -1.675  12.736  22.151  0.00  0.00    +0.000 A 
ATOM     25  C   UNL     1      -0.831  11.722  22.633  0.00  0.00    +0.000 A 
ATOM     26  C   UNL     1      -0.186  10.845  21.768  0.00  0.00    +0.000 A 
BRANCH  24  27
ATOM     27  C   UNL     1      -2.339  13.666  23.093  0.00  0.00    +0.000 A 
ATOM     28  C   UNL     1      -3.725  13.887  23.069  0.00  0.00    +0.000 A 
ATOM     29  C   UNL     1      -4.339  14.755  23.979  0.00  0.00    +0.000 A 
ATOM     30  C   UNL     1      -3.579  15.411  24.942  0.00  0.00    +0.000 A 
ATOM     31  C   UNL     1      -2.206  15.206  24.993  0.00  0.00    +0.000 A 
ATOM     32  C   UNL     1      -1.595  14.354  24.074  0.00  0.00    +0.000 A 
ENDBRANCH  24  27
ENDBRANCH  18  21
ENDBRANCH   4  17
TORSDOF 4
ENDMDL
