MODEL 1
REMARK VINA RESULT:      -8.7      0.000      0.000
REMARK  Name = 
REMARK  5 active torsions:
REMARK  status: ('A' for Active; 'I' for Inactive)
REMARK    1  A    between atoms: C_1  and  C_2
REMARK    2  A    between atoms: C_5  and  C_6
REMARK    3  A    between atoms: C_9  and  N_10
REMARK    4  A    between atoms: C_11  and  C_13
REMARK    5  A    between atoms: C_13  and  C_14
REMARK                            x       y       z     vdW  Elec       q    Type
REMARK                         _______ _______ _______ _____ _____    ______ ____
ROOT
ATOM      1  N   UNL     1       3.236   5.932  17.555  0.00  0.00    +0.000 N 
ATOM      2  C   UNL     1       4.126   4.890  17.761  0.00  0.00    +0.000 C 
ATOM      3  O   UNL     1       4.605   4.552  18.850  0.00  0.00    +0.000 OA
ATOM      4  H   UNL     1       3.055   6.188  16.593  0.00  0.00    +0.000 HD
ENDROOT
BRANCH   1   8
ATOM      5  C   UNL     1       1.290   8.389  20.422  0.00  0.00    +0.000 A 
ATOM      6  C   UNL     1       1.593   7.054  20.726  0.00  0.00    +0.000 A 
ATOM      7  C   UNL     1       2.230   6.223  19.796  0.00  0.00    +0.000 A 
ATOM      8  C   UNL     1       2.583   6.716  18.539  0.00  0.00    +0.000 A 
ATOM      9  C   UNL     1       2.257   8.027  18.216  0.00  0.00    +0.000 A 
ATOM     10  C   UNL     1       1.616   8.863  19.152  0.00  0.00    +0.000 A 
BRANCH   5  15
ATOM     11  C   UNL     1      -1.572  11.929  22.072  0.00  0.00    +0.000 C 
ATOM     12  C   UNL     1      -0.613  10.811  22.188  0.00  0.00    +0.000 A 
ATOM     13  N   UNL     1      -0.092  10.295  23.277  0.00  0.00    +0.000 NA
ATOM     14  C   UNL     1       0.717   9.302  22.812  0.00  0.00    +0.000 A 
ATOM     15  C   UNL     1       0.663   9.229  21.433  0.00  0.00    +0.000 A 
ATOM     16  O   UNL     1      -0.197  10.219  21.016  0.00  0.00    +0.000 OA
ENDBRANCH   5  15
ENDBRANCH   1   8
BRANCH   2  17
ATOM     17  C   UNL     1       4.438   4.112  16.500  0.00  0.00    +0.000 C 
BRANCH  17  18
ATOM     18  C   UNL     1       5.713   4.492  15.823  0.00  0.00    +0.000 A 
ATOM     19  C   UNL     1       6.598   5.453  16.288  0.00  0.00    +0.000 A 
ATOM     20  N   UNL     1       7.638   5.509  15.403  0.00  0.00    +0.000 N 
ATOM     21  C   UNL     1       7.216   5.002  14.201  0.00  0.00    +0.000 A 
ATOM     22  C   UNL     1       7.675   5.223  12.900  0.00  0.00    +0.000 A 
ATOM     23  C   UNL     1       7.116   4.440  11.889  0.00  0.00    +0.000 A 
ATOM     24  C   UNL     1       6.224   3.414  12.195  0.00  0.00    +0.000 A 
ATOM     25  C   UNL     1       5.743   3.242  13.501  0.00  0.00    +0.000 A 
ATOM     26  C   UNL     1       6.171   4.130  14.508  0.00  0.00    +0.000 A 
ATOM     27  H   UNL     1       8.539   5.938  15.569  0.00  0.00    +0.000 HD
ENDBRANCH  17  18
ENDBRANCH   2  17
TORSDOF 4
ENDMDL
MODEL 2
REMARK VINA RESULT:      -8.4      2.479      3.179
REMARK  Name = 
REMARK  5 active torsions:
REMARK  status: ('A' for Active; 'I' for Inactive)
REMARK    1  A    between atoms: C_1  and  C_2
REMARK    2  A    between atoms: C_5  and  C_6
REMARK    3  A    between atoms: C_9  and  N_10
REMARK    4  A    between atoms: C_11  and  C_13
REMARK    5  A    between atoms: C_13  and  C_14
REMARK                            x       y       z     vdW  Elec       q    Type
REMARK                         _______ _______ _______ _____ _____    ______ ____
ROOT
ATOM      1  N   UNL     1       2.855   6.057  19.212  0.00  0.00    +0.000 N 
ATOM      2  C   UNL     1       2.506   4.929  18.486  0.00  0.00    +0.000 C 
ATOM      3  O   UNL     1       1.572   4.848  17.679  0.00  0.00    +0.000 OA
ATOM      4  H   UNL     1       3.541   5.928  19.946  0.00  0.00    +0.000 HD
ENDROOT
BRANCH   1   8
ATOM      5  C   UNL     1       1.213   9.965  18.936  0.00  0.00    +0.000 A 
ATOM      6  C   UNL     1       1.920   9.418  17.855  0.00  0.00    +0.000 A 
ATOM      7  C   UNL     1       2.474   8.134  17.924  0.00  0.00    +0.000 A 
ATOM      8  C   UNL     1       2.327   7.365  19.079  0.00  0.00    +0.000 A 
ATOM      9  C   UNL     1       1.657   7.910  20.167  0.00  0.00    +0.000 A 
ATOM     10  C   UNL     1       1.100   9.202  20.098  0.00  0.00    +0.000 A 
BRANCH   5  15
ATOM     11  C   UNL     1       1.187  14.806  18.839  0.00  0.00    +0.000 C 
ATOM     12  C   UNL     1       0.591  13.456  18.763  0.00  0.00    +0.000 A 
ATOM     13  N   UNL     1      -0.662  13.131  18.545  0.00  0.00    +0.000 NA
ATOM     14  C   UNL     1      -0.655  11.769  18.577  0.00  0.00    +0.000 A 
ATOM     15  C   UNL     1       0.620  11.288  18.808  0.00  0.00    +0.000 A 
ATOM     16  O   UNL     1       1.440  12.386  18.940  0.00  0.00    +0.000 OA
ENDBRANCH   5  15
ENDBRANCH   1   8
BRANCH   2  17
ATOM     17  C   UNL     1       3.440   3.759  18.713  0.00  0.00    +0.000 C 
BRANCH  17  18
ATOM     18  C   UNL     1       4.848   3.981  18.271  0.00  0.00    +0.000 A 
ATOM     19  C   UNL     1       5.885   4.374  19.104  0.00  0.00    +0.000 A 
ATOM     20  N   UNL     1       7.012   4.465  18.335  0.00  0.00    +0.000 N 
ATOM     21  C   UNL     1       6.634   4.620  17.026  0.00  0.00    +0.000 A 
ATOM     22  C   UNL     1       7.304   5.190  15.939  0.00  0.00    +0.000 A 
ATOM     23  C   UNL     1       6.699   5.070  14.687  0.00  0.00    +0.000 A 
ATOM     24  C   UNL     1       5.536   4.318  14.529  0.00  0.00    +0.000 A 
ATOM     25  C   UNL     1       4.857   3.796  15.640  0.00  0.00    +0.000 A 
ATOM     26  C   UNL     1       5.365   4.048  16.929  0.00  0.00    +0.000 A 
ATOM     27  H   UNL     1       7.963   4.508  18.675  0.00  0.00    +0.000 HD
ENDBRANCH  17  18
ENDBRANCH   2  17
TORSDOF 4
ENDMDL
MODEL 3
REMARK VINA RESULT:      -8.4      2.455      3.136
REMARK  Name = 
REMARK  5 active torsions:
REMARK  status: ('A' for Active; 'I' for Inactive)
REMARK    1  A    between atoms: C_1  and  C_2
REMARK    2  A    between atoms: C_5  and  C_6
REMARK    3  A    between atoms: C_9  and  N_10
REMARK    4  A    between atoms: C_11  and  C_13
REMARK    5  A    between atoms: C_13  and  C_14
REMARK                            x       y       z     vdW  Elec       q    Type
REMARK                         _______ _______ _______ _____ _____    ______ ____
ROOT
ATOM      1  N   UNL     1       3.024   6.303  19.815  0.00  0.00    +0.000 N 
ATOM      2  C   UNL     1       2.912   5.090  19.153  0.00  0.00    +0.000 C 
ATOM      3  O   UNL     1       2.040   4.795  18.327  0.00  0.00    +0.000 OA
ATOM      4  H   UNL     1       3.693   6.343  20.575  0.00  0.00    +0.000 HD
ENDROOT
BRANCH   1   8
ATOM      5  C   UNL     1       0.838   9.852  18.997  0.00  0.00    +0.000 A 
ATOM      6  C   UNL     1       0.797   9.276  20.276  0.00  0.00    +0.000 A 
ATOM      7  C   UNL     1       1.506   8.104  20.567  0.00  0.00    +0.000 A 
ATOM      8  C   UNL     1       2.277   7.485  19.584  0.00  0.00    +0.000 A 
ATOM      9  C   UNL     1       2.298   8.028  18.306  0.00  0.00    +0.000 A 
ATOM     10  C   UNL     1       1.585   9.208  18.011  0.00  0.00    +0.000 A 
BRANCH   5  15
ATOM     11  C   UNL     1       0.233  14.652  18.827  0.00  0.00    +0.000 C 
ATOM     12  C   UNL     1      -0.170  13.240  18.667  0.00  0.00    +0.000 A 
ATOM     13  N   UNL     1      -1.316  12.764  18.238  0.00  0.00    +0.000 NA
ATOM     14  C   UNL     1      -1.146  11.413  18.290  0.00  0.00    +0.000 A 
ATOM     15  C   UNL     1       0.118  11.092  18.747  0.00  0.00    +0.000 A 
ATOM     16  O   UNL     1       0.760  12.282  19.006  0.00  0.00    +0.000 OA
ENDBRANCH   5  15
ENDBRANCH   1   8
BRANCH   2  17
ATOM     17  C   UNL     1       4.030   4.124  19.481  0.00  0.00    +0.000 C 
BRANCH  17  18
ATOM     18  C   UNL     1       5.324   4.399  18.790  0.00  0.00    +0.000 A 
ATOM     19  C   UNL     1       6.414   5.027  19.373  0.00  0.00    +0.000 A 
ATOM     20  N   UNL     1       7.401   5.089  18.429  0.00  0.00    +0.000 N 
ATOM     21  C   UNL     1       6.826   4.978  17.190  0.00  0.00    +0.000 A 
ATOM     22  C   UNL     1       7.261   5.410  15.934  0.00  0.00    +0.000 A 
ATOM     23  C   UNL     1       6.503   5.016  14.830  0.00  0.00    +0.000 A 
ATOM     24  C   UNL     1       5.428   4.141  14.980  0.00  0.00    +0.000 A 
ATOM     25  C   UNL     1       4.982   3.760  16.254  0.00  0.00    +0.000 A 
ATOM     26  C   UNL     1       5.634   4.279  17.389  0.00  0.00    +0.000 A 
ATOM     27  H   UNL     1       8.379   5.281  18.602  0.00  0.00    +0.000 HD
ENDBRANCH  17  18
ENDBRANCH   2  17
TORSDOF 4
ENDMDL
MODEL 4
REMARK VINA RESULT:      -8.3      2.907      4.966
REMARK  Name = 
REMARK  5 active torsions:
REMARK  status: ('A' for Active; 'I' for Inactive)
REMARK    1  A    between atoms: C_1  and  C_2
REMARK    2  A    between atoms: C_5  and  C_6
REMARK    3  A    between atoms: C_9  and  N_10
REMARK    4  A    between atoms: C_11  and  C_13
REMARK    5  A    between atoms: C_13  and  C_14
REMARK                            x       y       z     vdW  Elec       q    Type
REMARK                         _______ _______ _______ _____ _____    ______ ____
ROOT
ATOM      1  N   UNL     1       2.993   6.074  17.934  0.00  0.00    +0.000 N 
ATOM      2  C   UNL     1       4.345   5.834  17.740  0.00  0.00    +0.000 C 
ATOM      3  O   UNL     1       5.256   6.652  17.914  0.00  0.00    +0.000 OA
ATOM      4  H   UNL     1       2.356   5.361  17.602  0.00  0.00    +0.000 HD
ENDROOT
BRANCH   1   8
ATOM      5  C   UNL     1       1.182   9.461  19.749  0.00  0.00    +0.000 A 
ATOM      6  C   UNL     1       1.502   9.478  18.383  0.00  0.00    +0.000 A 
ATOM      7  C   UNL     1       2.104   8.376  17.764  0.00  0.00    +0.000 A 
ATOM      8  C   UNL     1       2.394   7.227  18.500  0.00  0.00    +0.000 A 
ATOM      9  C   UNL     1       2.112   7.212  19.860  0.00  0.00    +0.000 A 
ATOM     10  C   UNL     1       1.506   8.321  20.484  0.00  0.00    +0.000 A 
BRANCH   5  15
ATOM     11  C   UNL     1      -1.554  11.804  22.984  0.00  0.00    +0.000 C 
ATOM     12  C   UNL     1      -0.702  11.678  21.783  0.00  0.00    +0.000 A 
ATOM     13  N   UNL     1      -0.326  12.620  20.949  0.00  0.00    +0.000 NA
ATOM     14  C   UNL     1       0.440  11.959  20.036  0.00  0.00    +0.000 A 
ATOM     15  C   UNL     1       0.522  10.614  20.344  0.00  0.00    +0.000 A 
ATOM     16  O   UNL     1      -0.231  10.420  21.480  0.00  0.00    +0.000 OA
ENDBRANCH   5  15
ENDBRANCH   1   8
BRANCH   2  17
ATOM     17  C   UNL     1       4.648   4.405  17.344  0.00  0.00    +0.000 C 
BRANCH  17  18
ATOM     18  C   UNL     1       3.657   3.396  17.818  0.00  0.00    +0.000 A 
ATOM     19  C   UNL     1       2.904   2.578  16.989  0.00  0.00    +0.000 A 
ATOM     20  N   UNL     1       2.122   1.794  17.791  0.00  0.00    +0.000 N 
ATOM     21  C   UNL     1       1.999   2.406  19.012  0.00  0.00    +0.000 A 
ATOM     22  C   UNL     1       1.011   2.303  19.995  0.00  0.00    +0.000 A 
ATOM     23  C   UNL     1       1.248   2.961  21.203  0.00  0.00    +0.000 A 
ATOM     24  C   UNL     1       2.466   3.594  21.442  0.00  0.00    +0.000 A 
ATOM     25  C   UNL     1       3.422   3.725  20.424  0.00  0.00    +0.000 A 
ATOM     26  C   UNL     1       3.132   3.210  19.146  0.00  0.00    +0.000 A 
ATOM     27  H   UNL     1       1.636   0.953  17.511  0.00  0.00    +0.000 HD
ENDBRANCH  17  18
ENDBRANCH   2  17
TORSDOF 4
ENDMDL
MODEL 5
REMARK VINA RESULT:      -8.3      2.238      3.038
REMARK  Name = 
REMARK  5 active torsions:
REMARK  status: ('A' for Active; 'I' for Inactive)
REMARK    1  A    between atoms: C_1  and  C_2
REMARK    2  A    between atoms: C_5  and  C_6
REMARK    3  A    between atoms: C_9  and  N_10
REMARK    4  A    between atoms: C_11  and  C_13
REMARK    5  A    between atoms: C_13  and  C_14
REMARK                            x       y       z     vdW  Elec       q    Type
REMARK                         _______ _______ _______ _____ _____    ______ ____
ROOT
ATOM      1  N   UNL     1       3.098   6.278  19.765  0.00  0.00    +0.000 N 
ATOM      2  C   UNL     1       2.878   5.008  19.257  0.00  0.00    +0.000 C 
ATOM      3  O   UNL     1       1.872   4.641  18.637  0.00  0.00    +0.000 OA
ATOM      4  H   UNL     1       3.894   6.386  20.382  0.00  0.00    +0.000 HD
ENDROOT
BRANCH   1   8
ATOM      5  C   UNL     1       0.685   9.740  19.278  0.00  0.00    +0.000 A 
ATOM      6  C   UNL     1       1.449   9.255  18.206  0.00  0.00    +0.000 A 
ATOM      7  C   UNL     1       2.255   8.118  18.344  0.00  0.00    +0.000 A 
ATOM      8  C   UNL     1       2.310   7.438  19.561  0.00  0.00    +0.000 A 
ATOM      9  C   UNL     1       1.584   7.930  20.638  0.00  0.00    +0.000 A 
ATOM     10  C   UNL     1       0.772   9.073  20.499  0.00  0.00    +0.000 A 
BRANCH   5  15
ATOM     11  C   UNL     1      -3.489  12.190  19.188  0.00  0.00    +0.000 C 
ATOM     12  C   UNL     1      -2.031  12.013  19.033  0.00  0.00    +0.000 A 
ATOM     13  N   UNL     1      -1.136  12.904  18.672  0.00  0.00    +0.000 NA
ATOM     14  C   UNL     1       0.038  12.213  18.693  0.00  0.00    +0.000 A 
ATOM     15  C   UNL     1      -0.169  10.901  19.080  0.00  0.00    +0.000 A 
ATOM     16  O   UNL     1      -1.521  10.760  19.295  0.00  0.00    +0.000 OA
ENDBRANCH   5  15
ENDBRANCH   1   8
BRANCH   2  17
ATOM     17  C   UNL     1       4.046   4.068  19.467  0.00  0.00    +0.000 C 
BRANCH  17  18
ATOM     18  C   UNL     1       5.302   4.454  18.759  0.00  0.00    +0.000 A 
ATOM     19  C   UNL     1       6.324   5.206  19.317  0.00  0.00    +0.000 A 
ATOM     20  N   UNL     1       7.295   5.344  18.365  0.00  0.00    +0.000 N 
ATOM     21  C   UNL     1       6.728   5.140  17.133  0.00  0.00    +0.000 A 
ATOM     22  C   UNL     1       7.111   5.581  15.863  0.00  0.00    +0.000 A 
ATOM     23  C   UNL     1       6.391   5.082  14.775  0.00  0.00    +0.000 A 
ATOM     24  C   UNL     1       5.413   4.107  14.957  0.00  0.00    +0.000 A 
ATOM     25  C   UNL     1       5.014   3.716  16.243  0.00  0.00    +0.000 A 
ATOM     26  C   UNL     1       5.615   4.330  17.360  0.00  0.00    +0.000 A 
ATOM     27  H   UNL     1       8.249   5.638  18.524  0.00  0.00    +0.000 HD
ENDBRANCH  17  18
ENDBRANCH   2  17
TORSDOF 4
ENDMDL
MODEL 6
REMARK VINA RESULT:      -8.2      3.045      3.766
REMARK  Name = 
REMARK  5 active torsions:
REMARK  status: ('A' for Active; 'I' for Inactive)
REMARK    1  A    between atoms: C_1  and  C_2
REMARK    2  A    between atoms: C_5  and  C_6
REMARK    3  A    between atoms: C_9  and  N_10
REMARK    4  A    between atoms: C_11  and  C_13
REMARK    5  A    between atoms: C_13  and  C_14
REMARK                            x       y       z     vdW  Elec       q    Type
REMARK                         _______ _______ _______ _____ _____    ______ ____
ROOT
ATOM      1  N   UNL     1       2.179   7.668  18.898  0.00  0.00    +0.000 N 
ATOM      2  C   UNL     1       2.297   6.308  19.141  0.00  0.00    +0.000 C 
ATOM      3  O   UNL     1       1.905   5.718  20.155  0.00  0.00    +0.000 OA
ATOM      4  H   UNL     1       2.684   8.029  18.098  0.00  0.00    +0.000 HD
ENDROOT
BRANCH   1   8
ATOM      5  C   UNL     1       0.060  10.619  21.100  0.00  0.00    +0.000 A 
ATOM      6  C   UNL     1       0.460   9.426  21.720  0.00  0.00    +0.000 A 
ATOM      7  C   UNL     1       1.155   8.436  21.014  0.00  0.00    +0.000 A 
ATOM      8  C   UNL     1       1.471   8.624  19.668  0.00  0.00    +0.000 A 
ATOM      9  C   UNL     1       1.051   9.787  19.036  0.00  0.00    +0.000 A 
ATOM     10  C   UNL     1       0.352  10.783  19.746  0.00  0.00    +0.000 A 
BRANCH   5  15
ATOM     11  C   UNL     1      -3.439  12.408  23.926  0.00  0.00    +0.000 C 
ATOM     12  C   UNL     1      -2.186  12.455  23.146  0.00  0.00    +0.000 A 
ATOM     13  N   UNL     1      -1.367  13.468  22.980  0.00  0.00    +0.000 NA
ATOM     14  C   UNL     1      -0.385  12.966  22.181  0.00  0.00    +0.000 A 
ATOM     15  C   UNL     1      -0.625  11.637  21.881  0.00  0.00    +0.000 A 
ATOM     16  O   UNL     1      -1.807  11.298  22.501  0.00  0.00    +0.000 OA
ENDBRANCH   5  15
ENDBRANCH   1   8
BRANCH   2  17
ATOM     17  C   UNL     1       2.912   5.546  17.987  0.00  0.00    +0.000 C 
BRANCH  17  18
ATOM     18  C   UNL     1       4.323   5.109  18.201  0.00  0.00    +0.000 A 
ATOM     19  C   UNL     1       4.703   3.992  18.929  0.00  0.00    +0.000 A 
ATOM     20  N   UNL     1       6.068   3.927  18.890  0.00  0.00    +0.000 N 
ATOM     21  C   UNL     1       6.556   5.175  18.601  0.00  0.00    +0.000 A 
ATOM     22  C   UNL     1       7.794   5.763  18.874  0.00  0.00    +0.000 A 
ATOM     23  C   UNL     1       8.036   7.020  18.319  0.00  0.00    +0.000 A 
ATOM     24  C   UNL     1       7.119   7.600  17.445  0.00  0.00    +0.000 A 
ATOM     25  C   UNL     1       5.864   7.014  17.223  0.00  0.00    +0.000 A 
ATOM     26  C   UNL     1       5.536   5.826  17.905  0.00  0.00    +0.000 A 
ATOM     27  H   UNL     1       6.633   3.122  19.128  0.00  0.00    +0.000 HD
ENDBRANCH  17  18
ENDBRANCH   2  17
TORSDOF 4
ENDMDL
MODEL 7
REMARK VINA RESULT:      -8.2      3.061      9.405
REMARK  Name = 
REMARK  5 active torsions:
REMARK  status: ('A' for Active; 'I' for Inactive)
REMARK    1  A    between atoms: C_1  and  C_2
REMARK    2  A    between atoms: C_5  and  C_6
REMARK    3  A    between atoms: C_9  and  N_10
REMARK    4  A    between atoms: C_11  and  C_13
REMARK    5  A    between atoms: C_13  and  C_14
REMARK                            x       y       z     vdW  Elec       q    Type
REMARK                         _______ _______ _______ _____ _____    ______ ____
ROOT
ATOM      1  N   UNL     1       1.118   8.551  19.925  0.00  0.00    +0.000 N 
ATOM      2  C   UNL     1       0.859   9.909  19.831  0.00  0.00    +0.000 C 
ATOM      3  O   UNL     1       1.543  10.735  19.215  0.00  0.00    +0.000 OA
ATOM      4  H   UNL     1       0.560   8.029  20.590  0.00  0.00    +0.000 HD
ENDROOT
BRANCH   1   8
ATOM      5  C   UNL     1       4.096   6.251  17.953  0.00  0.00    +0.000 A 
ATOM      6  C   UNL     1       3.601   7.422  17.360  0.00  0.00    +0.000 A 
ATOM      7  C   UNL     1       2.616   8.194  17.989  0.00  0.00    +0.000 A 
ATOM      8  C   UNL     1       2.108   7.811  19.231  0.00  0.00    +0.000 A 
ATOM      9  C   UNL     1       2.568   6.636  19.811  0.00  0.00    +0.000 A 
ATOM     10  C   UNL     1       3.559   5.859  19.179  0.00  0.00    +0.000 A 
BRANCH   5  15
ATOM     11  C   UNL     1       6.256   4.026  14.235  0.00  0.00    +0.000 C 
ATOM     12  C   UNL     1       6.128   4.498  15.629  0.00  0.00    +0.000 A 
ATOM     13  N   UNL     1       6.976   4.347  16.620  0.00  0.00    +0.000 NA
ATOM     14  C   UNL     1       6.366   4.969  17.667  0.00  0.00    +0.000 A 
ATOM     15  C   UNL     1       5.148   5.500  17.283  0.00  0.00    +0.000 A 
ATOM     16  O   UNL     1       4.981   5.188  15.953  0.00  0.00    +0.000 OA
ENDBRANCH   5  15
ENDBRANCH   1   8
BRANCH   2  17
ATOM     17  C   UNL     1      -0.426  10.321  20.518  0.00  0.00    +0.000 C 
BRANCH  17  18
ATOM     18  C   UNL     1      -1.351  11.143  19.684  0.00  0.00    +0.000 A 
ATOM     19  C   UNL     1      -2.064  12.240  20.143  0.00  0.00    +0.000 A 
ATOM     20  N   UNL     1      -2.789  12.723  19.089  0.00  0.00    +0.000 N 
ATOM     21  C   UNL     1      -2.934  11.722  18.164  0.00  0.00    +0.000 A 
ATOM     22  C   UNL     1      -3.903  11.516  17.179  0.00  0.00    +0.000 A 
ATOM     23  C   UNL     1      -3.692  10.458  16.293  0.00  0.00    +0.000 A 
ATOM     24  C   UNL     1      -2.510   9.721  16.334  0.00  0.00    +0.000 A 
ATOM     25  C   UNL     1      -1.575   9.915  17.361  0.00  0.00    +0.000 A 
ATOM     26  C   UNL     1      -1.848  10.867  18.362  0.00  0.00    +0.000 A 
ATOM     27  H   UNL     1      -3.229  13.632  19.036  0.00  0.00    +0.000 HD
ENDBRANCH  17  18
ENDBRANCH   2  17
TORSDOF 4
ENDMDL
MODEL 8
REMARK VINA RESULT:      -8.2      2.412      3.086
REMARK  Name = 
REMARK  5 active torsions:
REMARK  status: ('A' for Active; 'I' for Inactive)
REMARK    1  A    between atoms: C_1  and  C_2
REMARK    2  A    between atoms: C_5  and  C_6
REMARK    3  A    between atoms: C_9  and  N_10
REMARK    4  A    between atoms: C_11  and  C_13
REMARK    5  A    between atoms: C_13  and  C_14
REMARK                            x       y       z     vdW  Elec       q    Type
REMARK                         _______ _______ _______ _____ _____    ______ ____
ROOT
ATOM      1  N   UNL     1       3.316   6.238  19.813  0.00  0.00    +0.000 N 
ATOM      2  C   UNL     1       3.091   4.894  19.558  0.00  0.00    +0.000 C 
ATOM      3  O   UNL     1       2.017   4.397  19.198  0.00  0.00    +0.000 OA
ATOM      4  H   UNL     1       4.200   6.473  20.249  0.00  0.00    +0.000 HD
ENDROOT
BRANCH   1   8
ATOM      5  C   UNL     1       0.719   9.495  18.981  0.00  0.00    +0.000 A 
ATOM      6  C   UNL     1       0.770   8.943  20.270  0.00  0.00    +0.000 A 
ATOM      7  C   UNL     1       1.615   7.866  20.566  0.00  0.00    +0.000 A 
ATOM      8  C   UNL     1       2.433   7.321  19.577  0.00  0.00    +0.000 A 
ATOM      9  C   UNL     1       2.366   7.838  18.290  0.00  0.00    +0.000 A 
ATOM     10  C   UNL     1       1.516   8.922  17.991  0.00  0.00    +0.000 A 
BRANCH   5  15
ATOM     11  C   UNL     1      -3.404  11.745  17.808  0.00  0.00    +0.000 C 
ATOM     12  C   UNL     1      -1.982  11.663  18.200  0.00  0.00    +0.000 A 
ATOM     13  N   UNL     1      -1.141  12.645  18.425  0.00  0.00    +0.000 NA
ATOM     14  C   UNL     1       0.020  12.011  18.751  0.00  0.00    +0.000 A 
ATOM     15  C   UNL     1      -0.144  10.639  18.726  0.00  0.00    +0.000 A 
ATOM     16  O   UNL     1      -1.449  10.402  18.357  0.00  0.00    +0.000 OA
ENDBRANCH   5  15
ENDBRANCH   1   8
BRANCH   2  17
ATOM     17  C   UNL     1       4.335   4.042  19.694  0.00  0.00    +0.000 C 
BRANCH  17  18
ATOM     18  C   UNL     1       5.503   4.497  18.885  0.00  0.00    +0.000 A 
ATOM     19  C   UNL     1       6.525   5.306  19.357  0.00  0.00    +0.000 A 
ATOM     20  N   UNL     1       7.403   5.495  18.326  0.00  0.00    +0.000 N 
ATOM     21  C   UNL     1       6.747   5.259  17.146  0.00  0.00    +0.000 A 
ATOM     22  C   UNL     1       6.996   5.718  15.850  0.00  0.00    +0.000 A 
ATOM     23  C   UNL     1       6.216   5.179  14.825  0.00  0.00    +0.000 A 
ATOM     24  C   UNL     1       5.312   4.151  15.085  0.00  0.00    +0.000 A 
ATOM     25  C   UNL     1       5.046   3.740  16.400  0.00  0.00    +0.000 A 
ATOM     26  C   UNL     1       5.704   4.388  17.463  0.00  0.00    +0.000 A 
ATOM     27  H   UNL     1       8.349   5.843  18.406  0.00  0.00    +0.000 HD
ENDBRANCH  17  18
ENDBRANCH   2  17
TORSDOF 4
ENDMDL
MODEL 9
REMARK VINA RESULT:      -8.1      2.587      3.839
REMARK  Name = 
REMARK  5 active torsions:
REMARK  status: ('A' for Active; 'I' for Inactive)
REMARK    1  A    between atoms: C_1  and  C_2
REMARK    2  A    between atoms: C_5  and  C_6
REMARK    3  A    between atoms: C_9  and  N_10
REMARK    4  A    between atoms: C_11  and  C_13
REMARK    5  A    between atoms: C_13  and  C_14
REMARK                            x       y       z     vdW  Elec       q    Type
REMARK                         _______ _______ _______ _____ _____    ______ ____
ROOT
ATOM      1  N   UNL     1       2.498   6.567  20.498  0.00  0.00    +0.000 N 
ATOM      2  C   UNL     1       2.034   5.266  20.390  0.00  0.00    +0.000 C 
ATOM      3  O   UNL     1       0.850   4.928  20.268  0.00  0.00    +0.000 OA
ATOM      4  H   UNL     1       3.473   6.680  20.748  0.00  0.00    +0.000 HD
ENDROOT
BRANCH   1   8
ATOM      5  C   UNL     1       0.325  10.170  19.911  0.00  0.00    +0.000 A 
ATOM      6  C   UNL     1       0.275   9.508  21.147  0.00  0.00    +0.000 A 
ATOM      7  C   UNL     1       0.979   8.317  21.363  0.00  0.00    +0.000 A 
ATOM      8  C   UNL     1       1.755   7.764  20.343  0.00  0.00    +0.000 A 
ATOM      9  C   UNL     1       1.784   8.393  19.105  0.00  0.00    +0.000 A 
ATOM     10  C   UNL     1       1.077   9.592  18.888  0.00  0.00    +0.000 A 
BRANCH   5  15
ATOM     11  C   UNL     1      -0.166  14.865  18.836  0.00  0.00    +0.000 C 
ATOM     12  C   UNL     1      -0.627  13.529  19.267  0.00  0.00    +0.000 A 
ATOM     13  N   UNL     1      -1.840  13.155  19.602  0.00  0.00    +0.000 NA
ATOM     14  C   UNL     1      -1.700  11.835  19.909  0.00  0.00    +0.000 A 
ATOM     15  C   UNL     1      -0.390  11.426  19.743  0.00  0.00    +0.000 A 
ATOM     16  O   UNL     1       0.321  12.531  19.332  0.00  0.00    +0.000 OA
ENDBRANCH   5  15
ENDBRANCH   1   8
BRANCH   2  17
ATOM     17  C   UNL     1       3.142   4.235  20.365  0.00  0.00    +0.000 C 
BRANCH  17  18
ATOM     18  C   UNL     1       3.533   3.762  19.005  0.00  0.00    +0.000 A 
ATOM     19  C   UNL     1       3.740   2.436  18.658  0.00  0.00    +0.000 A 
ATOM     20  N   UNL     1       4.078   2.409  17.334  0.00  0.00    +0.000 N 
ATOM     21  C   UNL     1       4.554   3.646  16.981  0.00  0.00    +0.000 A 
ATOM     22  C   UNL     1       5.416   4.038  15.954  0.00  0.00    +0.000 A 
ATOM     23  C   UNL     1       5.602   5.409  15.771  0.00  0.00    +0.000 A 
ATOM     24  C   UNL     1       4.867   6.332  16.514  0.00  0.00    +0.000 A 
ATOM     25  C   UNL     1       4.044   5.916  17.570  0.00  0.00    +0.000 A 
ATOM     26  C   UNL     1       3.972   4.543  17.878  0.00  0.00    +0.000 A 
ATOM     27  H   UNL     1       4.071   1.596  16.734  0.00  0.00    +0.000 HD
ENDBRANCH  17  18
ENDBRANCH   2  17
TORSDOF 4
ENDMDL
