MODEL 1
REMARK VINA RESULT:      -8.8      0.000      0.000
REMARK  Name = 
REMARK  4 active torsions:
REMARK  status: ('A' for Active; 'I' for Inactive)
REMARK    1  A    between atoms: C_1  and  C_2
REMARK    2  A    between atoms: C_5  and  C_6
REMARK    3  A    between atoms: N_8  and  C_9
REMARK    4  A    between atoms: C_13  and  C_14
REMARK                            x       y       z     vdW  Elec       q    Type
REMARK                         _______ _______ _______ _____ _____    ______ ____
ROOT
ATOM      1  C   UNL     1       1.908   5.797  20.593  0.00  0.00    +0.000 A 
ATOM      2  C   UNL     1       1.296   4.549  20.730  0.00  0.00    +0.000 A 
ATOM      3  C   UNL     1       1.954   3.378  20.357  0.00  0.00    +0.000 A 
ATOM      4  C   UNL     1       3.240   3.445  19.832  0.00  0.00    +0.000 A 
ATOM      5  C   UNL     1       3.860   4.685  19.640  0.00  0.00    +0.000 A 
ATOM      6  C   UNL     1       3.170   5.859  20.002  0.00  0.00    +0.000 A 
ENDROOT
BRANCH   5   7
ATOM      7  C   UNL     1       5.194   4.719  19.039  0.00  0.00    +0.000 A 
ATOM      8  N   UNL     1       6.329   4.716  19.714  0.00  0.00    +0.000 NA
ATOM      9  N   UNL     1       7.369   4.708  18.823  0.00  0.00    +0.000 NA
ATOM     10  C   UNL     1       6.871   4.737  17.607  0.00  0.00    +0.000 A 
ATOM     11  N   UNL     1       5.500   4.793  17.696  0.00  0.00    +0.000 N 
ATOM     12  C   UNL     1       4.557   4.943  16.606  0.00  0.00    +0.000 C 
ATOM     13  C   UNL     1       5.023   5.877  15.501  0.00  0.00    +0.000 C 
ATOM     14  C   UNL     1       5.980   5.217  14.515  0.00  0.00    +0.000 C 
ATOM     15  C   UNL     1       6.969   4.220  15.122  0.00  0.00    +0.000 C 
ATOM     16  C   UNL     1       7.685   4.751  16.358  0.00  0.00    +0.000 C 
ENDBRANCH   5   7
BRANCH   1  19
ATOM     17  C   UNL     1       1.345   8.197  20.336  0.00  0.00    +0.000 C 
ATOM     18  O   UNL     1       1.856   8.380  19.234  0.00  0.00    +0.000 OA
ATOM     19  N   UNL     1       1.302   7.001  21.027  0.00  0.00    +0.000 N 
ATOM     20  H   UNL     1       0.711   6.986  21.855  0.00  0.00    +0.000 HD
BRANCH  17  25
ATOM     21  C   UNL     1      -1.233  12.451  23.044  0.00  0.00    +0.000 C 
ATOM     22  C   UNL     1      -0.537  11.360  22.296  0.00  0.00    +0.000 A 
ATOM     23  C   UNL     1      -0.399  11.369  20.907  0.00  0.00    +0.000 A 
ATOM     24  N   UNL     1       0.219  10.376  20.207  0.00  0.00    +0.000 NA
ATOM     25  C   UNL     1       0.687   9.360  20.978  0.00  0.00    +0.000 A 
ATOM     26  C   UNL     1       0.562   9.350  22.365  0.00  0.00    +0.000 A 
ATOM     27  N   UNL     1      -0.047  10.345  23.046  0.00  0.00    +0.000 NA
ENDBRANCH  17  25
ENDBRANCH   1  19
TORSDOF 3
ENDMDL
MODEL 2
REMARK VINA RESULT:      -8.3      2.036      8.296
REMARK  Name = 
REMARK  4 active torsions:
REMARK  status: ('A' for Active; 'I' for Inactive)
REMARK    1  A    between atoms: C_1  and  C_2
REMARK    2  A    between atoms: C_5  and  C_6
REMARK    3  A    between atoms: N_8  and  C_9
REMARK    4  A    between atoms: C_13  and  C_14
REMARK                            x       y       z     vdW  Elec       q    Type
REMARK                         _______ _______ _______ _____ _____    ______ ____
ROOT
ATOM      1  C   UNL     1       2.879   5.628  18.775  0.00  0.00    +0.000 A 
ATOM      2  C   UNL     1       2.293   4.538  19.421  0.00  0.00    +0.000 A 
ATOM      3  C   UNL     1       1.414   4.718  20.489  0.00  0.00    +0.000 A 
ATOM      4  C   UNL     1       1.115   6.002  20.929  0.00  0.00    +0.000 A 
ATOM      5  C   UNL     1       1.722   7.112  20.331  0.00  0.00    +0.000 A 
ATOM      6  C   UNL     1       2.626   6.909  19.268  0.00  0.00    +0.000 A 
ENDROOT
BRANCH   5   7
ATOM      7  C   UNL     1       1.421   8.446  20.853  0.00  0.00    +0.000 A 
ATOM      8  N   UNL     1       1.560   8.816  22.113  0.00  0.00    +0.000 NA
ATOM      9  N   UNL     1       1.229  10.140  22.221  0.00  0.00    +0.000 NA
ATOM     10  C   UNL     1       0.858  10.570  21.035  0.00  0.00    +0.000 A 
ATOM     11  N   UNL     1       0.919   9.520  20.149  0.00  0.00    +0.000 N 
ATOM     12  C   UNL     1       0.500   9.520  18.762  0.00  0.00    +0.000 C 
ATOM     13  C   UNL     1      -0.756  10.331  18.488  0.00  0.00    +0.000 C 
ATOM     14  C   UNL     1      -0.493  11.828  18.356  0.00  0.00    +0.000 C 
ATOM     15  C   UNL     1       0.578  12.394  19.289  0.00  0.00    +0.000 C 
ATOM     16  C   UNL     1       0.410  11.961  20.741  0.00  0.00    +0.000 C 
ENDBRANCH   5   7
BRANCH   1  19
ATOM     17  C   UNL     1       4.925   4.816  17.636  0.00  0.00    +0.000 C 
ATOM     18  O   UNL     1       5.416   4.198  18.577  0.00  0.00    +0.000 OA
ATOM     19  N   UNL     1       3.718   5.490  17.644  0.00  0.00    +0.000 N 
ATOM     20  H   UNL     1       3.387   5.821  16.741  0.00  0.00    +0.000 HD
BRANCH  17  25
ATOM     21  C   UNL     1       7.951   5.114  12.859  0.00  0.00    +0.000 C 
ATOM     22  C   UNL     1       7.140   4.991  14.108  0.00  0.00    +0.000 A 
ATOM     23  C   UNL     1       5.973   4.228  14.174  0.00  0.00    +0.000 A 
ATOM     24  N   UNL     1       5.211   4.116  15.299  0.00  0.00    +0.000 NA
ATOM     25  C   UNL     1       5.681   4.821  16.361  0.00  0.00    +0.000 A 
ATOM     26  C   UNL     1       6.850   5.576  16.305  0.00  0.00    +0.000 A 
ATOM     27  N   UNL     1       7.599   5.672  15.184  0.00  0.00    +0.000 NA
ENDBRANCH  17  25
ENDBRANCH   1  19
TORSDOF 3
ENDMDL
MODEL 3
REMARK VINA RESULT:      -8.2      1.301      1.743
REMARK  Name = 
REMARK  4 active torsions:
REMARK  status: ('A' for Active; 'I' for Inactive)
REMARK    1  A    between atoms: C_1  and  C_2
REMARK    2  A    between atoms: C_5  and  C_6
REMARK    3  A    between atoms: N_8  and  C_9
REMARK    4  A    between atoms: C_13  and  C_14
REMARK                            x       y       z     vdW  Elec       q    Type
REMARK                         _______ _______ _______ _____ _____    ______ ____
ROOT
ATOM      1  C   UNL     1       1.916   7.039  20.097  0.00  0.00    +0.000 A 
ATOM      2  C   UNL     1       1.215   5.983  20.684  0.00  0.00    +0.000 A 
ATOM      3  C   UNL     1       1.773   4.708  20.775  0.00  0.00    +0.000 A 
ATOM      4  C   UNL     1       3.046   4.473  20.268  0.00  0.00    +0.000 A 
ATOM      5  C   UNL     1       3.754   5.500  19.634  0.00  0.00    +0.000 A 
ATOM      6  C   UNL     1       3.164   6.776  19.531  0.00  0.00    +0.000 A 
ENDROOT
BRANCH   5   7
ATOM      7  C   UNL     1       5.071   5.203  19.070  0.00  0.00    +0.000 A 
ATOM      8  N   UNL     1       6.176   5.033  19.773  0.00  0.00    +0.000 NA
ATOM      9  N   UNL     1       7.199   4.727  18.916  0.00  0.00    +0.000 NA
ATOM     10  C   UNL     1       6.727   4.741  17.689  0.00  0.00    +0.000 A 
ATOM     11  N   UNL     1       5.396   5.084  17.734  0.00  0.00    +0.000 N 
ATOM     12  C   UNL     1       4.514   5.319  16.610  0.00  0.00    +0.000 C 
ATOM     13  C   UNL     1       5.171   6.028  15.437  0.00  0.00    +0.000 C 
ATOM     14  C   UNL     1       5.981   5.095  14.542  0.00  0.00    +0.000 C 
ATOM     15  C   UNL     1       6.737   3.979  15.265  0.00  0.00    +0.000 C 
ATOM     16  C   UNL     1       7.537   4.469  16.467  0.00  0.00    +0.000 C 
ENDBRANCH   5   7
BRANCH   1  19
ATOM     17  C   UNL     1       1.181   9.154  21.159  0.00  0.00    +0.000 C 
ATOM     18  O   UNL     1       1.422   8.857  22.327  0.00  0.00    +0.000 OA
ATOM     19  N   UNL     1       1.415   8.361  20.051  0.00  0.00    +0.000 N 
ATOM     20  H   UNL     1       1.299   8.814  19.148  0.00  0.00    +0.000 HD
BRANCH  17  25
ATOM     21  C   UNL     1      -0.863  14.283  19.902  0.00  0.00    +0.000 C 
ATOM     22  C   UNL     1      -0.351  12.929  20.273  0.00  0.00    +0.000 A 
ATOM     23  C   UNL     1      -0.192  12.523  21.600  0.00  0.00    +0.000 A 
ATOM     24  N   UNL     1       0.288  11.298  21.958  0.00  0.00    +0.000 NA
ATOM     25  C   UNL     1       0.611  10.499  20.908  0.00  0.00    +0.000 A 
ATOM     26  C   UNL     1       0.444  10.894  19.583  0.00  0.00    +0.000 A 
ATOM     27  N   UNL     1      -0.040  12.109  19.243  0.00  0.00    +0.000 NA
ENDBRANCH  17  25
ENDBRANCH   1  19
TORSDOF 3
ENDMDL
MODEL 4
REMARK VINA RESULT:      -8.1      1.190      1.303
REMARK  Name = 
REMARK  4 active torsions:
REMARK  status: ('A' for Active; 'I' for Inactive)
REMARK    1  A    between atoms: C_1  and  C_2
REMARK    2  A    between atoms: C_5  and  C_6
REMARK    3  A    between atoms: N_8  and  C_9
REMARK    4  A    between atoms: C_13  and  C_14
REMARK                            x       y       z     vdW  Elec       q    Type
REMARK                         _______ _______ _______ _____ _____    ______ ____
ROOT
ATOM      1  C   UNL     1       1.947   6.910  20.287  0.00  0.00    +0.000 A 
ATOM      2  C   UNL     1       1.183   5.804  20.665  0.00  0.00    +0.000 A 
ATOM      3  C   UNL     1       1.686   4.508  20.555  0.00  0.00    +0.000 A 
ATOM      4  C   UNL     1       2.968   4.304  20.055  0.00  0.00    +0.000 A 
ATOM      5  C   UNL     1       3.739   5.390  19.626  0.00  0.00    +0.000 A 
ATOM      6  C   UNL     1       3.204   6.691  19.723  0.00  0.00    +0.000 A 
ENDROOT
BRANCH   5   7
ATOM      7  C   UNL     1       5.063   5.133  19.060  0.00  0.00    +0.000 A 
ATOM      8  N   UNL     1       6.170   4.976  19.763  0.00  0.00    +0.000 NA
ATOM      9  N   UNL     1       7.202   4.708  18.904  0.00  0.00    +0.000 NA
ATOM     10  C   UNL     1       6.732   4.731  17.676  0.00  0.00    +0.000 A 
ATOM     11  N   UNL     1       5.394   5.043  17.724  0.00  0.00    +0.000 N 
ATOM     12  C   UNL     1       4.509   5.276  16.601  0.00  0.00    +0.000 C 
ATOM     13  C   UNL     1       5.152   6.019  15.442  0.00  0.00    +0.000 C 
ATOM     14  C   UNL     1       5.984   5.120  14.534  0.00  0.00    +0.000 C 
ATOM     15  C   UNL     1       6.764   4.010  15.240  0.00  0.00    +0.000 C 
ATOM     16  C   UNL     1       7.550   4.498  16.451  0.00  0.00    +0.000 C 
ENDBRANCH   5   7
BRANCH   1  19
ATOM     17  C   UNL     1       1.257   9.125  19.414  0.00  0.00    +0.000 C 
ATOM     18  O   UNL     1       1.335   8.873  18.214  0.00  0.00    +0.000 OA
ATOM     19  N   UNL     1       1.500   8.243  20.451  0.00  0.00    +0.000 N 
ATOM     20  H   UNL     1       1.245   8.568  21.380  0.00  0.00    +0.000 HD
BRANCH  17  25
ATOM     21  C   UNL     1      -0.433  14.245  21.146  0.00  0.00    +0.000 C 
ATOM     22  C   UNL     1       0.033  12.914  20.650  0.00  0.00    +0.000 A 
ATOM     23  C   UNL     1       0.114  12.604  19.291  0.00  0.00    +0.000 A 
ATOM     24  N   UNL     1       0.521  11.391  18.820  0.00  0.00    +0.000 NA
ATOM     25  C   UNL     1       0.837  10.495  19.791  0.00  0.00    +0.000 A 
ATOM     26  C   UNL     1       0.768  10.802  21.148  0.00  0.00    +0.000 A 
ATOM     27  N   UNL     1       0.370  12.011  21.600  0.00  0.00    +0.000 NA
ENDBRANCH  17  25
ENDBRANCH   1  19
TORSDOF 3
ENDMDL
MODEL 5
REMARK VINA RESULT:      -8.1      1.781      2.205
REMARK  Name = 
REMARK  4 active torsions:
REMARK  status: ('A' for Active; 'I' for Inactive)
REMARK    1  A    between atoms: C_1  and  C_2
REMARK    2  A    between atoms: C_5  and  C_6
REMARK    3  A    between atoms: N_8  and  C_9
REMARK    4  A    between atoms: C_13  and  C_14
REMARK                            x       y       z     vdW  Elec       q    Type
REMARK                         _______ _______ _______ _____ _____    ______ ____
ROOT
ATOM      1  C   UNL     1       1.953   7.255  19.976  0.00  0.00    +0.000 A 
ATOM      2  C   UNL     1       1.232   6.249  20.624  0.00  0.00    +0.000 A 
ATOM      3  C   UNL     1       1.763   4.970  20.785  0.00  0.00    +0.000 A 
ATOM      4  C   UNL     1       3.028   4.679  20.288  0.00  0.00    +0.000 A 
ATOM      5  C   UNL     1       3.755   5.653  19.593  0.00  0.00    +0.000 A 
ATOM      6  C   UNL     1       3.192   6.934  19.420  0.00  0.00    +0.000 A 
ENDROOT
BRANCH   5   7
ATOM      7  C   UNL     1       5.062   5.296  19.041  0.00  0.00    +0.000 A 
ATOM      8  N   UNL     1       6.158   5.105  19.752  0.00  0.00    +0.000 NA
ATOM      9  N   UNL     1       7.172   4.742  18.907  0.00  0.00    +0.000 NA
ATOM     10  C   UNL     1       6.704   4.740  17.679  0.00  0.00    +0.000 A 
ATOM     11  N   UNL     1       5.386   5.131  17.710  0.00  0.00    +0.000 N 
ATOM     12  C   UNL     1       4.516   5.367  16.577  0.00  0.00    +0.000 C 
ATOM     13  C   UNL     1       5.200   6.022  15.389  0.00  0.00    +0.000 C 
ATOM     14  C   UNL     1       5.979   5.039  14.521  0.00  0.00    +0.000 C 
ATOM     15  C   UNL     1       6.694   3.916  15.276  0.00  0.00    +0.000 C 
ATOM     16  C   UNL     1       7.507   4.408  16.467  0.00  0.00    +0.000 C 
ENDBRANCH   5   7
BRANCH   1  19
ATOM     17  C   UNL     1       1.339   9.265  18.662  0.00  0.00    +0.000 C 
ATOM     18  O   UNL     1       1.545   8.810  17.539  0.00  0.00    +0.000 OA
ATOM     19  N   UNL     1       1.480   8.583  19.857  0.00  0.00    +0.000 N 
ATOM     20  H   UNL     1       1.125   9.057  20.684  0.00  0.00    +0.000 HD
BRANCH  17  25
ATOM     21  C   UNL     1      -0.147  14.716  19.039  0.00  0.00    +0.000 C 
ATOM     22  C   UNL     1       0.201  13.267  18.924  0.00  0.00    +0.000 A 
ATOM     23  C   UNL     1      -0.728  12.250  19.152  0.00  0.00    +0.000 A 
ATOM     24  N   UNL     1      -0.426  10.924  19.067  0.00  0.00    +0.000 NA
ATOM     25  C   UNL     1       0.870  10.668  18.748  0.00  0.00    +0.000 A 
ATOM     26  C   UNL     1       1.799  11.678  18.509  0.00  0.00    +0.000 A 
ATOM     27  N   UNL     1       1.483  12.989  18.590  0.00  0.00    +0.000 NA
ENDBRANCH  17  25
ENDBRANCH   1  19
TORSDOF 3
ENDMDL
MODEL 6
REMARK VINA RESULT:      -8.0      4.613      6.949
REMARK  Name = 
REMARK  4 active torsions:
REMARK  status: ('A' for Active; 'I' for Inactive)
REMARK    1  A    between atoms: C_1  and  C_2
REMARK    2  A    between atoms: C_5  and  C_6
REMARK    3  A    between atoms: N_8  and  C_9
REMARK    4  A    between atoms: C_13  and  C_14
REMARK                            x       y       z     vdW  Elec       q    Type
REMARK                         _______ _______ _______ _____ _____    ______ ____
ROOT
ATOM      1  C   UNL     1       6.358   6.836  16.839  0.00  0.00    +0.000 A 
ATOM      2  C   UNL     1       6.137   6.413  15.527  0.00  0.00    +0.000 A 
ATOM      3  C   UNL     1       5.459   5.225  15.257  0.00  0.00    +0.000 A 
ATOM      4  C   UNL     1       4.997   4.438  16.306  0.00  0.00    +0.000 A 
ATOM      5  C   UNL     1       5.244   4.814  17.632  0.00  0.00    +0.000 A 
ATOM      6  C   UNL     1       5.952   6.006  17.885  0.00  0.00    +0.000 A 
ENDROOT
BRANCH   5   7
ATOM      7  C   UNL     1       4.786   3.937  18.709  0.00  0.00    +0.000 A 
ATOM      8  N   UNL     1       5.564   3.148  19.427  0.00  0.00    +0.000 NA
ATOM      9  N   UNL     1       4.798   2.513  20.368  0.00  0.00    +0.000 NA
ATOM     10  C   UNL     1       3.549   2.890  20.206  0.00  0.00    +0.000 A 
ATOM     11  N   UNL     1       3.487   3.753  19.137  0.00  0.00    +0.000 N 
ATOM     12  C   UNL     1       2.297   4.328  18.545  0.00  0.00    +0.000 C 
ATOM     13  C   UNL     1       1.107   3.384  18.491  0.00  0.00    +0.000 C 
ATOM     14  C   UNL     1       0.346   3.295  19.810  0.00  0.00    +0.000 C 
ATOM     15  C   UNL     1       1.206   3.350  21.074  0.00  0.00    +0.000 C 
ATOM     16  C   UNL     1       2.405   2.409  21.032  0.00  0.00    +0.000 C 
ENDBRANCH   5   7
BRANCH   1  19
ATOM     17  C   UNL     1       7.989   8.229  18.083  0.00  0.00    +0.000 C 
ATOM     18  O   UNL     1       8.533   7.332  18.723  0.00  0.00    +0.000 OA
ATOM     19  N   UNL     1       6.977   8.069  17.154  0.00  0.00    +0.000 N 
ATOM     20  H   UNL     1       6.744   8.893  16.605  0.00  0.00    +0.000 HD
BRANCH  17  25
ATOM     21  C   UNL     1       9.909  13.429  19.240  0.00  0.00    +0.000 C 
ATOM     22  C   UNL     1       9.404  12.067  18.888  0.00  0.00    +0.000 A 
ATOM     23  C   UNL     1       8.577  11.833  17.787  0.00  0.00    +0.000 A 
ATOM     24  N   UNL     1       8.093  10.601  17.459  0.00  0.00    +0.000 NA
ATOM     25  C   UNL     1       8.478   9.610  18.304  0.00  0.00    +0.000 A 
ATOM     26  C   UNL     1       9.311   9.835  19.398  0.00  0.00    +0.000 A 
ATOM     27  N   UNL     1       9.788  11.060  19.707  0.00  0.00    +0.000 NA
ENDBRANCH  17  25
ENDBRANCH   1  19
TORSDOF 3
ENDMDL
MODEL 7
REMARK VINA RESULT:      -7.9      2.646      8.934
REMARK  Name = 
REMARK  4 active torsions:
REMARK  status: ('A' for Active; 'I' for Inactive)
REMARK    1  A    between atoms: C_1  and  C_2
REMARK    2  A    between atoms: C_5  and  C_6
REMARK    3  A    between atoms: N_8  and  C_9
REMARK    4  A    between atoms: C_13  and  C_14
REMARK                            x       y       z     vdW  Elec       q    Type
REMARK                         _______ _______ _______ _____ _____    ______ ____
ROOT
ATOM      1  C   UNL     1       2.138   7.939  18.943  0.00  0.00    +0.000 A 
ATOM      2  C   UNL     1       1.937   7.493  20.251  0.00  0.00    +0.000 A 
ATOM      3  C   UNL     1       1.118   8.195  21.135  0.00  0.00    +0.000 A 
ATOM      4  C   UNL     1       0.492   9.365  20.718  0.00  0.00    +0.000 A 
ATOM      5  C   UNL     1       0.712   9.861  19.428  0.00  0.00    +0.000 A 
ATOM      6  C   UNL     1       1.562   9.150  18.556  0.00  0.00    +0.000 A 
ENDROOT
BRANCH   5   7
ATOM      7  C   UNL     1       0.076  11.120  19.040  0.00  0.00    +0.000 A 
ATOM      8  N   UNL     1      -1.166  11.240  18.608  0.00  0.00    +0.000 NA
ATOM      9  N   UNL     1      -1.427  12.566  18.386  0.00  0.00    +0.000 NA
ATOM     10  C   UNL     1      -0.337  13.251  18.651  0.00  0.00    +0.000 A 
ATOM     11  N   UNL     1       0.654  12.373  19.023  0.00  0.00    +0.000 N 
ATOM     12  C   UNL     1       2.040  12.684  19.301  0.00  0.00    +0.000 C 
ATOM     13  C   UNL     1       2.635  13.751  18.397  0.00  0.00    +0.000 C 
ATOM     14  C   UNL     1       2.282  15.172  18.825  0.00  0.00    +0.000 C 
ATOM     15  C   UNL     1       0.871  15.362  19.384  0.00  0.00    +0.000 C 
ATOM     16  C   UNL     1      -0.214  14.731  18.519  0.00  0.00    +0.000 C 
ENDBRANCH   5   7
BRANCH   1  19
ATOM     17  C   UNL     1       3.797   6.211  18.306  0.00  0.00    +0.000 C 
ATOM     18  O   UNL     1       4.018   5.759  19.428  0.00  0.00    +0.000 OA
ATOM     19  N   UNL     1       2.902   7.218  17.995  0.00  0.00    +0.000 N 
ATOM     20  H   UNL     1       2.730   7.369  17.004  0.00  0.00    +0.000 HD
BRANCH  17  25
ATOM     21  C   UNL     1       6.559   4.161  13.808  0.00  0.00    +0.000 C 
ATOM     22  C   UNL     1       5.848   4.666  15.022  0.00  0.00    +0.000 A 
ATOM     23  C   UNL     1       5.356   3.816  16.014  0.00  0.00    +0.000 A 
ATOM     24  N   UNL     1       4.691   4.256  17.119  0.00  0.00    +0.000 NA
ATOM     25  C   UNL     1       4.537   5.605  17.175  0.00  0.00    +0.000 A 
ATOM     26  C   UNL     1       5.034   6.459  16.194  0.00  0.00    +0.000 A 
ATOM     27  N   UNL     1       5.698   6.008  15.106  0.00  0.00    +0.000 NA
ENDBRANCH  17  25
ENDBRANCH   1  19
TORSDOF 3
ENDMDL
MODEL 8
REMARK VINA RESULT:      -7.9      3.762     10.046
REMARK  Name = 
REMARK  4 active torsions:
REMARK  status: ('A' for Active; 'I' for Inactive)
REMARK    1  A    between atoms: C_1  and  C_2
REMARK    2  A    between atoms: C_5  and  C_6
REMARK    3  A    between atoms: N_8  and  C_9
REMARK    4  A    between atoms: C_13  and  C_14
REMARK                            x       y       z     vdW  Elec       q    Type
REMARK                         _______ _______ _______ _____ _____    ______ ____
ROOT
ATOM      1  C   UNL     1       0.631  10.325  18.865  0.00  0.00    +0.000 A 
ATOM      2  C   UNL     1       1.228  11.567  19.087  0.00  0.00    +0.000 A 
ATOM      3  C   UNL     1       0.519  12.753  18.903  0.00  0.00    +0.000 A 
ATOM      4  C   UNL     1      -0.806  12.708  18.484  0.00  0.00    +0.000 A 
ATOM      5  C   UNL     1      -1.418  11.480  18.209  0.00  0.00    +0.000 A 
ATOM      6  C   UNL     1      -0.677  10.293  18.379  0.00  0.00    +0.000 A 
ENDROOT
BRANCH   5   7
ATOM      7  C   UNL     1      -2.798  11.474  17.723  0.00  0.00    +0.000 A 
ATOM      8  N   UNL     1      -3.162  11.231  16.477  0.00  0.00    +0.000 NA
ATOM      9  N   UNL     1      -4.528  11.265  16.404  0.00  0.00    +0.000 NA
ATOM     10  C   UNL     1      -4.998  11.560  17.596  0.00  0.00    +0.000 A 
ATOM     11  N   UNL     1      -3.938  11.747  18.451  0.00  0.00    +0.000 N 
ATOM     12  C   UNL     1      -3.992  12.186  19.830  0.00  0.00    +0.000 C 
ATOM     13  C   UNL     1      -5.049  13.242  20.109  0.00  0.00    +0.000 C 
ATOM     14  C   UNL     1      -6.449  12.665  20.290  0.00  0.00    +0.000 C 
ATOM     15  C   UNL     1      -6.793  11.476  19.391  0.00  0.00    +0.000 C 
ATOM     16  C   UNL     1      -6.445  11.703  17.925  0.00  0.00    +0.000 C 
ENDBRANCH   5   7
BRANCH   1  19
ATOM     17  C   UNL     1       2.146   8.473  18.219  0.00  0.00    +0.000 C 
ATOM     18  O   UNL     1       2.495   8.906  17.123  0.00  0.00    +0.000 OA
ATOM     19  N   UNL     1       1.293   9.099  19.110  0.00  0.00    +0.000 N 
ATOM     20  H   UNL     1       1.227   8.678  20.033  0.00  0.00    +0.000 HD
BRANCH  17  25
ATOM     21  C   UNL     1       4.379   3.436  19.525  0.00  0.00    +0.000 C 
ATOM     22  C   UNL     1       3.787   4.775  19.228  0.00  0.00    +0.000 A 
ATOM     23  C   UNL     1       2.842   5.381  20.058  0.00  0.00    +0.000 A 
ATOM     24  N   UNL     1       2.278   6.594  19.795  0.00  0.00    +0.000 NA
ATOM     25  C   UNL     1       2.709   7.169  18.642  0.00  0.00    +0.000 A 
ATOM     26  C   UNL     1       3.659   6.575  17.815  0.00  0.00    +0.000 A 
ATOM     27  N   UNL     1       4.214   5.375  18.092  0.00  0.00    +0.000 NA
ENDBRANCH  17  25
ENDBRANCH   1  19
TORSDOF 3
ENDMDL
MODEL 9
REMARK VINA RESULT:      -7.8      1.166      1.944
REMARK  Name = 
REMARK  4 active torsions:
REMARK  status: ('A' for Active; 'I' for Inactive)
REMARK    1  A    between atoms: C_1  and  C_2
REMARK    2  A    between atoms: C_5  and  C_6
REMARK    3  A    between atoms: N_8  and  C_9
REMARK    4  A    between atoms: C_13  and  C_14
REMARK                            x       y       z     vdW  Elec       q    Type
REMARK                         _______ _______ _______ _____ _____    ______ ____
ROOT
ATOM      1  C   UNL     1       1.466   5.183  20.446  0.00  0.00    +0.000 A 
ATOM      2  C   UNL     1       1.060   3.940  20.938  0.00  0.00    +0.000 A 
ATOM      3  C   UNL     1       1.686   2.763  20.530  0.00  0.00    +0.000 A 
ATOM      4  C   UNL     1       2.728   2.817  19.611  0.00  0.00    +0.000 A 
ATOM      5  C   UNL     1       3.126   4.043  19.067  0.00  0.00    +0.000 A 
ATOM      6  C   UNL     1       2.466   5.220  19.474  0.00  0.00    +0.000 A 
ENDROOT
BRANCH   5   7
ATOM      7  C   UNL     1       4.194   4.055  18.066  0.00  0.00    +0.000 A 
ATOM      8  N   UNL     1       4.234   3.291  16.990  0.00  0.00    +0.000 NA
ATOM      9  N   UNL     1       5.352   3.609  16.267  0.00  0.00    +0.000 NA
ATOM     10  C   UNL     1       6.011   4.543  16.916  0.00  0.00    +0.000 A 
ATOM     11  N   UNL     1       5.341   4.823  18.083  0.00  0.00    +0.000 N 
ATOM     12  C   UNL     1       5.766   5.711  19.145  0.00  0.00    +0.000 C 
ATOM     13  C   UNL     1       7.259   5.683  19.424  0.00  0.00    +0.000 C 
ATOM     14  C   UNL     1       8.072   6.535  18.455  0.00  0.00    +0.000 C 
ATOM     15  C   UNL     1       7.577   6.541  17.007  0.00  0.00    +0.000 C 
ATOM     16  C   UNL     1       7.294   5.149  16.457  0.00  0.00    +0.000 C 
ENDBRANCH   5   7
BRANCH   1  19
ATOM     17  C   UNL     1       1.341   7.658  20.501  0.00  0.00    +0.000 C 
ATOM     18  O   UNL     1       2.227   7.896  19.683  0.00  0.00    +0.000 OA
ATOM     19  N   UNL     1       0.906   6.404  20.890  0.00  0.00    +0.000 N 
ATOM     20  H   UNL     1       0.065   6.383  21.461  0.00  0.00    +0.000 HD
BRANCH  17  25
ATOM     21  C   UNL     1      -1.271  11.945  23.120  0.00  0.00    +0.000 C 
ATOM     22  C   UNL     1      -0.577  10.841  22.390  0.00  0.00    +0.000 A 
ATOM     23  C   UNL     1      -0.703  10.655  21.012  0.00  0.00    +0.000 A 
ATOM     24  N   UNL     1      -0.091   9.645  20.331  0.00  0.00    +0.000 NA
ATOM     25  C   UNL     1       0.654   8.820  21.112  0.00  0.00    +0.000 A 
ATOM     26  C   UNL     1       0.793   9.006  22.485  0.00  0.00    +0.000 A 
ATOM     27  N   UNL     1       0.185  10.016  23.145  0.00  0.00    +0.000 NA
ENDBRANCH  17  25
ENDBRANCH   1  19
TORSDOF 3
ENDMDL
