MODEL 1
REMARK VINA RESULT:      -8.8      0.000      0.000
REMARK  Name = 
REMARK  8 active torsions:
REMARK  status: ('A' for Active; 'I' for Inactive)
REMARK    1  A    between atoms: C_1  and  C_2
REMARK    2  A    between atoms: C_6  and  C_7
REMARK    3  A    between atoms: C_7  and  C_8
REMARK    4  A    between atoms: C_7  and  C_9
REMARK    5  A    between atoms: C_7  and  N_10
REMARK    6  A    between atoms: C_11  and  C_13
REMARK    7  A    between atoms: N_16  and  C_17
REMARK    8  A    between atoms: C_27  and  C_28
REMARK                            x       y       z     vdW  Elec       q    Type
REMARK                         _______ _______ _______ _____ _____    ______ ____
ROOT
ATOM      1  C   UNL     1       1.320   8.875  20.083  0.00  0.00    +0.000 A 
ATOM      2  N   UNL     1       1.417   7.859  20.995  0.00  0.00    +0.000 NA
ATOM      3  N   UNL     1       1.993   6.822  20.403  0.00  0.00    +0.000 NA
ATOM      4  N   UNL     1       2.364   7.176  19.142  0.00  0.00    +0.000 N 
ATOM      5  C   UNL     1       1.878   8.453  18.877  0.00  0.00    +0.000 A 
ATOM      6  C   UNL     1       1.842   9.133  17.557  0.00  0.00    +0.000 C 
ENDROOT
BRANCH   4   7
ATOM      7  C   UNL     1       3.116   6.268  18.335  0.00  0.00    +0.000 A 
ATOM      8  C   UNL     1       2.759   4.916  18.215  0.00  0.00    +0.000 A 
ATOM      9  C   UNL     1       3.530   4.044  17.436  0.00  0.00    +0.000 A 
ATOM     10  C   UNL     1       4.664   4.509  16.771  0.00  0.00    +0.000 A 
ATOM     11  C   UNL     1       5.006   5.860  16.850  0.00  0.00    +0.000 A 
ATOM     12  C   UNL     1       4.230   6.739  17.617  0.00  0.00    +0.000 A 
ATOM     13  O   UNL     1       6.103   6.389  16.217  0.00  0.00    +0.000 OA
ATOM     14  C   UNL     1       6.629   5.503  15.222  0.00  0.00    +0.000 C 
ATOM     15  C   UNL     1       6.686   4.070  15.727  0.00  0.00    +0.000 C 
ATOM     16  O   UNL     1       5.379   3.587  16.054  0.00  0.00    +0.000 OA
ENDBRANCH   4   7
BRANCH   1  18
ATOM     17  N   UNL     1      -0.465  10.438  19.614  0.00  0.00    +0.000 N 
ATOM     18  C   UNL     1       0.670  10.162  20.365  0.00  0.00    +0.000 C 
ATOM     19  O   UNL     1       1.127  10.935  21.203  0.00  0.00    +0.000 OA
ATOM     20  H   UNL     1      -0.668   9.786  18.865  0.00  0.00    +0.000 HD
BRANCH  17  21
ATOM     21  C   UNL     1      -1.219  11.719  19.665  0.00  0.00    +0.000 C 
ATOM     22  C   UNL     1      -0.270  12.864  19.233  0.00  0.00    +0.000 C 
ATOM     23  C   UNL     1      -1.735  11.994  21.094  0.00  0.00    +0.000 C 
BRANCH  21  29
ATOM     24  C   UNL     1      -3.486  10.610  15.211  0.00  0.00    +0.000 C 
ATOM     25  C   UNL     1      -3.578  11.129  16.617  0.00  0.00    +0.000 A 
ATOM     26  C   UNL     1      -4.806  11.559  17.125  0.00  0.00    +0.000 A 
ATOM     27  C   UNL     1      -4.889  12.022  18.427  0.00  0.00    +0.000 A 
ATOM     28  C   UNL     1      -3.742  12.077  19.230  0.00  0.00    +0.000 A 
ATOM     29  C   UNL     1      -2.474  11.683  18.746  0.00  0.00    +0.000 A 
ATOM     30  C   UNL     1      -2.428  11.178  17.432  0.00  0.00    +0.000 A 
ENDBRANCH  21  29
ENDBRANCH  17  21
ENDBRANCH   1  18
TORSDOF 4
ENDMDL
MODEL 2
REMARK VINA RESULT:      -8.5      2.091      2.994
REMARK  Name = 
REMARK  8 active torsions:
REMARK  status: ('A' for Active; 'I' for Inactive)
REMARK    1  A    between atoms: C_1  and  C_2
REMARK    2  A    between atoms: C_6  and  C_7
REMARK    3  A    between atoms: C_7  and  C_8
REMARK    4  A    between atoms: C_7  and  C_9
REMARK    5  A    between atoms: C_7  and  N_10
REMARK    6  A    between atoms: C_11  and  C_13
REMARK    7  A    between atoms: N_16  and  C_17
REMARK    8  A    between atoms: C_27  and  C_28
REMARK                            x       y       z     vdW  Elec       q    Type
REMARK                         _______ _______ _______ _____ _____    ______ ____
ROOT
ATOM      1  C   UNL     1       1.486   9.687  18.711  0.00  0.00    +0.000 A 
ATOM      2  N   UNL     1       2.112   9.577  17.500  0.00  0.00    +0.000 NA
ATOM      3  N   UNL     1       2.720   8.399  17.451  0.00  0.00    +0.000 NA
ATOM      4  N   UNL     1       2.420   7.694  18.576  0.00  0.00    +0.000 N 
ATOM      5  C   UNL     1       1.702   8.518  19.439  0.00  0.00    +0.000 A 
ATOM      6  C   UNL     1       1.377   8.245  20.863  0.00  0.00    +0.000 C 
ENDROOT
BRANCH   4   7
ATOM      7  C   UNL     1       2.857   6.341  18.712  0.00  0.00    +0.000 A 
ATOM      8  C   UNL     1       4.107   6.020  19.260  0.00  0.00    +0.000 A 
ATOM      9  C   UNL     1       4.519   4.684  19.358  0.00  0.00    +0.000 A 
ATOM     10  C   UNL     1       3.690   3.657  18.909  0.00  0.00    +0.000 A 
ATOM     11  C   UNL     1       2.427   3.962  18.400  0.00  0.00    +0.000 A 
ATOM     12  C   UNL     1       2.005   5.294  18.312  0.00  0.00    +0.000 A 
ATOM     13  O   UNL     1       1.556   3.003  17.946  0.00  0.00    +0.000 OA
ATOM     14  C   UNL     1       1.936   1.688  18.368  0.00  0.00    +0.000 C 
ATOM     15  C   UNL     1       3.431   1.463  18.208  0.00  0.00    +0.000 C 
ATOM     16  O   UNL     1       4.178   2.382  19.013  0.00  0.00    +0.000 OA
ENDBRANCH   4   7
BRANCH   1  18
ATOM     17  N   UNL     1      -0.606  10.881  18.934  0.00  0.00    +0.000 N 
ATOM     18  C   UNL     1       0.766  10.892  19.148  0.00  0.00    +0.000 C 
ATOM     19  O   UNL     1       1.361  11.840  19.652  0.00  0.00    +0.000 OA
ATOM     20  H   UNL     1      -0.963  10.101  18.395  0.00  0.00    +0.000 HD
BRANCH  17  21
ATOM     21  C   UNL     1      -1.511  12.028  19.208  0.00  0.00    +0.000 C 
ATOM     22  C   UNL     1      -0.882  13.305  18.599  0.00  0.00    +0.000 C 
ATOM     23  C   UNL     1      -1.699  12.227  20.728  0.00  0.00    +0.000 C 
BRANCH  21  29
ATOM     24  C   UNL     1      -6.611  12.291  19.563  0.00  0.00    +0.000 C 
ATOM     25  C   UNL     1      -5.385  11.940  18.771  0.00  0.00    +0.000 A 
ATOM     26  C   UNL     1      -5.510  11.425  17.478  0.00  0.00    +0.000 A 
ATOM     27  C   UNL     1      -4.375  11.118  16.746  0.00  0.00    +0.000 A 
ATOM     28  C   UNL     1      -3.105  11.306  17.304  0.00  0.00    +0.000 A 
ATOM     29  C   UNL     1      -2.932  11.793  18.619  0.00  0.00    +0.000 A 
ATOM     30  C   UNL     1      -4.103  12.135  19.325  0.00  0.00    +0.000 A 
ENDBRANCH  21  29
ENDBRANCH  17  21
ENDBRANCH   1  18
TORSDOF 4
ENDMDL
MODEL 3
REMARK VINA RESULT:      -8.4      0.508      1.411
REMARK  Name = 
REMARK  8 active torsions:
REMARK  status: ('A' for Active; 'I' for Inactive)
REMARK    1  A    between atoms: C_1  and  C_2
REMARK    2  A    between atoms: C_6  and  C_7
REMARK    3  A    between atoms: C_7  and  C_8
REMARK    4  A    between atoms: C_7  and  C_9
REMARK    5  A    between atoms: C_7  and  N_10
REMARK    6  A    between atoms: C_11  and  C_13
REMARK    7  A    between atoms: N_16  and  C_17
REMARK    8  A    between atoms: C_27  and  C_28
REMARK                            x       y       z     vdW  Elec       q    Type
REMARK                         _______ _______ _______ _____ _____    ______ ____
ROOT
ATOM      1  C   UNL     1       1.185   9.111  20.152  0.00  0.00    +0.000 A 
ATOM      2  N   UNL     1       1.262   8.109  21.081  0.00  0.00    +0.000 NA
ATOM      3  N   UNL     1       1.809   7.047  20.504  0.00  0.00    +0.000 NA
ATOM      4  N   UNL     1       2.180   7.370  19.234  0.00  0.00    +0.000 N 
ATOM      5  C   UNL     1       1.723   8.653  18.949  0.00  0.00    +0.000 A 
ATOM      6  C   UNL     1       1.694   9.311  17.618  0.00  0.00    +0.000 C 
ENDROOT
BRANCH   4   7
ATOM      7  C   UNL     1       2.903   6.430  18.438  0.00  0.00    +0.000 A 
ATOM      8  C   UNL     1       2.546   5.074  18.389  0.00  0.00    +0.000 A 
ATOM      9  C   UNL     1       3.290   4.171  17.619  0.00  0.00    +0.000 A 
ATOM     10  C   UNL     1       4.397   4.609  16.893  0.00  0.00    +0.000 A 
ATOM     11  C   UNL     1       4.737   5.963  16.901  0.00  0.00    +0.000 A 
ATOM     12  C   UNL     1       3.989   6.872  17.659  0.00  0.00    +0.000 A 
ATOM     13  O   UNL     1       5.808   6.466  16.206  0.00  0.00    +0.000 OA
ATOM     14  C   UNL     1       6.299   5.538  15.230  0.00  0.00    +0.000 C 
ATOM     15  C   UNL     1       6.380   4.129  15.793  0.00  0.00    +0.000 C 
ATOM     16  O   UNL     1       5.087   3.658  16.189  0.00  0.00    +0.000 OA
ENDBRANCH   4   7
BRANCH   1  18
ATOM     17  N   UNL     1      -0.645  10.648  19.780  0.00  0.00    +0.000 N 
ATOM     18  C   UNL     1       0.568  10.418  20.415  0.00  0.00    +0.000 C 
ATOM     19  O   UNL     1       1.115  11.244  21.140  0.00  0.00    +0.000 OA
ATOM     20  H   UNL     1      -0.931   9.947  19.107  0.00  0.00    +0.000 HD
BRANCH  17  21
ATOM     21  C   UNL     1      -1.391  11.933  19.827  0.00  0.00    +0.000 C 
ATOM     22  C   UNL     1      -0.488  13.046  19.241  0.00  0.00    +0.000 C 
ATOM     23  C   UNL     1      -1.769  12.295  21.280  0.00  0.00    +0.000 C 
BRANCH  21  29
ATOM     24  C   UNL     1      -6.434  12.730  19.449  0.00  0.00    +0.000 C 
ATOM     25  C   UNL     1      -5.148  12.255  18.835  0.00  0.00    +0.000 A 
ATOM     26  C   UNL     1      -5.137  11.760  17.528  0.00  0.00    +0.000 A 
ATOM     27  C   UNL     1      -3.947  11.338  16.961  0.00  0.00    +0.000 A 
ATOM     28  C   UNL     1      -2.758  11.389  17.700  0.00  0.00    +0.000 A 
ATOM     29  C   UNL     1      -2.728  11.851  19.035  0.00  0.00    +0.000 A 
ATOM     30  C   UNL     1      -3.947  12.312  19.571  0.00  0.00    +0.000 A 
ENDBRANCH  21  29
ENDBRANCH  17  21
ENDBRANCH   1  18
TORSDOF 4
ENDMDL
MODEL 4
REMARK VINA RESULT:      -8.4      2.280      9.568
REMARK  Name = 
REMARK  8 active torsions:
REMARK  status: ('A' for Active; 'I' for Inactive)
REMARK    1  A    between atoms: C_1  and  C_2
REMARK    2  A    between atoms: C_6  and  C_7
REMARK    3  A    between atoms: C_7  and  C_8
REMARK    4  A    between atoms: C_7  and  C_9
REMARK    5  A    between atoms: C_7  and  N_10
REMARK    6  A    between atoms: C_11  and  C_13
REMARK    7  A    between atoms: N_16  and  C_17
REMARK    8  A    between atoms: C_27  and  C_28
REMARK                            x       y       z     vdW  Elec       q    Type
REMARK                         _______ _______ _______ _____ _____    ______ ____
ROOT
ATOM      1  C   UNL     1       3.174   7.360  18.171  0.00  0.00    +0.000 A 
ATOM      2  N   UNL     1       3.140   8.266  17.146  0.00  0.00    +0.000 NA
ATOM      3  N   UNL     1       2.173   9.140  17.395  0.00  0.00    +0.000 NA
ATOM      4  N   UNL     1       1.637   8.876  18.618  0.00  0.00    +0.000 N 
ATOM      5  C   UNL     1       2.195   7.698  19.105  0.00  0.00    +0.000 A 
ATOM      6  C   UNL     1       1.736   6.918  20.282  0.00  0.00    +0.000 C 
ENDROOT
BRANCH   4   7
ATOM      7  C   UNL     1       0.654   9.752  19.172  0.00  0.00    +0.000 A 
ATOM      8  C   UNL     1      -0.412  10.247  18.406  0.00  0.00    +0.000 A 
ATOM      9  C   UNL     1      -1.347  11.124  18.971  0.00  0.00    +0.000 A 
ATOM     10  C   UNL     1      -1.227  11.518  20.303  0.00  0.00    +0.000 A 
ATOM     11  C   UNL     1      -0.195  11.000  21.087  0.00  0.00    +0.000 A 
ATOM     12  C   UNL     1       0.734  10.113  20.530  0.00  0.00    +0.000 A 
ATOM     13  O   UNL     1      -0.020  11.338  22.406  0.00  0.00    +0.000 OA
ATOM     14  C   UNL     1      -1.178  11.977  22.956  0.00  0.00    +0.000 C 
ATOM     15  C   UNL     1      -1.750  13.010  21.999  0.00  0.00    +0.000 C 
ATOM     16  O   UNL     1      -2.165  12.400  20.772  0.00  0.00    +0.000 OA
ENDBRANCH   4   7
BRANCH   1  18
ATOM     17  N   UNL     1       4.505   5.741  16.963  0.00  0.00    +0.000 N 
ATOM     18  C   UNL     1       4.077   6.201  18.202  0.00  0.00    +0.000 C 
ATOM     19  O   UNL     1       4.405   5.680  19.264  0.00  0.00    +0.000 OA
ATOM     20  H   UNL     1       4.065   6.169  16.157  0.00  0.00    +0.000 HD
BRANCH  17  21
ATOM     21  C   UNL     1       5.339   4.527  16.757  0.00  0.00    +0.000 C 
ATOM     22  C   UNL     1       4.476   3.281  17.074  0.00  0.00    +0.000 C 
ATOM     23  C   UNL     1       6.571   4.545  17.688  0.00  0.00    +0.000 C 
BRANCH  21  29
ATOM     24  C   UNL     1       4.855   3.157  11.849  0.00  0.00    +0.000 C 
ATOM     25  C   UNL     1       5.654   3.816  12.936  0.00  0.00    +0.000 A 
ATOM     26  C   UNL     1       6.892   4.393  12.645  0.00  0.00    +0.000 A 
ATOM     27  C   UNL     1       7.617   5.014  13.648  0.00  0.00    +0.000 A 
ATOM     28  C   UNL     1       7.121   5.047  14.957  0.00  0.00    +0.000 A 
ATOM     29  C   UNL     1       5.889   4.448  15.304  0.00  0.00    +0.000 A 
ATOM     30  C   UNL     1       5.155   3.860  14.255  0.00  0.00    +0.000 A 
ENDBRANCH  21  29
ENDBRANCH  17  21
ENDBRANCH   1  18
TORSDOF 4
ENDMDL
MODEL 5
REMARK VINA RESULT:      -8.3      2.036      2.706
REMARK  Name = 
REMARK  8 active torsions:
REMARK  status: ('A' for Active; 'I' for Inactive)
REMARK    1  A    between atoms: C_1  and  C_2
REMARK    2  A    between atoms: C_6  and  C_7
REMARK    3  A    between atoms: C_7  and  C_8
REMARK    4  A    between atoms: C_7  and  C_9
REMARK    5  A    between atoms: C_7  and  N_10
REMARK    6  A    between atoms: C_11  and  C_13
REMARK    7  A    between atoms: N_16  and  C_17
REMARK    8  A    between atoms: C_27  and  C_28
REMARK                            x       y       z     vdW  Elec       q    Type
REMARK                         _______ _______ _______ _____ _____    ______ ____
ROOT
ATOM      1  C   UNL     1       1.644   9.607  18.655  0.00  0.00    +0.000 A 
ATOM      2  N   UNL     1       2.309   9.485  17.465  0.00  0.00    +0.000 NA
ATOM      3  N   UNL     1       2.918   8.307  17.447  0.00  0.00    +0.000 NA
ATOM      4  N   UNL     1       2.582   7.613  18.569  0.00  0.00    +0.000 N 
ATOM      5  C   UNL     1       1.836   8.444  19.400  0.00  0.00    +0.000 A 
ATOM      6  C   UNL     1       1.466   8.184  20.815  0.00  0.00    +0.000 C 
ENDROOT
BRANCH   4   7
ATOM      7  C   UNL     1       3.015   6.261  18.731  0.00  0.00    +0.000 A 
ATOM      8  C   UNL     1       4.317   5.947  19.145  0.00  0.00    +0.000 A 
ATOM      9  C   UNL     1       4.721   4.611  19.271  0.00  0.00    +0.000 A 
ATOM     10  C   UNL     1       3.831   3.577  18.984  0.00  0.00    +0.000 A 
ATOM     11  C   UNL     1       2.519   3.877  18.611  0.00  0.00    +0.000 A 
ATOM     12  C   UNL     1       2.108   5.211  18.497  0.00  0.00    +0.000 A 
ATOM     13  O   UNL     1       1.588   2.911  18.321  0.00  0.00    +0.000 OA
ATOM     14  C   UNL     1       1.999   1.615  18.772  0.00  0.00    +0.000 C 
ATOM     15  C   UNL     1       3.461   1.352  18.449  0.00  0.00    +0.000 C 
ATOM     16  O   UNL     1       4.311   2.300  19.104  0.00  0.00    +0.000 OA
ENDBRANCH   4   7
BRANCH   1  18
ATOM     17  N   UNL     1      -0.467  10.764  18.888  0.00  0.00    +0.000 N 
ATOM     18  C   UNL     1       0.910  10.815  19.057  0.00  0.00    +0.000 C 
ATOM     19  O   UNL     1       1.498  11.799  19.496  0.00  0.00    +0.000 OA
ATOM     20  H   UNL     1      -0.822   9.952  18.397  0.00  0.00    +0.000 HD
BRANCH  17  21
ATOM     21  C   UNL     1      -1.390  11.904  19.136  0.00  0.00    +0.000 C 
ATOM     22  C   UNL     1      -0.670  13.214  18.733  0.00  0.00    +0.000 C 
ATOM     23  C   UNL     1      -1.783  11.975  20.628  0.00  0.00    +0.000 C 
BRANCH  21  29
ATOM     24  C   UNL     1      -3.973  10.469  14.956  0.00  0.00    +0.000 C 
ATOM     25  C   UNL     1      -3.971  11.040  16.344  0.00  0.00    +0.000 A 
ATOM     26  C   UNL     1      -5.174  11.414  16.949  0.00  0.00    +0.000 A 
ATOM     27  C   UNL     1      -5.169  11.925  18.236  0.00  0.00    +0.000 A 
ATOM     28  C   UNL     1      -3.961  12.085  18.925  0.00  0.00    +0.000 A 
ATOM     29  C   UNL     1      -2.718  11.751  18.341  0.00  0.00    +0.000 A 
ATOM     30  C   UNL     1      -2.758  11.196  17.046  0.00  0.00    +0.000 A 
ENDBRANCH  21  29
ENDBRANCH  17  21
ENDBRANCH   1  18
TORSDOF 4
ENDMDL
MODEL 6
REMARK VINA RESULT:      -8.3      2.842      9.032
REMARK  Name = 
REMARK  8 active torsions:
REMARK  status: ('A' for Active; 'I' for Inactive)
REMARK    1  A    between atoms: C_1  and  C_2
REMARK    2  A    between atoms: C_6  and  C_7
REMARK    3  A    between atoms: C_7  and  C_8
REMARK    4  A    between atoms: C_7  and  C_9
REMARK    5  A    between atoms: C_7  and  N_10
REMARK    6  A    between atoms: C_11  and  C_13
REMARK    7  A    between atoms: N_16  and  C_17
REMARK    8  A    between atoms: C_27  and  C_28
REMARK                            x       y       z     vdW  Elec       q    Type
REMARK                         _______ _______ _______ _____ _____    ______ ____
ROOT
ATOM      1  C   UNL     1       1.524   8.105  20.430  0.00  0.00    +0.000 A 
ATOM      2  N   UNL     1       1.370   8.618  21.689  0.00  0.00    +0.000 NA
ATOM      3  N   UNL     1       1.138   9.919  21.583  0.00  0.00    +0.000 NA
ATOM      4  N   UNL     1       1.041  10.251  20.267  0.00  0.00    +0.000 N 
ATOM      5  C   UNL     1       1.363   9.133  19.501  0.00  0.00    +0.000 A 
ATOM      6  C   UNL     1       1.617   9.102  18.038  0.00  0.00    +0.000 C 
ENDROOT
BRANCH   4   7
ATOM      7  C   UNL     1       0.674  11.578  19.887  0.00  0.00    +0.000 A 
ATOM      8  C   UNL     1      -0.510  11.845  19.185  0.00  0.00    +0.000 A 
ATOM      9  C   UNL     1      -0.831  13.155  18.804  0.00  0.00    +0.000 A 
ATOM     10  C   UNL     1       0.025  14.209  19.118  0.00  0.00    +0.000 A 
ATOM     11  C   UNL     1       1.187  13.961  19.852  0.00  0.00    +0.000 A 
ATOM     12  C   UNL     1       1.505  12.656  20.246  0.00  0.00    +0.000 A 
ATOM     13  O   UNL     1       2.072  14.950  20.201  0.00  0.00    +0.000 OA
ATOM     14  C   UNL     1       1.509  16.258  20.041  0.00  0.00    +0.000 C 
ATOM     15  C   UNL     1       0.747  16.378  18.731  0.00  0.00    +0.000 C 
ATOM     16  O   UNL     1      -0.346  15.455  18.685  0.00  0.00    +0.000 OA
ENDBRANCH   4   7
BRANCH   1  18
ATOM     17  N   UNL     1       2.743   6.490  19.105  0.00  0.00    +0.000 N 
ATOM     18  C   UNL     1       1.864   6.702  20.159  0.00  0.00    +0.000 C 
ATOM     19  O   UNL     1       1.377   5.791  20.823  0.00  0.00    +0.000 OA
ATOM     20  H   UNL     1       2.973   7.307  18.551  0.00  0.00    +0.000 HD
BRANCH  17  21
ATOM     21  C   UNL     1       3.143   5.151  18.596  0.00  0.00    +0.000 C 
ATOM     22  C   UNL     1       1.963   4.562  17.786  0.00  0.00    +0.000 C 
ATOM     23  C   UNL     1       3.485   4.201  19.765  0.00  0.00    +0.000 C 
BRANCH  21  29
ATOM     24  C   UNL     1       7.626   7.300  17.377  0.00  0.00    +0.000 C 
ATOM     25  C   UNL     1       6.589   6.242  17.134  0.00  0.00    +0.000 A 
ATOM     26  C   UNL     1       6.778   5.295  16.124  0.00  0.00    +0.000 A 
ATOM     27  C   UNL     1       5.826   4.312  15.915  0.00  0.00    +0.000 A 
ATOM     28  C   UNL     1       4.667   4.274  16.700  0.00  0.00    +0.000 A 
ATOM     29  C   UNL     1       4.420   5.231  17.711  0.00  0.00    +0.000 A 
ATOM     30  C   UNL     1       5.425   6.194  17.928  0.00  0.00    +0.000 A 
ENDBRANCH  21  29
ENDBRANCH  17  21
ENDBRANCH   1  18
TORSDOF 4
ENDMDL
MODEL 7
REMARK VINA RESULT:      -8.3      3.008      3.983
REMARK  Name = 
REMARK  8 active torsions:
REMARK  status: ('A' for Active; 'I' for Inactive)
REMARK    1  A    between atoms: C_1  and  C_2
REMARK    2  A    between atoms: C_6  and  C_7
REMARK    3  A    between atoms: C_7  and  C_8
REMARK    4  A    between atoms: C_7  and  C_9
REMARK    5  A    between atoms: C_7  and  N_10
REMARK    6  A    between atoms: C_11  and  C_13
REMARK    7  A    between atoms: N_16  and  C_17
REMARK    8  A    between atoms: C_27  and  C_28
REMARK                            x       y       z     vdW  Elec       q    Type
REMARK                         _______ _______ _______ _____ _____    ______ ____
ROOT
ATOM      1  C   UNL     1       1.257   9.725  18.650  0.00  0.00    +0.000 A 
ATOM      2  N   UNL     1       1.925   9.633  17.459  0.00  0.00    +0.000 NA
ATOM      3  N   UNL     1       2.597   8.489  17.446  0.00  0.00    +0.000 NA
ATOM      4  N   UNL     1       2.301   7.784  18.572  0.00  0.00    +0.000 N 
ATOM      5  C   UNL     1       1.513   8.578  19.401  0.00  0.00    +0.000 A 
ATOM      6  C   UNL     1       1.160   8.306  20.818  0.00  0.00    +0.000 C 
ENDROOT
BRANCH   4   7
ATOM      7  C   UNL     1       2.807   6.458  18.741  0.00  0.00    +0.000 A 
ATOM      8  C   UNL     1       4.129   6.217  19.144  0.00  0.00    +0.000 A 
ATOM      9  C   UNL     1       4.603   4.906  19.277  0.00  0.00    +0.000 A 
ATOM     10  C   UNL     1       3.767   3.824  19.008  0.00  0.00    +0.000 A 
ATOM     11  C   UNL     1       2.438   4.050  18.646  0.00  0.00    +0.000 A 
ATOM     12  C   UNL     1       1.955   5.359  18.525  0.00  0.00    +0.000 A 
ATOM     13  O   UNL     1       1.556   3.034  18.373  0.00  0.00    +0.000 OA
ATOM     14  C   UNL     1       2.040   1.765  18.830  0.00  0.00    +0.000 C 
ATOM     15  C   UNL     1       3.511   1.578  18.494  0.00  0.00    +0.000 C 
ATOM     16  O   UNL     1       4.316   2.575  19.133  0.00  0.00    +0.000 OA
ENDBRANCH   4   7
BRANCH   1  18
ATOM     17  N   UNL     1       1.144  11.874  19.753  0.00  0.00    +0.000 N 
ATOM     18  C   UNL     1       0.460  10.893  19.047  0.00  0.00    +0.000 C 
ATOM     19  O   UNL     1      -0.735  10.969  18.776  0.00  0.00    +0.000 OA
ATOM     20  H   UNL     1       2.091  11.640  20.029  0.00  0.00    +0.000 HD
BRANCH  17  21
ATOM     21  C   UNL     1       0.514  13.088  20.335  0.00  0.00    +0.000 C 
ATOM     22  C   UNL     1      -0.057  13.946  19.180  0.00  0.00    +0.000 C 
ATOM     23  C   UNL     1       1.551  13.919  21.123  0.00  0.00    +0.000 C 
BRANCH  21  29
ATOM     24  C   UNL     1      -4.220  13.701  22.184  0.00  0.00    +0.000 C 
ATOM     25  C   UNL     1      -2.896  12.993  22.223  0.00  0.00    +0.000 A 
ATOM     26  C   UNL     1      -2.673  11.975  23.154  0.00  0.00    +0.000 A 
ATOM     27  C   UNL     1      -1.457  11.315  23.175  0.00  0.00    +0.000 A 
ATOM     28  C   UNL     1      -0.442  11.678  22.280  0.00  0.00    +0.000 A 
ATOM     29  C   UNL     1      -0.612  12.724  21.345  0.00  0.00    +0.000 A 
ATOM     30  C   UNL     1      -1.874  13.349  21.319  0.00  0.00    +0.000 A 
ENDBRANCH  21  29
ENDBRANCH  17  21
ENDBRANCH   1  18
TORSDOF 4
ENDMDL
MODEL 8
REMARK VINA RESULT:      -8.3      2.795      8.998
REMARK  Name = 
REMARK  8 active torsions:
REMARK  status: ('A' for Active; 'I' for Inactive)
REMARK    1  A    between atoms: C_1  and  C_2
REMARK    2  A    between atoms: C_6  and  C_7
REMARK    3  A    between atoms: C_7  and  C_8
REMARK    4  A    between atoms: C_7  and  C_9
REMARK    5  A    between atoms: C_7  and  N_10
REMARK    6  A    between atoms: C_11  and  C_13
REMARK    7  A    between atoms: N_16  and  C_17
REMARK    8  A    between atoms: C_27  and  C_28
REMARK                            x       y       z     vdW  Elec       q    Type
REMARK                         _______ _______ _______ _____ _____    ______ ____
ROOT
ATOM      1  C   UNL     1       1.616   7.873  20.246  0.00  0.00    +0.000 A 
ATOM      2  N   UNL     1       1.356   8.358  21.499  0.00  0.00    +0.000 NA
ATOM      3  N   UNL     1       1.105   9.657  21.398  0.00  0.00    +0.000 NA
ATOM      4  N   UNL     1       1.101  10.011  20.084  0.00  0.00    +0.000 N 
ATOM      5  C   UNL     1       1.504   8.915  19.326  0.00  0.00    +0.000 A 
ATOM      6  C   UNL     1       1.869   8.916  17.886  0.00  0.00    +0.000 C 
ENDROOT
BRANCH   4   7
ATOM      7  C   UNL     1       0.736  11.338  19.700  0.00  0.00    +0.000 A 
ATOM      8  C   UNL     1      -0.345  11.588  18.842  0.00  0.00    +0.000 A 
ATOM      9  C   UNL     1      -0.663  12.899  18.463  0.00  0.00    +0.000 A 
ATOM     10  C   UNL     1       0.093  13.971  18.934  0.00  0.00    +0.000 A 
ATOM     11  C   UNL     1       1.145  13.738  19.821  0.00  0.00    +0.000 A 
ATOM     12  C   UNL     1       1.459  12.431  20.213  0.00  0.00    +0.000 A 
ATOM     13  O   UNL     1       1.928  14.745  20.330  0.00  0.00    +0.000 OA
ATOM     14  C   UNL     1       1.337  16.036  20.133  0.00  0.00    +0.000 C 
ATOM     15  C   UNL     1       0.769  16.179  18.731  0.00  0.00    +0.000 C 
ATOM     16  O   UNL     1      -0.265  15.218  18.494  0.00  0.00    +0.000 OA
ENDBRANCH   4   7
BRANCH   1  18
ATOM     17  N   UNL     1       2.954   6.306  18.980  0.00  0.00    +0.000 N 
ATOM     18  C   UNL     1       2.004   6.481  19.978  0.00  0.00    +0.000 C 
ATOM     19  O   UNL     1       1.498   5.549  20.596  0.00  0.00    +0.000 OA
ATOM     20  H   UNL     1       3.200   7.136  18.454  0.00  0.00    +0.000 HD
BRANCH  17  21
ATOM     21  C   UNL     1       3.417   4.984  18.479  0.00  0.00    +0.000 C 
ATOM     22  C   UNL     1       2.255   4.320  17.702  0.00  0.00    +0.000 C 
ATOM     23  C   UNL     1       3.835   4.070  19.652  0.00  0.00    +0.000 C 
BRANCH  21  29
ATOM     24  C   UNL     1       5.977   3.877  14.187  0.00  0.00    +0.000 C 
ATOM     25  C   UNL     1       5.895   4.616  15.492  0.00  0.00    +0.000 A 
ATOM     26  C   UNL     1       6.936   5.461  15.885  0.00  0.00    +0.000 A 
ATOM     27  C   UNL     1       6.849   6.152  17.081  0.00  0.00    +0.000 A 
ATOM     28  C   UNL     1       5.729   5.991  17.907  0.00  0.00    +0.000 A 
ATOM     29  C   UNL     1       4.669   5.122  17.565  0.00  0.00    +0.000 A 
ATOM     30  C   UNL     1       4.766   4.464  16.323  0.00  0.00    +0.000 A 
ENDBRANCH  21  29
ENDBRANCH  17  21
ENDBRANCH   1  18
TORSDOF 4
ENDMDL
MODEL 9
REMARK VINA RESULT:      -8.2      3.079      9.801
REMARK  Name = 
REMARK  8 active torsions:
REMARK  status: ('A' for Active; 'I' for Inactive)
REMARK    1  A    between atoms: C_1  and  C_2
REMARK    2  A    between atoms: C_6  and  C_7
REMARK    3  A    between atoms: C_7  and  C_8
REMARK    4  A    between atoms: C_7  and  C_9
REMARK    5  A    between atoms: C_7  and  N_10
REMARK    6  A    between atoms: C_11  and  C_13
REMARK    7  A    between atoms: N_16  and  C_17
REMARK    8  A    between atoms: C_27  and  C_28
REMARK                            x       y       z     vdW  Elec       q    Type
REMARK                         _______ _______ _______ _____ _____    ______ ____
ROOT
ATOM      1  C   UNL     1       1.491   8.516  20.469  0.00  0.00    +0.000 A 
ATOM      2  N   UNL     1       1.830   8.449  21.793  0.00  0.00    +0.000 NA
ATOM      3  N   UNL     1       1.294   9.491  22.414  0.00  0.00    +0.000 NA
ATOM      4  N   UNL     1       0.526  10.189  21.533  0.00  0.00    +0.000 N 
ATOM      5  C   UNL     1       0.694   9.642  20.264  0.00  0.00    +0.000 A 
ATOM      6  C   UNL     1       0.239  10.227  18.977  0.00  0.00    +0.000 C 
ENDROOT
BRANCH   4   7
ATOM      7  C   UNL     1      -0.259  11.294  21.985  0.00  0.00    +0.000 A 
ATOM      8  C   UNL     1       0.117  12.621  21.730  0.00  0.00    +0.000 A 
ATOM      9  C   UNL     1      -0.660  13.684  22.208  0.00  0.00    +0.000 A 
ATOM     10  C   UNL     1      -1.816  13.436  22.946  0.00  0.00    +0.000 A 
ATOM     11  C   UNL     1      -2.223  12.119  23.171  0.00  0.00    +0.000 A 
ATOM     12  C   UNL     1      -1.456  11.053  22.684  0.00  0.00    +0.000 A 
ATOM     13  O   UNL     1      -3.352  11.800  23.883  0.00  0.00    +0.000 OA
ATOM     14  C   UNL     1      -4.218  12.929  24.052  0.00  0.00    +0.000 C 
ATOM     15  C   UNL     1      -3.436  14.177  24.429  0.00  0.00    +0.000 C 
ATOM     16  O   UNL     1      -2.504  14.529  23.402  0.00  0.00    +0.000 OA
ENDBRANCH   4   7
BRANCH   1  18
ATOM     17  N   UNL     1       2.284   6.295  19.932  0.00  0.00    +0.000 N 
ATOM     18  C   UNL     1       1.967   7.561  19.458  0.00  0.00    +0.000 C 
ATOM     19  O   UNL     1       2.084   7.889  18.281  0.00  0.00    +0.000 OA
ATOM     20  H   UNL     1       2.271   6.184  20.938  0.00  0.00    +0.000 HD
BRANCH  17  21
ATOM     21  C   UNL     1       2.874   5.209  19.105  0.00  0.00    +0.000 C 
ATOM     22  C   UNL     1       1.868   4.843  17.986  0.00  0.00    +0.000 C 
ATOM     23  C   UNL     1       3.159   3.958  19.965  0.00  0.00    +0.000 C 
BRANCH  21  29
ATOM     24  C   UNL     1       7.960   5.721  19.387  0.00  0.00    +0.000 C 
ATOM     25  C   UNL     1       6.686   5.859  18.604  0.00  0.00    +0.000 A 
ATOM     26  C   UNL     1       6.718   6.346  17.295  0.00  0.00    +0.000 A 
ATOM     27  C   UNL     1       5.543   6.456  16.571  0.00  0.00    +0.000 A 
ATOM     28  C   UNL     1       4.321   6.099  17.155  0.00  0.00    +0.000 A 
ATOM     29  C   UNL     1       4.237   5.634  18.486  0.00  0.00    +0.000 A 
ATOM     30  C   UNL     1       5.454   5.493  19.184  0.00  0.00    +0.000 A 
ENDBRANCH  21  29
ENDBRANCH  17  21
ENDBRANCH   1  18
TORSDOF 4
ENDMDL
