MODEL 1
REMARK VINA RESULT:      -8.2      0.000      0.000
REMARK  Name = 
REMARK  3 active torsions:
REMARK  status: ('A' for Active; 'I' for Inactive)
REMARK    1  A    between atoms: C_2  and  C_18
REMARK    2  A    between atoms: N_3  and  C_4
REMARK    3  A    between atoms: N_8  and  C_9
REMARK                            x       y       z     vdW  Elec       q    Type
REMARK                         _______ _______ _______ _____ _____    ______ ____
ROOT
ATOM      1  O   UNL     1       0.741  11.911  19.223  0.00  0.00    +0.000 OA
ATOM      2  C   UNL     1      -0.106  11.034  19.060  0.00  0.00    +0.000 C 
ATOM      3  N   UNL     1       0.167   9.700  19.253  0.00  0.00    +0.000 N 
ATOM      4  H   UNL     1      -0.576   9.043  19.027  0.00  0.00    +0.000 HD
ENDROOT
BRANCH   2   5
ATOM      5  C   UNL     1      -1.497  11.331  18.688  0.00  0.00    +0.000 A 
ATOM      6  N   UNL     1      -2.279  12.164  19.409  0.00  0.00    +0.000 NA
ATOM      7  N   UNL     1      -3.419  12.227  18.693  0.00  0.00    +0.000 N 
ATOM      8  C   UNL     1      -3.420  11.468  17.554  0.00  0.00    +0.000 A 
ATOM      9  C   UNL     1      -4.381  11.281  16.555  0.00  0.00    +0.000 A 
ATOM     10  C   UNL     1      -4.053  10.413  15.507  0.00  0.00    +0.000 A 
ATOM     11  C   UNL     1      -2.820   9.764  15.464  0.00  0.00    +0.000 A 
ATOM     12  C   UNL     1      -1.870   9.975  16.469  0.00  0.00    +0.000 A 
ATOM     13  C   UNL     1      -2.178  10.847  17.532  0.00  0.00    +0.000 A 
ATOM     14  H   UNL     1      -4.167  12.822  19.031  0.00  0.00    +0.000 HD
ENDBRANCH   2   5
BRANCH   3  15
ATOM     15  C   UNL     1       1.484   9.251  19.686  0.00  0.00    +0.000 C 
ATOM     16  C   UNL     1       1.461   8.787  21.140  0.00  0.00    +0.000 C 
ATOM     17  C   UNL     1       1.058   7.329  21.231  0.00  0.00    +0.000 C 
ATOM     18  C   UNL     1       2.097   6.510  20.485  0.00  0.00    +0.000 C 
ATOM     19  N   UNL     1       2.238   6.922  19.089  0.00  0.00    +0.000 N 
ATOM     20  C   UNL     1       2.034   8.239  18.663  0.00  0.00    +0.000 C 
ATOM     21  O   UNL     1       2.225   8.614  17.501  0.00  0.00    +0.000 OA
BRANCH  19  22
ATOM     22  C   UNL     1       2.896   6.012  18.201  0.00  0.00    +0.000 A 
ATOM     23  C   UNL     1       4.156   6.337  17.680  0.00  0.00    +0.000 A 
ATOM     24  C   UNL     1       4.837   5.442  16.851  0.00  0.00    +0.000 A 
ATOM     25  C   UNL     1       4.279   4.201  16.548  0.00  0.00    +0.000 A 
ATOM     26  C   UNL     1       3.024   3.867  17.052  0.00  0.00    +0.000 A 
ATOM     27  C   UNL     1       2.334   4.775  17.852  0.00  0.00    +0.000 A 
ATOM     28  F   UNL     1       1.145   4.394  18.346  0.00  0.00    +0.000 F 
ENDBRANCH  19  22
ENDBRANCH   3  15
TORSDOF 3
ENDMDL
MODEL 2
REMARK VINA RESULT:      -7.9      5.302      8.582
REMARK  Name = 
REMARK  3 active torsions:
REMARK  status: ('A' for Active; 'I' for Inactive)
REMARK    1  A    between atoms: C_2  and  C_18
REMARK    2  A    between atoms: N_3  and  C_4
REMARK    3  A    between atoms: N_8  and  C_9
REMARK                            x       y       z     vdW  Elec       q    Type
REMARK                         _______ _______ _______ _____ _____    ______ ____
ROOT
ATOM      1  O   UNL     1       7.644   4.986  17.073  0.00  0.00    +0.000 OA
ATOM      2  C   UNL     1       6.908   5.365  16.164  0.00  0.00    +0.000 C 
ATOM      3  N   UNL     1       5.705   5.988  16.401  0.00  0.00    +0.000 N 
ATOM      4  H   UNL     1       5.131   6.203  15.589  0.00  0.00    +0.000 HD
ENDROOT
BRANCH   2   5
ATOM      5  C   UNL     1       7.261   5.230  14.744  0.00  0.00    +0.000 A 
ATOM      6  N   UNL     1       8.367   5.798  14.214  0.00  0.00    +0.000 NA
ATOM      7  N   UNL     1       8.365   5.366  12.937  0.00  0.00    +0.000 N 
ATOM      8  C   UNL     1       7.309   4.559  12.610  0.00  0.00    +0.000 A 
ATOM      9  C   UNL     1       6.962   3.906  11.423  0.00  0.00    +0.000 A 
ATOM     10  C   UNL     1       5.786   3.146  11.431  0.00  0.00    +0.000 A 
ATOM     11  C   UNL     1       4.997   3.046  12.575  0.00  0.00    +0.000 A 
ATOM     12  C   UNL     1       5.370   3.699  13.756  0.00  0.00    +0.000 A 
ATOM     13  C   UNL     1       6.550   4.467  13.771  0.00  0.00    +0.000 A 
ATOM     14  H   UNL     1       9.126   5.650  12.332  0.00  0.00    +0.000 HD
ENDBRANCH   2   5
BRANCH   3  15
ATOM     15  C   UNL     1       5.243   6.253  17.758  0.00  0.00    +0.000 C 
ATOM     16  C   UNL     1       4.673   7.663  17.884  0.00  0.00    +0.000 C 
ATOM     17  C   UNL     1       3.207   7.685  17.501  0.00  0.00    +0.000 C 
ATOM     18  C   UNL     1       2.460   6.779  18.466  0.00  0.00    +0.000 C 
ATOM     19  N   UNL     1       2.976   5.411  18.463  0.00  0.00    +0.000 N 
ATOM     20  C   UNL     1       4.317   5.108  18.210  0.00  0.00    +0.000 C 
ATOM     21  O   UNL     1       4.780   3.964  18.281  0.00  0.00    +0.000 OA
BRANCH  19  22
ATOM     22  C   UNL     1       2.144   4.397  19.036  0.00  0.00    +0.000 A 
ATOM     23  C   UNL     1       1.492   3.478  18.201  0.00  0.00    +0.000 A 
ATOM     24  C   UNL     1       0.714   2.451  18.742  0.00  0.00    +0.000 A 
ATOM     25  C   UNL     1       0.595   2.313  20.124  0.00  0.00    +0.000 A 
ATOM     26  C   UNL     1       1.230   3.222  20.966  0.00  0.00    +0.000 A 
ATOM     27  C   UNL     1       1.979   4.264  20.423  0.00  0.00    +0.000 A 
ATOM     28  F   UNL     1       2.605   5.093  21.274  0.00  0.00    +0.000 F 
ENDBRANCH  19  22
ENDBRANCH   3  15
TORSDOF 3
ENDMDL
MODEL 3
REMARK VINA RESULT:      -7.9      5.275      8.484
REMARK  Name = 
REMARK  3 active torsions:
REMARK  status: ('A' for Active; 'I' for Inactive)
REMARK    1  A    between atoms: C_2  and  C_18
REMARK    2  A    between atoms: N_3  and  C_4
REMARK    3  A    between atoms: N_8  and  C_9
REMARK                            x       y       z     vdW  Elec       q    Type
REMARK                         _______ _______ _______ _____ _____    ______ ____
ROOT
ATOM      1  O   UNL     1       7.751   5.225  16.961  0.00  0.00    +0.000 OA
ATOM      2  C   UNL     1       6.935   5.493  16.081  0.00  0.00    +0.000 C 
ATOM      3  N   UNL     1       5.722   6.081  16.355  0.00  0.00    +0.000 N 
ATOM      4  H   UNL     1       5.083   6.200  15.572  0.00  0.00    +0.000 HD
ENDROOT
BRANCH   2   5
ATOM      5  C   UNL     1       7.194   5.253  14.654  0.00  0.00    +0.000 A 
ATOM      6  N   UNL     1       8.287   5.737  14.024  0.00  0.00    +0.000 NA
ATOM      7  N   UNL     1       8.189   5.227  12.781  0.00  0.00    +0.000 N 
ATOM      8  C   UNL     1       7.082   4.449  12.570  0.00  0.00    +0.000 A 
ATOM      9  C   UNL     1       6.637   3.739  11.450  0.00  0.00    +0.000 A 
ATOM     10  C   UNL     1       5.433   3.035  11.577  0.00  0.00    +0.000 A 
ATOM     11  C   UNL     1       4.712   3.042  12.769  0.00  0.00    +0.000 A 
ATOM     12  C   UNL     1       5.184   3.750  13.881  0.00  0.00    +0.000 A 
ATOM     13  C   UNL     1       6.394   4.464  13.777  0.00  0.00    +0.000 A 
ATOM     14  H   UNL     1       8.923   5.437  12.115  0.00  0.00    +0.000 HD
ENDBRANCH   2   5
BRANCH   3  15
ATOM     15  C   UNL     1       5.344   6.439  17.716  0.00  0.00    +0.000 C 
ATOM     16  C   UNL     1       4.687   7.815  17.764  0.00  0.00    +0.000 C 
ATOM     17  C   UNL     1       3.199   7.709  17.499  0.00  0.00    +0.000 C 
ATOM     18  C   UNL     1       2.590   6.850  18.595  0.00  0.00    +0.000 C 
ATOM     19  N   UNL     1       3.199   5.524  18.670  0.00  0.00    +0.000 N 
ATOM     20  C   UNL     1       4.536   5.284  18.338  0.00  0.00    +0.000 C 
ATOM     21  O   UNL     1       5.082   4.182  18.471  0.00  0.00    +0.000 OA
BRANCH  19  22
ATOM     22  C   UNL     1       2.484   4.515  19.392  0.00  0.00    +0.000 A 
ATOM     23  C   UNL     1       2.659   4.395  20.778  0.00  0.00    +0.000 A 
ATOM     24  C   UNL     1       1.935   3.449  21.509  0.00  0.00    +0.000 A 
ATOM     25  C   UNL     1       1.009   2.627  20.869  0.00  0.00    +0.000 A 
ATOM     26  C   UNL     1       0.830   2.728  19.492  0.00  0.00    +0.000 A 
ATOM     27  C   UNL     1       1.577   3.650  18.762  0.00  0.00    +0.000 A 
ATOM     28  F   UNL     1       1.342   3.740  17.443  0.00  0.00    +0.000 F 
ENDBRANCH  19  22
ENDBRANCH   3  15
TORSDOF 3
ENDMDL
MODEL 4
REMARK VINA RESULT:      -7.9      2.922      7.989
REMARK  Name = 
REMARK  3 active torsions:
REMARK  status: ('A' for Active; 'I' for Inactive)
REMARK    1  A    between atoms: C_2  and  C_18
REMARK    2  A    between atoms: N_3  and  C_4
REMARK    3  A    between atoms: N_8  and  C_9
REMARK                            x       y       z     vdW  Elec       q    Type
REMARK                         _______ _______ _______ _____ _____    ______ ____
ROOT
ATOM      1  O   UNL     1       2.094   5.247  18.361  0.00  0.00    +0.000 OA
ATOM      2  C   UNL     1       3.016   5.948  18.776  0.00  0.00    +0.000 C 
ATOM      3  N   UNL     1       2.800   7.146  19.415  0.00  0.00    +0.000 N 
ATOM      4  H   UNL     1       3.625   7.690  19.660  0.00  0.00    +0.000 HD
ENDROOT
BRANCH   2   5
ATOM      5  C   UNL     1       4.427   5.552  18.668  0.00  0.00    +0.000 A 
ATOM      6  N   UNL     1       5.181   5.252  19.748  0.00  0.00    +0.000 NA
ATOM      7  N   UNL     1       6.357   4.865  19.216  0.00  0.00    +0.000 N 
ATOM      8  C   UNL     1       6.408   4.912  17.849  0.00  0.00    +0.000 A 
ATOM      9  C   UNL     1       7.416   4.582  16.938  0.00  0.00    +0.000 A 
ATOM     10  C   UNL     1       7.132   4.758  15.578  0.00  0.00    +0.000 A 
ATOM     11  C   UNL     1       5.896   5.241  15.154  0.00  0.00    +0.000 A 
ATOM     12  C   UNL     1       4.897   5.554  16.084  0.00  0.00    +0.000 A 
ATOM     13  C   UNL     1       5.161   5.382  17.457  0.00  0.00    +0.000 A 
ATOM     14  H   UNL     1       7.094   4.564  19.844  0.00  0.00    +0.000 HD
ENDBRANCH   2   5
BRANCH   3  15
ATOM     15  C   UNL     1       1.453   7.646  19.655  0.00  0.00    +0.000 C 
ATOM     16  C   UNL     1       1.065   7.508  21.125  0.00  0.00    +0.000 C 
ATOM     17  C   UNL     1       1.531   8.712  21.918  0.00  0.00    +0.000 C 
ATOM     18  C   UNL     1       0.837   9.940  21.354  0.00  0.00    +0.000 C 
ATOM     19  N   UNL     1       1.099  10.126  19.928  0.00  0.00    +0.000 N 
ATOM     20  C   UNL     1       1.322   9.057  19.053  0.00  0.00    +0.000 C 
ATOM     21  O   UNL     1       1.468   9.198  17.833  0.00  0.00    +0.000 OA
BRANCH  19  22
ATOM     22  C   UNL     1       0.816  11.415  19.373  0.00  0.00    +0.000 A 
ATOM     23  C   UNL     1       1.855  12.336  19.186  0.00  0.00    +0.000 A 
ATOM     24  C   UNL     1       1.609  13.581  18.602  0.00  0.00    +0.000 A 
ATOM     25  C   UNL     1       0.325  13.913  18.174  0.00  0.00    +0.000 A 
ATOM     26  C   UNL     1      -0.720  13.012  18.359  0.00  0.00    +0.000 A 
ATOM     27  C   UNL     1      -0.477  11.784  18.971  0.00  0.00    +0.000 A 
ATOM     28  F   UNL     1      -1.507  10.932  19.094  0.00  0.00    +0.000 F 
ENDBRANCH  19  22
ENDBRANCH   3  15
TORSDOF 3
ENDMDL
MODEL 5
REMARK VINA RESULT:      -7.8      1.460      2.077
REMARK  Name = 
REMARK  3 active torsions:
REMARK  status: ('A' for Active; 'I' for Inactive)
REMARK    1  A    between atoms: C_2  and  C_18
REMARK    2  A    between atoms: N_3  and  C_4
REMARK    3  A    between atoms: N_8  and  C_9
REMARK                            x       y       z     vdW  Elec       q    Type
REMARK                         _______ _______ _______ _____ _____    ______ ____
ROOT
ATOM      1  O   UNL     1       0.012  12.229  18.620  0.00  0.00    +0.000 OA
ATOM      2  C   UNL     1      -0.665  11.220  18.432  0.00  0.00    +0.000 C 
ATOM      3  N   UNL     1      -0.188   9.955  18.684  0.00  0.00    +0.000 N 
ATOM      4  H   UNL     1      -0.795   9.177  18.431  0.00  0.00    +0.000 HD
ENDROOT
BRANCH   2   5
ATOM      5  C   UNL     1      -2.057  11.272  17.963  0.00  0.00    +0.000 A 
ATOM      6  N   UNL     1      -2.447  10.736  16.786  0.00  0.00    +0.000 NA
ATOM      7  N   UNL     1      -3.782  10.918  16.781  0.00  0.00    +0.000 N 
ATOM      8  C   UNL     1      -4.275  11.556  17.888  0.00  0.00    +0.000 A 
ATOM      9  C   UNL     1      -5.575  11.909  18.263  0.00  0.00    +0.000 A 
ATOM     10  C   UNL     1      -5.729  12.572  19.487  0.00  0.00    +0.000 A 
ATOM     11  C   UNL     1      -4.632  12.867  20.293  0.00  0.00    +0.000 A 
ATOM     12  C   UNL     1      -3.340  12.494  19.902  0.00  0.00    +0.000 A 
ATOM     13  C   UNL     1      -3.162  11.823  18.676  0.00  0.00    +0.000 A 
ATOM     14  H   UNL     1      -4.312  10.571  15.990  0.00  0.00    +0.000 HD
ENDBRANCH   2   5
BRANCH   3  15
ATOM     15  C   UNL     1       1.153   9.741  19.212  0.00  0.00    +0.000 C 
ATOM     16  C   UNL     1       1.120   9.474  20.714  0.00  0.00    +0.000 C 
ATOM     17  C   UNL     1       0.898   8.001  20.992  0.00  0.00    +0.000 C 
ATOM     18  C   UNL     1       2.065   7.233  20.396  0.00  0.00    +0.000 C 
ATOM     19  N   UNL     1       2.219   7.472  18.961  0.00  0.00    +0.000 N 
ATOM     20  C   UNL     1       1.872   8.684  18.354  0.00  0.00    +0.000 C 
ATOM     21  O   UNL     1       2.069   8.924  17.157  0.00  0.00    +0.000 OA
BRANCH  19  22
ATOM     22  C   UNL     1       3.026   6.547  18.226  0.00  0.00    +0.000 A 
ATOM     23  C   UNL     1       4.311   6.922  17.808  0.00  0.00    +0.000 A 
ATOM     24  C   UNL     1       5.133   6.018  17.132  0.00  0.00    +0.000 A 
ATOM     25  C   UNL     1       4.693   4.719  16.883  0.00  0.00    +0.000 A 
ATOM     26  C   UNL     1       3.417   4.333  17.284  0.00  0.00    +0.000 A 
ATOM     27  C   UNL     1       2.587   5.247  17.931  0.00  0.00    +0.000 A 
ATOM     28  F   UNL     1       1.380   4.819  18.333  0.00  0.00    +0.000 F 
ENDBRANCH  19  22
ENDBRANCH   3  15
TORSDOF 3
ENDMDL
MODEL 6
REMARK VINA RESULT:      -7.7      0.949      1.333
REMARK  Name = 
REMARK  3 active torsions:
REMARK  status: ('A' for Active; 'I' for Inactive)
REMARK    1  A    between atoms: C_2  and  C_18
REMARK    2  A    between atoms: N_3  and  C_4
REMARK    3  A    between atoms: N_8  and  C_9
REMARK                            x       y       z     vdW  Elec       q    Type
REMARK                         _______ _______ _______ _____ _____    ______ ____
ROOT
ATOM      1  O   UNL     1       0.454  11.821  20.075  0.00  0.00    +0.000 OA
ATOM      2  C   UNL     1      -0.245  11.019  19.458  0.00  0.00    +0.000 C 
ATOM      3  N   UNL     1       0.169   9.736  19.188  0.00  0.00    +0.000 N 
ATOM      4  H   UNL     1      -0.447   9.167  18.611  0.00  0.00    +0.000 HD
ENDROOT
BRANCH   2   5
ATOM      5  C   UNL     1      -1.601  11.340  18.992  0.00  0.00    +0.000 A 
ATOM      6  N   UNL     1      -2.418  12.182  19.662  0.00  0.00    +0.000 NA
ATOM      7  N   UNL     1      -3.505  12.268  18.868  0.00  0.00    +0.000 N 
ATOM      8  C   UNL     1      -3.439  11.514  17.728  0.00  0.00    +0.000 A 
ATOM      9  C   UNL     1      -4.330  11.347  16.663  0.00  0.00    +0.000 A 
ATOM     10  C   UNL     1      -3.943  10.478  15.635  0.00  0.00    +0.000 A 
ATOM     11  C   UNL     1      -2.722   9.809  15.674  0.00  0.00    +0.000 A 
ATOM     12  C   UNL     1      -1.840  10.001  16.745  0.00  0.00    +0.000 A 
ATOM     13  C   UNL     1      -2.208  10.872  17.789  0.00  0.00    +0.000 A 
ATOM     14  H   UNL     1      -4.265  12.873  19.157  0.00  0.00    +0.000 HD
ENDBRANCH   2   5
BRANCH   3  15
ATOM     15  C   UNL     1       1.465   9.246  19.640  0.00  0.00    +0.000 C 
ATOM     16  C   UNL     1       1.445   8.924  21.132  0.00  0.00    +0.000 C 
ATOM     17  C   UNL     1       0.954   7.509  21.368  0.00  0.00    +0.000 C 
ATOM     18  C   UNL     1       1.924   6.559  20.687  0.00  0.00    +0.000 C 
ATOM     19  N   UNL     1       2.060   6.828  19.256  0.00  0.00    +0.000 N 
ATOM     20  C   UNL     1       1.929   8.109  18.710  0.00  0.00    +0.000 C 
ATOM     21  O   UNL     1       2.117   8.361  17.514  0.00  0.00    +0.000 OA
BRANCH  19  22
ATOM     22  C   UNL     1       2.641   5.799  18.448  0.00  0.00    +0.000 A 
ATOM     23  C   UNL     1       1.875   4.683  18.085  0.00  0.00    +0.000 A 
ATOM     24  C   UNL     1       2.408   3.691  17.258  0.00  0.00    +0.000 A 
ATOM     25  C   UNL     1       3.705   3.812  16.763  0.00  0.00    +0.000 A 
ATOM     26  C   UNL     1       4.482   4.911  17.120  0.00  0.00    +0.000 A 
ATOM     27  C   UNL     1       3.958   5.882  17.971  0.00  0.00    +0.000 A 
ATOM     28  F   UNL     1       4.729   6.943  18.257  0.00  0.00    +0.000 F 
ENDBRANCH  19  22
ENDBRANCH   3  15
TORSDOF 3
ENDMDL
MODEL 7
REMARK VINA RESULT:      -7.6      3.240      8.081
REMARK  Name = 
REMARK  3 active torsions:
REMARK  status: ('A' for Active; 'I' for Inactive)
REMARK    1  A    between atoms: C_2  and  C_18
REMARK    2  A    between atoms: N_3  and  C_4
REMARK    3  A    between atoms: N_8  and  C_9
REMARK                            x       y       z     vdW  Elec       q    Type
REMARK                         _______ _______ _______ _____ _____    ______ ____
ROOT
ATOM      1  O   UNL     1       2.972   7.764  18.358  0.00  0.00    +0.000 OA
ATOM      2  C   UNL     1       2.199   7.429  19.255  0.00  0.00    +0.000 C 
ATOM      3  N   UNL     1       1.361   8.324  19.878  0.00  0.00    +0.000 N 
ATOM      4  H   UNL     1       0.808   7.969  20.655  0.00  0.00    +0.000 HD
ENDROOT
BRANCH   2   5
ATOM      5  C   UNL     1       2.067   6.039  19.713  0.00  0.00    +0.000 A 
ATOM      6  N   UNL     1       1.688   5.723  20.971  0.00  0.00    +0.000 NA
ATOM      7  N   UNL     1       1.608   4.377  20.950  0.00  0.00    +0.000 N 
ATOM      8  C   UNL     1       1.930   3.806  19.748  0.00  0.00    +0.000 A 
ATOM      9  C   UNL     1       1.953   2.475  19.321  0.00  0.00    +0.000 A 
ATOM     10  C   UNL     1       2.343   2.234  17.997  0.00  0.00    +0.000 A 
ATOM     11  C   UNL     1       2.692   3.280  17.145  0.00  0.00    +0.000 A 
ATOM     12  C   UNL     1       2.651   4.606  17.591  0.00  0.00    +0.000 A 
ATOM     13  C   UNL     1       2.259   4.871  18.918  0.00  0.00    +0.000 A 
ATOM     14  H   UNL     1       1.315   3.899  21.793  0.00  0.00    +0.000 HD
ENDBRANCH   2   5
BRANCH   3  15
ATOM     15  C   UNL     1       1.329   9.728  19.491  0.00  0.00    +0.000 C 
ATOM     16  C   UNL     1       0.608   9.920  18.160  0.00  0.00    +0.000 C 
ATOM     17  C   UNL     1      -0.886  10.061  18.374  0.00  0.00    +0.000 C 
ATOM     18  C   UNL     1      -1.119  11.297  19.227  0.00  0.00    +0.000 C 
ATOM     19  N   UNL     1      -0.415  11.236  20.507  0.00  0.00    +0.000 N 
ATOM     20  C   UNL     1       0.801  10.566  20.671  0.00  0.00    +0.000 C 
ATOM     21  O   UNL     1       1.443  10.573  21.728  0.00  0.00    +0.000 OA
BRANCH  19  22
ATOM     22  C   UNL     1      -0.838  12.143  21.531  0.00  0.00    +0.000 A 
ATOM     23  C   UNL     1      -1.817  11.747  22.451  0.00  0.00    +0.000 A 
ATOM     24  C   UNL     1      -2.209  12.599  23.487  0.00  0.00    +0.000 A 
ATOM     25  C   UNL     1      -1.611  13.850  23.631  0.00  0.00    +0.000 A 
ATOM     26  C   UNL     1      -0.642  14.261  22.721  0.00  0.00    +0.000 A 
ATOM     27  C   UNL     1      -0.276  13.422  21.670  0.00  0.00    +0.000 A 
ATOM     28  F   UNL     1       0.690  13.845  20.839  0.00  0.00    +0.000 F 
ENDBRANCH  19  22
ENDBRANCH   3  15
TORSDOF 3
ENDMDL
MODEL 8
REMARK VINA RESULT:      -7.6      3.255      4.968
REMARK  Name = 
REMARK  3 active torsions:
REMARK  status: ('A' for Active; 'I' for Inactive)
REMARK    1  A    between atoms: C_2  and  C_18
REMARK    2  A    between atoms: N_3  and  C_4
REMARK    3  A    between atoms: N_8  and  C_9
REMARK                            x       y       z     vdW  Elec       q    Type
REMARK                         _______ _______ _______ _____ _____    ______ ____
ROOT
ATOM      1  O   UNL     1      -4.046  11.706  16.879  0.00  0.00    +0.000 OA
ATOM      2  C   UNL     1      -4.134  11.606  18.102  0.00  0.00    +0.000 C 
ATOM      3  N   UNL     1      -3.042  11.719  18.930  0.00  0.00    +0.000 N 
ATOM      4  H   UNL     1      -3.200  11.552  19.922  0.00  0.00    +0.000 HD
ENDROOT
BRANCH   2   5
ATOM      5  C   UNL     1      -5.414  11.401  18.794  0.00  0.00    +0.000 A 
ATOM      6  N   UNL     1      -6.360  10.554  18.333  0.00  0.00    +0.000 NA
ATOM      7  N   UNL     1      -7.314  10.595  19.285  0.00  0.00    +0.000 N 
ATOM      8  C   UNL     1      -7.039  11.435  20.331  0.00  0.00    +0.000 A 
ATOM      9  C   UNL     1      -7.747  11.738  21.499  0.00  0.00    +0.000 A 
ATOM     10  C   UNL     1      -7.169  12.664  22.375  0.00  0.00    +0.000 A 
ATOM     11  C   UNL     1      -5.940  13.258  22.092  0.00  0.00    +0.000 A 
ATOM     12  C   UNL     1      -5.244  12.931  20.922  0.00  0.00    +0.000 A 
ATOM     13  C   UNL     1      -5.806  11.999  20.028  0.00  0.00    +0.000 A 
ATOM     14  H   UNL     1      -8.134  10.012  19.170  0.00  0.00    +0.000 HD
ENDBRANCH   2   5
BRANCH   3  15
ATOM     15  C   UNL     1      -1.712  11.987  18.399  0.00  0.00    +0.000 C 
ATOM     16  C   UNL     1      -1.050  13.154  19.125  0.00  0.00    +0.000 C 
ATOM     17  C   UNL     1      -0.333  12.674  20.371  0.00  0.00    +0.000 C 
ATOM     18  C   UNL     1       0.753  11.703  19.939  0.00  0.00    +0.000 C 
ATOM     19  N   UNL     1       0.222  10.573  19.178  0.00  0.00    +0.000 N 
ATOM     20  C   UNL     1      -0.909  10.673  18.362  0.00  0.00    +0.000 C 
ATOM     21  O   UNL     1      -1.320   9.746  17.655  0.00  0.00    +0.000 OA
BRANCH  19  22
ATOM     22  C   UNL     1       1.067   9.426  19.036  0.00  0.00    +0.000 A 
ATOM     23  C   UNL     1       1.793   9.238  17.852  0.00  0.00    +0.000 A 
ATOM     24  C   UNL     1       2.660   8.150  17.712  0.00  0.00    +0.000 A 
ATOM     25  C   UNL     1       2.831   7.249  18.761  0.00  0.00    +0.000 A 
ATOM     26  C   UNL     1       2.111   7.418  19.941  0.00  0.00    +0.000 A 
ATOM     27  C   UNL     1       1.223   8.485  20.066  0.00  0.00    +0.000 A 
ATOM     28  F   UNL     1       0.580   8.629  21.235  0.00  0.00    +0.000 F 
ENDBRANCH  19  22
ENDBRANCH   3  15
TORSDOF 3
ENDMDL
MODEL 9
REMARK VINA RESULT:      -7.5      2.232      7.705
REMARK  Name = 
REMARK  3 active torsions:
REMARK  status: ('A' for Active; 'I' for Inactive)
REMARK    1  A    between atoms: C_2  and  C_18
REMARK    2  A    between atoms: N_3  and  C_4
REMARK    3  A    between atoms: N_8  and  C_9
REMARK                            x       y       z     vdW  Elec       q    Type
REMARK                         _______ _______ _______ _____ _____    ______ ____
ROOT
ATOM      1  O   UNL     1       1.503   7.818  20.468  0.00  0.00    +0.000 OA
ATOM      2  C   UNL     1       1.836   8.181  19.341  0.00  0.00    +0.000 C 
ATOM      3  N   UNL     1       1.475   9.402  18.823  0.00  0.00    +0.000 N 
ATOM      4  H   UNL     1       1.737   9.586  17.857  0.00  0.00    +0.000 HD
ENDROOT
BRANCH   2   5
ATOM      5  C   UNL     1       2.687   7.366  18.462  0.00  0.00    +0.000 A 
ATOM      6  N   UNL     1       3.687   7.897  17.724  0.00  0.00    +0.000 NA
ATOM      7  N   UNL     1       4.258   6.823  17.145  0.00  0.00    +0.000 N 
ATOM      8  C   UNL     1       3.671   5.626  17.458  0.00  0.00    +0.000 A 
ATOM      9  C   UNL     1       3.971   4.311  17.086  0.00  0.00    +0.000 A 
ATOM     10  C   UNL     1       3.146   3.300  17.595  0.00  0.00    +0.000 A 
ATOM     11  C   UNL     1       2.075   3.594  18.435  0.00  0.00    +0.000 A 
ATOM     12  C   UNL     1       1.801   4.917  18.803  0.00  0.00    +0.000 A 
ATOM     13  C   UNL     1       2.619   5.950  18.305  0.00  0.00    +0.000 A 
ATOM     14  H   UNL     1       5.063   6.970  16.547  0.00  0.00    +0.000 HD
ENDBRANCH   2   5
BRANCH   3  15
ATOM     15  C   UNL     1       0.685  10.350  19.598  0.00  0.00    +0.000 C 
ATOM     16  C   UNL     1       1.367  11.713  19.668  0.00  0.00    +0.000 C 
ATOM     17  C   UNL     1       0.998  12.560  18.466  0.00  0.00    +0.000 C 
ATOM     18  C   UNL     1      -0.505  12.777  18.493  0.00  0.00    +0.000 C 
ATOM     19  N   UNL     1      -1.253  11.520  18.490  0.00  0.00    +0.000 N 
ATOM     20  C   UNL     1      -0.764  10.347  19.076  0.00  0.00    +0.000 C 
ATOM     21  O   UNL     1      -1.419   9.301  19.147  0.00  0.00    +0.000 OA
BRANCH  19  22
ATOM     22  C   UNL     1      -2.641  11.584  18.147  0.00  0.00    +0.000 A 
ATOM     23  C   UNL     1      -3.576  12.001  19.104  0.00  0.00    +0.000 A 
ATOM     24  C   UNL     1      -4.930  12.117  18.776  0.00  0.00    +0.000 A 
ATOM     25  C   UNL     1      -5.364  11.841  17.480  0.00  0.00    +0.000 A 
ATOM     26  C   UNL     1      -4.448  11.418  16.520  0.00  0.00    +0.000 A 
ATOM     27  C   UNL     1      -3.104  11.273  16.860  0.00  0.00    +0.000 A 
ATOM     28  F   UNL     1      -2.252  10.900  15.892  0.00  0.00    +0.000 F 
ENDBRANCH  19  22
ENDBRANCH   3  15
TORSDOF 3
ENDMDL
