MODEL 1
REMARK VINA RESULT:      -8.4      0.000      0.000
REMARK  Name = 
REMARK  4 active torsions:
REMARK  status: ('A' for Active; 'I' for Inactive)
REMARK    1  A    between atoms: C_2  and  C_18
REMARK    2  A    between atoms: N_3  and  C_4
REMARK    3  A    between atoms: C_7  and  O_8
REMARK    4  A    between atoms: O_8  and  C_9
REMARK                            x       y       z     vdW  Elec       q    Type
REMARK                         _______ _______ _______ _____ _____    ______ ____
ROOT
ATOM      1  O   UNL     1       1.380  11.765  21.107  0.00  0.00    +0.000 OA
ATOM      2  C   UNL     1       0.261  11.305  20.897  0.00  0.00    +0.000 C 
ATOM      3  N   UNL     1      -0.014  10.136  20.215  0.00  0.00    +0.000 N 
ATOM      4  H   UNL     1      -0.995   9.933  20.017  0.00  0.00    +0.000 HD
ENDROOT
BRANCH   2   5
ATOM      5  C   UNL     1      -0.932  12.062  21.369  0.00  0.00    +0.000 A 
ATOM      6  C   UNL     1      -1.437  12.989  20.547  0.00  0.00    +0.000 A 
ATOM      7  N   UNL     1      -2.547  13.750  20.792  0.00  0.00    +0.000 NA
ATOM      8  C   UNL     1      -3.191  13.516  21.891  0.00  0.00    +0.000 A 
ATOM      9  C   UNL     1      -4.434  14.282  22.165  0.00  0.00    +0.000 A 
ATOM     10  C   UNL     1      -5.131  14.040  23.280  0.00  0.00    +0.000 A 
ATOM     11  C   UNL     1      -4.682  13.049  24.221  0.00  0.00    +0.000 A 
ATOM     12  C   UNL     1      -3.555  12.365  23.987  0.00  0.00    +0.000 A 
ATOM     13  N   UNL     1      -2.797  12.577  22.839  0.00  0.00    +0.000 N 
ATOM     14  C   UNL     1      -1.625  11.849  22.653  0.00  0.00    +0.000 A 
ATOM     15  O   UNL     1      -1.152  11.062  23.478  0.00  0.00    +0.000 OA
ENDBRANCH   2   5
BRANCH   3  16
ATOM     16  C   UNL     1       0.939   9.284  19.619  0.00  0.00    +0.000 A 
ATOM     17  C   UNL     1       1.356   9.421  18.293  0.00  0.00    +0.000 A 
ATOM     18  C   UNL     1       2.215   8.488  17.713  0.00  0.00    +0.000 A 
ATOM     19  C   UNL     1       2.740   7.448  18.477  0.00  0.00    +0.000 A 
ATOM     20  C   UNL     1       2.346   7.314  19.810  0.00  0.00    +0.000 A 
ATOM     21  C   UNL     1       1.456   8.232  20.383  0.00  0.00    +0.000 A 
BRANCH  19  22
ATOM     22  O   UNL     1       3.594   6.486  17.994  0.00  0.00    +0.000 OA
BRANCH  22  23
ATOM     23  C   UNL     1       3.186   5.170  17.918  0.00  0.00    +0.000 A 
ATOM     24  C   UNL     1       1.840   4.783  17.959  0.00  0.00    +0.000 A 
ATOM     25  C   UNL     1       1.487   3.435  17.885  0.00  0.00    +0.000 A 
ATOM     26  C   UNL     1       2.469   2.466  17.703  0.00  0.00    +0.000 A 
ATOM     27  C   UNL     1       3.809   2.844  17.601  0.00  0.00    +0.000 A 
ATOM     28  C   UNL     1       4.168   4.191  17.711  0.00  0.00    +0.000 A 
ATOM     29 CL   UNL     1       5.842   4.600  17.581  0.00  0.00    +0.000 Cl
ENDBRANCH  22  23
ENDBRANCH  19  22
ENDBRANCH   3  16
TORSDOF 4
ENDMDL
MODEL 2
REMARK VINA RESULT:      -8.3      1.930      3.054
REMARK  Name = 
REMARK  4 active torsions:
REMARK  status: ('A' for Active; 'I' for Inactive)
REMARK    1  A    between atoms: C_2  and  C_18
REMARK    2  A    between atoms: N_3  and  C_4
REMARK    3  A    between atoms: C_7  and  O_8
REMARK    4  A    between atoms: O_8  and  C_9
REMARK                            x       y       z     vdW  Elec       q    Type
REMARK                         _______ _______ _______ _____ _____    ______ ____
ROOT
ATOM      1  O   UNL     1       1.929   9.035  22.374  0.00  0.00    +0.000 OA
ATOM      2  C   UNL     1       0.995   9.097  21.578  0.00  0.00    +0.000 C 
ATOM      3  N   UNL     1       0.853   8.325  20.441  0.00  0.00    +0.000 N 
ATOM      4  H   UNL     1       0.085   8.561  19.811  0.00  0.00    +0.000 HD
ENDROOT
BRANCH   2   5
ATOM      5  C   UNL     1      -0.079  10.104  21.802  0.00  0.00    +0.000 A 
ATOM      6  C   UNL     1      -0.545  10.241  23.048  0.00  0.00    +0.000 A 
ATOM      7  N   UNL     1      -1.496  11.139  23.447  0.00  0.00    +0.000 NA
ATOM      8  C   UNL     1      -1.946  11.959  22.552  0.00  0.00    +0.000 A 
ATOM      9  C   UNL     1      -2.938  12.987  22.961  0.00  0.00    +0.000 A 
ATOM     10  C   UNL     1      -3.397  13.862  22.060  0.00  0.00    +0.000 A 
ATOM     11  C   UNL     1      -2.946  13.810  20.695  0.00  0.00    +0.000 A 
ATOM     12  C   UNL     1      -2.062  12.878  20.317  0.00  0.00    +0.000 A 
ATOM     13  N   UNL     1      -1.551  11.948  21.218  0.00  0.00    +0.000 N 
ATOM     14  C   UNL     1      -0.647  10.989  20.767  0.00  0.00    +0.000 A 
ATOM     15  O   UNL     1      -0.307  10.847  19.589  0.00  0.00    +0.000 OA
ENDBRANCH   2   5
BRANCH   3  16
ATOM     16  C   UNL     1       1.768   7.353  19.983  0.00  0.00    +0.000 A 
ATOM     17  C   UNL     1       2.546   7.525  18.837  0.00  0.00    +0.000 A 
ATOM     18  C   UNL     1       3.353   6.493  18.358  0.00  0.00    +0.000 A 
ATOM     19  C   UNL     1       3.461   5.301  19.070  0.00  0.00    +0.000 A 
ATOM     20  C   UNL     1       2.703   5.126  20.229  0.00  0.00    +0.000 A 
ATOM     21  C   UNL     1       1.866   6.150  20.690  0.00  0.00    +0.000 A 
BRANCH  19  22
ATOM     22  O   UNL     1       4.232   4.232  18.679  0.00  0.00    +0.000 OA
BRANCH  22  23
ATOM     23  C   UNL     1       5.108   4.358  17.619  0.00  0.00    +0.000 A 
ATOM     24  C   UNL     1       4.769   4.013  16.303  0.00  0.00    +0.000 A 
ATOM     25  C   UNL     1       5.699   4.155  15.272  0.00  0.00    +0.000 A 
ATOM     26  C   UNL     1       6.952   4.704  15.532  0.00  0.00    +0.000 A 
ATOM     27  C   UNL     1       7.278   5.107  16.828  0.00  0.00    +0.000 A 
ATOM     28  C   UNL     1       6.361   4.933  17.870  0.00  0.00    +0.000 A 
ATOM     29 CL   UNL     1       6.821   5.446  19.454  0.00  0.00    +0.000 Cl
ENDBRANCH  22  23
ENDBRANCH  19  22
ENDBRANCH   3  16
TORSDOF 4
ENDMDL
MODEL 3
REMARK VINA RESULT:      -8.2      2.034      2.840
REMARK  Name = 
REMARK  4 active torsions:
REMARK  status: ('A' for Active; 'I' for Inactive)
REMARK    1  A    between atoms: C_2  and  C_18
REMARK    2  A    between atoms: N_3  and  C_4
REMARK    3  A    between atoms: C_7  and  O_8
REMARK    4  A    between atoms: O_8  and  C_9
REMARK                            x       y       z     vdW  Elec       q    Type
REMARK                         _______ _______ _______ _____ _____    ______ ____
ROOT
ATOM      1  O   UNL     1       1.586  10.240  18.092  0.00  0.00    +0.000 OA
ATOM      2  C   UNL     1       1.043   9.847  19.122  0.00  0.00    +0.000 C 
ATOM      3  N   UNL     1       1.297   8.648  19.759  0.00  0.00    +0.000 N 
ATOM      4  H   UNL     1       0.692   8.401  20.543  0.00  0.00    +0.000 HD
ENDROOT
BRANCH   2   5
ATOM      5  C   UNL     1      -0.012  10.690  19.749  0.00  0.00    +0.000 A 
ATOM      6  C   UNL     1      -0.915  11.252  18.937  0.00  0.00    +0.000 A 
ATOM      7  N   UNL     1      -1.973  12.020  19.336  0.00  0.00    +0.000 NA
ATOM      8  C   UNL     1      -2.144  12.174  20.610  0.00  0.00    +0.000 A 
ATOM      9  C   UNL     1      -3.317  12.954  21.082  0.00  0.00    +0.000 A 
ATOM     10  C   UNL     1      -3.530  13.104  22.394  0.00  0.00    +0.000 A 
ATOM     11  C   UNL     1      -2.627  12.524  23.351  0.00  0.00    +0.000 A 
ATOM     12  C   UNL     1      -1.560  11.831  22.932  0.00  0.00    +0.000 A 
ATOM     13  N   UNL     1      -1.298  11.643  21.578  0.00  0.00    +0.000 N 
ATOM     14  C   UNL     1      -0.166  10.928  21.197  0.00  0.00    +0.000 A 
ATOM     15  O   UNL     1       0.686  10.497  21.980  0.00  0.00    +0.000 OA
ENDBRANCH   2   5
BRANCH   3  16
ATOM     16  C   UNL     1       2.201   7.656  19.323  0.00  0.00    +0.000 A 
ATOM     17  C   UNL     1       2.936   7.765  18.141  0.00  0.00    +0.000 A 
ATOM     18  C   UNL     1       3.732   6.711  17.693  0.00  0.00    +0.000 A 
ATOM     19  C   UNL     1       3.872   5.561  18.467  0.00  0.00    +0.000 A 
ATOM     20  C   UNL     1       3.156   5.450  19.661  0.00  0.00    +0.000 A 
ATOM     21  C   UNL     1       2.331   6.495  20.093  0.00  0.00    +0.000 A 
BRANCH  19  22
ATOM     22  O   UNL     1       4.635   4.475  18.109  0.00  0.00    +0.000 OA
BRANCH  22  23
ATOM     23  C   UNL     1       5.359   4.492  16.934  0.00  0.00    +0.000 A 
ATOM     24  C   UNL     1       4.791   4.219  15.682  0.00  0.00    +0.000 A 
ATOM     25  C   UNL     1       5.574   4.243  14.527  0.00  0.00    +0.000 A 
ATOM     26  C   UNL     1       6.917   4.605  14.603  0.00  0.00    +0.000 A 
ATOM     27  C   UNL     1       7.480   4.936  15.836  0.00  0.00    +0.000 A 
ATOM     28  C   UNL     1       6.705   4.878  16.999  0.00  0.00    +0.000 A 
ATOM     29 CL   UNL     1       7.455   5.295  18.499  0.00  0.00    +0.000 Cl
ENDBRANCH  22  23
ENDBRANCH  19  22
ENDBRANCH   3  16
TORSDOF 4
ENDMDL
MODEL 4
REMARK VINA RESULT:      -8.2      1.060      1.694
REMARK  Name = 
REMARK  4 active torsions:
REMARK  status: ('A' for Active; 'I' for Inactive)
REMARK    1  A    between atoms: C_2  and  C_18
REMARK    2  A    between atoms: N_3  and  C_4
REMARK    3  A    between atoms: C_7  and  O_8
REMARK    4  A    between atoms: O_8  and  C_9
REMARK                            x       y       z     vdW  Elec       q    Type
REMARK                         _______ _______ _______ _____ _____    ______ ____
ROOT
ATOM      1  O   UNL     1       0.961  11.819  21.439  0.00  0.00    +0.000 OA
ATOM      2  C   UNL     1      -0.134  11.288  21.265  0.00  0.00    +0.000 C 
ATOM      3  N   UNL     1      -0.360  10.117  20.568  0.00  0.00    +0.000 N 
ATOM      4  H   UNL     1      -1.333   9.852  20.407  0.00  0.00    +0.000 HD
ENDROOT
BRANCH   2   5
ATOM      5  C   UNL     1      -1.353  11.953  21.805  0.00  0.00    +0.000 A 
ATOM      6  C   UNL     1      -1.784  11.564  23.009  0.00  0.00    +0.000 A 
ATOM      7  N   UNL     1      -2.856  12.088  23.677  0.00  0.00    +0.000 NA
ATOM      8  C   UNL     1      -3.474  13.079  23.117  0.00  0.00    +0.000 A 
ATOM      9  C   UNL     1      -4.607  13.712  23.839  0.00  0.00    +0.000 A 
ATOM     10  C   UNL     1      -5.243  14.754  23.293  0.00  0.00    +0.000 A 
ATOM     11  C   UNL     1      -4.844  15.261  22.007  0.00  0.00    +0.000 A 
ATOM     12  C   UNL     1      -3.832  14.686  21.345  0.00  0.00    +0.000 A 
ATOM     13  N   UNL     1      -3.136  13.603  21.873  0.00  0.00    +0.000 N 
ATOM     14  C   UNL     1      -2.102  13.033  21.135  0.00  0.00    +0.000 A 
ATOM     15  O   UNL     1      -1.791  13.372  19.989  0.00  0.00    +0.000 OA
ENDBRANCH   2   5
BRANCH   3  16
ATOM     16  C   UNL     1       0.621   9.344  19.912  0.00  0.00    +0.000 A 
ATOM     17  C   UNL     1       0.979   9.545  18.578  0.00  0.00    +0.000 A 
ATOM     18  C   UNL     1       1.871   8.684  17.939  0.00  0.00    +0.000 A 
ATOM     19  C   UNL     1       2.487   7.658  18.652  0.00  0.00    +0.000 A 
ATOM     20  C   UNL     1       2.152   7.461  19.993  0.00  0.00    +0.000 A 
ATOM     21  C   UNL     1       1.230   8.305  20.625  0.00  0.00    +0.000 A 
BRANCH  19  22
ATOM     22  O   UNL     1       3.380   6.765  18.108  0.00  0.00    +0.000 OA
BRANCH  22  23
ATOM     23  C   UNL     1       3.156   5.407  18.214  0.00  0.00    +0.000 A 
ATOM     24  C   UNL     1       1.977   4.791  17.773  0.00  0.00    +0.000 A 
ATOM     25  C   UNL     1       1.803   3.413  17.912  0.00  0.00    +0.000 A 
ATOM     26  C   UNL     1       2.830   2.629  18.432  0.00  0.00    +0.000 A 
ATOM     27  C   UNL     1       4.032   3.225  18.819  0.00  0.00    +0.000 A 
ATOM     28  C   UNL     1       4.195   4.609  18.713  0.00  0.00    +0.000 A 
ATOM     29 CL   UNL     1       5.702   5.292  19.211  0.00  0.00    +0.000 Cl
ENDBRANCH  22  23
ENDBRANCH  19  22
ENDBRANCH   3  16
TORSDOF 4
ENDMDL
MODEL 5
REMARK VINA RESULT:      -8.2      1.725      2.430
REMARK  Name = 
REMARK  4 active torsions:
REMARK  status: ('A' for Active; 'I' for Inactive)
REMARK    1  A    between atoms: C_2  and  C_18
REMARK    2  A    between atoms: N_3  and  C_4
REMARK    3  A    between atoms: C_7  and  O_8
REMARK    4  A    between atoms: O_8  and  C_9
REMARK                            x       y       z     vdW  Elec       q    Type
REMARK                         _______ _______ _______ _____ _____    ______ ____
ROOT
ATOM      1  O   UNL     1       1.892   9.416  22.141  0.00  0.00    +0.000 OA
ATOM      2  C   UNL     1       1.018   9.521  21.282  0.00  0.00    +0.000 C 
ATOM      3  N   UNL     1       0.903   8.737  20.151  0.00  0.00    +0.000 N 
ATOM      4  H   UNL     1       0.195   9.009  19.467  0.00  0.00    +0.000 HD
ENDROOT
BRANCH   2   5
ATOM      5  C   UNL     1      -0.000  10.599  21.417  0.00  0.00    +0.000 A 
ATOM      6  C   UNL     1      -0.190  11.402  20.364  0.00  0.00    +0.000 A 
ATOM      7  N   UNL     1      -1.106  12.414  20.290  0.00  0.00    +0.000 NA
ATOM      8  C   UNL     1      -1.890  12.576  21.308  0.00  0.00    +0.000 A 
ATOM      9  C   UNL     1      -2.936  13.628  21.242  0.00  0.00    +0.000 A 
ATOM     10  C   UNL     1      -3.775  13.796  22.270  0.00  0.00    +0.000 A 
ATOM     11  C   UNL     1      -3.665  12.972  23.444  0.00  0.00    +0.000 A 
ATOM     12  C   UNL     1      -2.716  12.031  23.516  0.00  0.00    +0.000 A 
ATOM     13  N   UNL     1      -1.822  11.814  22.470  0.00  0.00    +0.000 N 
ATOM     14  C   UNL     1      -0.844  10.832  22.604  0.00  0.00    +0.000 A 
ATOM     15  O   UNL     1      -0.652  10.170  23.628  0.00  0.00    +0.000 OA
ENDBRANCH   2   5
BRANCH   3  16
ATOM     16  C   UNL     1       1.781   7.700  19.771  0.00  0.00    +0.000 A 
ATOM     17  C   UNL     1       2.549   7.746  18.606  0.00  0.00    +0.000 A 
ATOM     18  C   UNL     1       3.318   6.650  18.213  0.00  0.00    +0.000 A 
ATOM     19  C   UNL     1       3.397   5.522  19.026  0.00  0.00    +0.000 A 
ATOM     20  C   UNL     1       2.649   5.474  20.204  0.00  0.00    +0.000 A 
ATOM     21  C   UNL     1       1.850   6.561  20.581  0.00  0.00    +0.000 A 
BRANCH  19  22
ATOM     22  O   UNL     1       4.130   4.399  18.722  0.00  0.00    +0.000 OA
BRANCH  22  23
ATOM     23  C   UNL     1       5.032   4.419  17.678  0.00  0.00    +0.000 A 
ATOM     24  C   UNL     1       4.692   4.054  16.368  0.00  0.00    +0.000 A 
ATOM     25  C   UNL     1       5.649   4.088  15.352  0.00  0.00    +0.000 A 
ATOM     26  C   UNL     1       6.935   4.547  15.620  0.00  0.00    +0.000 A 
ATOM     27  C   UNL     1       7.269   4.968  16.909  0.00  0.00    +0.000 A 
ATOM     28  C   UNL     1       6.322   4.902  17.935  0.00  0.00    +0.000 A 
ATOM     29 CL   UNL     1       6.792   5.434  19.511  0.00  0.00    +0.000 Cl
ENDBRANCH  22  23
ENDBRANCH  19  22
ENDBRANCH   3  16
TORSDOF 4
ENDMDL
MODEL 6
REMARK VINA RESULT:      -8.2      1.759      2.405
REMARK  Name = 
REMARK  4 active torsions:
REMARK  status: ('A' for Active; 'I' for Inactive)
REMARK    1  A    between atoms: C_2  and  C_18
REMARK    2  A    between atoms: N_3  and  C_4
REMARK    3  A    between atoms: C_7  and  O_8
REMARK    4  A    between atoms: O_8  and  C_9
REMARK                            x       y       z     vdW  Elec       q    Type
REMARK                         _______ _______ _______ _____ _____    ______ ____
ROOT
ATOM      1  O   UNL     1       1.524  10.844  21.501  0.00  0.00    +0.000 OA
ATOM      2  C   UNL     1       0.458  10.693  20.908  0.00  0.00    +0.000 C 
ATOM      3  N   UNL     1       0.235   9.817  19.863  0.00  0.00    +0.000 N 
ATOM      4  H   UNL     1      -0.668   9.877  19.391  0.00  0.00    +0.000 HD
ENDROOT
BRANCH   2   5
ATOM      5  C   UNL     1      -0.709  11.534  21.294  0.00  0.00    +0.000 A 
ATOM      6  C   UNL     1      -1.181  12.389  20.380  0.00  0.00    +0.000 A 
ATOM      7  N   UNL     1      -2.264  13.207  20.541  0.00  0.00    +0.000 NA
ATOM      8  C   UNL     1      -2.918  13.108  21.655  0.00  0.00    +0.000 A 
ATOM      9  C   UNL     1      -4.135  13.940  21.843  0.00  0.00    +0.000 A 
ATOM     10  C   UNL     1      -4.842  13.835  22.973  0.00  0.00    +0.000 A 
ATOM     11  C   UNL     1      -4.428  12.931  24.012  0.00  0.00    +0.000 A 
ATOM     12  C   UNL     1      -3.325  12.189  23.854  0.00  0.00    +0.000 A 
ATOM     13  N   UNL     1      -2.558  12.258  22.695  0.00  0.00    +0.000 N 
ATOM     14  C   UNL     1      -1.411  11.475  22.590  0.00  0.00    +0.000 A 
ATOM     15  O   UNL     1      -0.967  10.760  23.493  0.00  0.00    +0.000 OA
ENDBRANCH   2   5
BRANCH   3  16
ATOM     16  C   UNL     1       1.197   8.967  19.278  0.00  0.00    +0.000 A 
ATOM     17  C   UNL     1       1.713   9.174  17.997  0.00  0.00    +0.000 A 
ATOM     18  C   UNL     1       2.577   8.246  17.416  0.00  0.00    +0.000 A 
ATOM     19  C   UNL     1       3.007   7.138  18.141  0.00  0.00    +0.000 A 
ATOM     20  C   UNL     1       2.513   6.933  19.432  0.00  0.00    +0.000 A 
ATOM     21  C   UNL     1       1.619   7.847  20.002  0.00  0.00    +0.000 A 
BRANCH  19  22
ATOM     22  O   UNL     1       3.858   6.175  17.654  0.00  0.00    +0.000 OA
BRANCH  22  23
ATOM     23  C   UNL     1       5.212   6.248  17.914  0.00  0.00    +0.000 A 
ATOM     24  C   UNL     1       6.051   7.209  17.333  0.00  0.00    +0.000 A 
ATOM     25  C   UNL     1       7.415   7.230  17.628  0.00  0.00    +0.000 A 
ATOM     26  C   UNL     1       7.942   6.335  18.556  0.00  0.00    +0.000 A 
ATOM     27  C   UNL     1       7.105   5.413  19.186  0.00  0.00    +0.000 A 
ATOM     28  C   UNL     1       5.745   5.367  18.865  0.00  0.00    +0.000 A 
ATOM     29 CL   UNL     1       4.757   4.202  19.672  0.00  0.00    +0.000 Cl
ENDBRANCH  22  23
ENDBRANCH  19  22
ENDBRANCH   3  16
TORSDOF 4
ENDMDL
MODEL 7
REMARK VINA RESULT:      -8.2      0.654      1.119
REMARK  Name = 
REMARK  4 active torsions:
REMARK  status: ('A' for Active; 'I' for Inactive)
REMARK    1  A    between atoms: C_2  and  C_18
REMARK    2  A    between atoms: N_3  and  C_4
REMARK    3  A    between atoms: C_7  and  O_8
REMARK    4  A    between atoms: O_8  and  C_9
REMARK                            x       y       z     vdW  Elec       q    Type
REMARK                         _______ _______ _______ _____ _____    ______ ____
ROOT
ATOM      1  O   UNL     1       1.504  12.018  20.664  0.00  0.00    +0.000 OA
ATOM      2  C   UNL     1       0.424  11.511  20.958  0.00  0.00    +0.000 C 
ATOM      3  N   UNL     1       0.052  10.206  20.706  0.00  0.00    +0.000 N 
ATOM      4  H   UNL     1      -0.918   9.952  20.903  0.00  0.00    +0.000 HD
ENDROOT
BRANCH   2   5
ATOM      5  C   UNL     1      -0.616  12.356  21.608  0.00  0.00    +0.000 A 
ATOM      6  C   UNL     1      -0.748  13.614  21.173  0.00  0.00    +0.000 A 
ATOM      7  N   UNL     1      -1.671  14.518  21.622  0.00  0.00    +0.000 NA
ATOM      8  C   UNL     1      -2.522  14.103  22.506  0.00  0.00    +0.000 A 
ATOM      9  C   UNL     1      -3.576  15.039  22.975  0.00  0.00    +0.000 A 
ATOM     10  C   UNL     1      -4.482  14.625  23.868  0.00  0.00    +0.000 A 
ATOM     11  C   UNL     1      -4.437  13.284  24.385  0.00  0.00    +0.000 A 
ATOM     12  C   UNL     1      -3.482  12.440  23.977  0.00  0.00    +0.000 A 
ATOM     13  N   UNL     1      -2.519  12.821  23.046  0.00  0.00    +0.000 N 
ATOM     14  C   UNL     1      -1.538  11.908  22.669  0.00  0.00    +0.000 A 
ATOM     15  O   UNL     1      -1.404  10.782  23.158  0.00  0.00    +0.000 OA
ENDBRANCH   2   5
BRANCH   3  16
ATOM     16  C   UNL     1       0.835   9.236  20.045  0.00  0.00    +0.000 A 
ATOM     17  C   UNL     1       1.391   8.135  20.699  0.00  0.00    +0.000 A 
ATOM     18  C   UNL     1       2.250   7.264  20.030  0.00  0.00    +0.000 A 
ATOM     19  C   UNL     1       2.498   7.432  18.670  0.00  0.00    +0.000 A 
ATOM     20  C   UNL     1       1.930   8.518  18.001  0.00  0.00    +0.000 A 
ATOM     21  C   UNL     1       1.095   9.412  18.682  0.00  0.00    +0.000 A 
BRANCH  19  22
ATOM     22  O   UNL     1       3.326   6.623  17.928  0.00  0.00    +0.000 OA
BRANCH  22  23
ATOM     23  C   UNL     1       3.159   5.253  17.948  0.00  0.00    +0.000 A 
ATOM     24  C   UNL     1       1.921   4.631  17.737  0.00  0.00    +0.000 A 
ATOM     25  C   UNL     1       1.811   3.240  17.776  0.00  0.00    +0.000 A 
ATOM     26  C   UNL     1       2.946   2.455  17.960  0.00  0.00    +0.000 A 
ATOM     27  C   UNL     1       4.194   3.062  18.112  0.00  0.00    +0.000 A 
ATOM     28  C   UNL     1       4.301   4.456  18.109  0.00  0.00    +0.000 A 
ATOM     29 CL   UNL     1       5.870   5.153  18.305  0.00  0.00    +0.000 Cl
ENDBRANCH  22  23
ENDBRANCH  19  22
ENDBRANCH   3  16
TORSDOF 4
ENDMDL
MODEL 8
REMARK VINA RESULT:      -8.2      7.768      9.838
REMARK  Name = 
REMARK  4 active torsions:
REMARK  status: ('A' for Active; 'I' for Inactive)
REMARK    1  A    between atoms: C_2  and  C_18
REMARK    2  A    between atoms: N_3  and  C_4
REMARK    3  A    between atoms: C_7  and  O_8
REMARK    4  A    between atoms: O_8  and  C_9
REMARK                            x       y       z     vdW  Elec       q    Type
REMARK                         _______ _______ _______ _____ _____    ______ ____
ROOT
ATOM      1  O   UNL     1       9.187  10.114  19.956  0.00  0.00    +0.000 OA
ATOM      2  C   UNL     1       9.137  10.454  18.776  0.00  0.00    +0.000 C 
ATOM      3  N   UNL     1       8.582   9.717  17.749  0.00  0.00    +0.000 N 
ATOM      4  H   UNL     1       8.712  10.071  16.800  0.00  0.00    +0.000 HD
ENDROOT
BRANCH   2   5
ATOM      5  C   UNL     1       9.752  11.749  18.372  0.00  0.00    +0.000 A 
ATOM      6  C   UNL     1      10.941  11.701  17.759  0.00  0.00    +0.000 A 
ATOM      7  N   UNL     1      11.633  12.779  17.282  0.00  0.00    +0.000 NA
ATOM      8  C   UNL     1      11.067  13.939  17.389  0.00  0.00    +0.000 A 
ATOM      9  C   UNL     1      11.763  15.126  16.830  0.00  0.00    +0.000 A 
ATOM     10  C   UNL     1      11.185  16.330  16.904  0.00  0.00    +0.000 A 
ATOM     11  C   UNL     1       9.899  16.486  17.529  0.00  0.00    +0.000 A 
ATOM     12  C   UNL     1       9.272  15.422  18.046  0.00  0.00    +0.000 A 
ATOM     13  N   UNL     1       9.829  14.147  17.990  0.00  0.00    +0.000 N 
ATOM     14  C   UNL     1       9.141  13.078  18.558  0.00  0.00    +0.000 A 
ATOM     15  O   UNL     1       8.084  13.181  19.187  0.00  0.00    +0.000 OA
ENDBRANCH   2   5
BRANCH   3  16
ATOM     16  C   UNL     1       8.001   8.437  17.870  0.00  0.00    +0.000 A 
ATOM     17  C   UNL     1       6.896   8.031  17.120  0.00  0.00    +0.000 A 
ATOM     18  C   UNL     1       6.286   6.799  17.353  0.00  0.00    +0.000 A 
ATOM     19  C   UNL     1       6.827   5.914  18.283  0.00  0.00    +0.000 A 
ATOM     20  C   UNL     1       7.945   6.302  19.024  0.00  0.00    +0.000 A 
ATOM     21  C   UNL     1       8.537   7.554  18.814  0.00  0.00    +0.000 A 
BRANCH  19  22
ATOM     22  O   UNL     1       6.298   4.680  18.576  0.00  0.00    +0.000 OA
BRANCH  22  23
ATOM     23  C   UNL     1       4.941   4.459  18.459  0.00  0.00    +0.000 A 
ATOM     24  C   UNL     1       4.020   4.818  19.453  0.00  0.00    +0.000 A 
ATOM     25  C   UNL     1       2.658   4.564  19.282  0.00  0.00    +0.000 A 
ATOM     26  C   UNL     1       2.196   4.010  18.091  0.00  0.00    +0.000 A 
ATOM     27  C   UNL     1       3.097   3.703  17.071  0.00  0.00    +0.000 A 
ATOM     28  C   UNL     1       4.466   3.924  17.254  0.00  0.00    +0.000 A 
ATOM     29 CL   UNL     1       5.536   3.522  15.958  0.00  0.00    +0.000 Cl
ENDBRANCH  22  23
ENDBRANCH  19  22
ENDBRANCH   3  16
TORSDOF 4
ENDMDL
MODEL 9
REMARK VINA RESULT:      -8.1      1.567      2.245
REMARK  Name = 
REMARK  4 active torsions:
REMARK  status: ('A' for Active; 'I' for Inactive)
REMARK    1  A    between atoms: C_2  and  C_18
REMARK    2  A    between atoms: N_3  and  C_4
REMARK    3  A    between atoms: C_7  and  O_8
REMARK    4  A    between atoms: O_8  and  C_9
REMARK                            x       y       z     vdW  Elec       q    Type
REMARK                         _______ _______ _______ _____ _____    ______ ____
ROOT
ATOM      1  O   UNL     1       0.834   9.803  22.769  0.00  0.00    +0.000 OA
ATOM      2  C   UNL     1       0.221  10.442  21.916  0.00  0.00    +0.000 C 
ATOM      3  N   UNL     1       0.229  10.185  20.559  0.00  0.00    +0.000 N 
ATOM      4  H   UNL     1      -0.235  10.865  19.955  0.00  0.00    +0.000 HD
ENDROOT
BRANCH   2   5
ATOM      5  C   UNL     1      -0.580  11.625  22.337  0.00  0.00    +0.000 A 
ATOM      6  C   UNL     1      -1.736  11.392  22.967  0.00  0.00    +0.000 A 
ATOM      7  N   UNL     1      -2.580  12.350  23.459  0.00  0.00    +0.000 NA
ATOM      8  C   UNL     1      -2.201  13.583  23.350  0.00  0.00    +0.000 A 
ATOM      9  C   UNL     1      -3.064  14.647  23.924  0.00  0.00    +0.000 A 
ATOM     10  C   UNL     1      -2.680  15.926  23.847  0.00  0.00    +0.000 A 
ATOM     11  C   UNL     1      -1.444  16.280  23.204  0.00  0.00    +0.000 A 
ATOM     12  C   UNL     1      -0.668  15.327  22.672  0.00  0.00    +0.000 A 
ATOM     13  N   UNL     1      -1.020  13.982  22.731  0.00  0.00    +0.000 N 
ATOM     14  C   UNL     1      -0.185  13.033  22.147  0.00  0.00    +0.000 A 
ATOM     15  O   UNL     1       0.833  13.300  21.502  0.00  0.00    +0.000 OA
ENDBRANCH   2   5
BRANCH   3  16
ATOM     16  C   UNL     1       0.962   9.166  19.915  0.00  0.00    +0.000 A 
ATOM     17  C   UNL     1       1.397   8.013  20.571  0.00  0.00    +0.000 A 
ATOM     18  C   UNL     1       2.213   7.087  19.924  0.00  0.00    +0.000 A 
ATOM     19  C   UNL     1       2.537   7.256  18.580  0.00  0.00    +0.000 A 
ATOM     20  C   UNL     1       2.090   8.396  17.908  0.00  0.00    +0.000 A 
ATOM     21  C   UNL     1       1.298   9.343  18.568  0.00  0.00    +0.000 A 
BRANCH  19  22
ATOM     22  O   UNL     1       3.330   6.395  17.860  0.00  0.00    +0.000 OA
BRANCH  22  23
ATOM     23  C   UNL     1       3.241   5.033  18.064  0.00  0.00    +0.000 A 
ATOM     24  C   UNL     1       2.181   4.255  17.577  0.00  0.00    +0.000 A 
ATOM     25  C   UNL     1       2.140   2.881  17.821  0.00  0.00    +0.000 A 
ATOM     26  C   UNL     1       3.189   2.261  18.495  0.00  0.00    +0.000 A 
ATOM     27  C   UNL     1       4.278   3.016  18.933  0.00  0.00    +0.000 A 
ATOM     28  C   UNL     1       4.304   4.398  18.721  0.00  0.00    +0.000 A 
ATOM     29 CL   UNL     1       5.676   5.283  19.287  0.00  0.00    +0.000 Cl
ENDBRANCH  22  23
ENDBRANCH  19  22
ENDBRANCH   3  16
TORSDOF 4
ENDMDL
