MODEL 1
REMARK VINA RESULT:      -9.7      0.000      0.000
REMARK  Name = 
REMARK  5 active torsions:
REMARK  status: ('A' for Active; 'I' for Inactive)
REMARK    1  A    between atoms: C_5  and  C_7
REMARK    2  A    between atoms: C_7  and  S_8
REMARK    3  A    between atoms: S_8  and  C_9
REMARK    4  A    between atoms: N_19  and  C_20
REMARK    5  A    between atoms: C_20  and  C_21
REMARK                            x       y       z     vdW  Elec       q    Type
REMARK                         _______ _______ _______ _____ _____    ______ ____
ROOT
ATOM      1  C   UNL     1       2.817   6.478  18.186  0.00  0.00    +0.000 A 
ATOM      2  N   UNL     1       1.992   6.103  19.109  0.00  0.00    +0.000 NA
ATOM      3  C   UNL     1       1.969   4.748  19.471  0.00  0.00    +0.000 A 
ATOM      4  C   UNL     1       1.277   4.353  20.624  0.00  0.00    +0.000 A 
ATOM      5  C   UNL     1       1.252   3.008  21.021  0.00  0.00    +0.000 A 
ATOM      6  C   UNL     1       1.898   2.038  20.258  0.00  0.00    +0.000 A 
ATOM      7  C   UNL     1       2.605   2.421  19.120  0.00  0.00    +0.000 A 
ATOM      8  C   UNL     1       2.656   3.774  18.758  0.00  0.00    +0.000 A 
ATOM      9  C   UNL     1       3.532   4.230  17.674  0.00  0.00    +0.000 A 
ATOM     10  O   UNL     1       4.151   3.381  17.034  0.00  0.00    +0.000 OA
ATOM     11  N   UNL     1       3.648   5.609  17.487  0.00  0.00    +0.000 N 
ENDROOT
BRANCH   1  12
ATOM     12  S   UNL     1       2.965   8.210  17.943  0.00  0.00    +0.000 S 
BRANCH  12  13
ATOM     13  C   UNL     1       1.252   8.745  17.554  0.00  0.00    +0.000 C 
BRANCH  13  18
ATOM     14  O   UNL     1      -2.798  11.170  15.754  0.00  0.00    +0.000 OA
ATOM     15  C   UNL     1      -2.326  11.111  16.889  0.00  0.00    +0.000 C 
ATOM     16  C   UNL     1      -1.408   9.979  17.333  0.00  0.00    +0.000 C 
ATOM     17  N   UNL     1      -0.569  10.251  18.508  0.00  0.00    +0.000 N 
ATOM     18  C   UNL     1       0.741   9.747  18.630  0.00  0.00    +0.000 C 
ATOM     19  O   UNL     1       1.510  10.132  19.518  0.00  0.00    +0.000 OA
ATOM     20  C   UNL     1      -1.181  11.093  19.518  0.00  0.00    +0.000 A 
ATOM     21  C   UNL     1      -0.752  11.127  20.852  0.00  0.00    +0.000 A 
ATOM     22  C   UNL     1      -1.365  11.966  21.796  0.00  0.00    +0.000 A 
ATOM     23  C   UNL     1      -2.418  12.799  21.424  0.00  0.00    +0.000 A 
ATOM     24  C   UNL     1      -2.867  12.782  20.108  0.00  0.00    +0.000 A 
ATOM     25  C   UNL     1      -2.265  11.928  19.171  0.00  0.00    +0.000 A 
ATOM     26  N   UNL     1      -2.748  11.969  17.861  0.00  0.00    +0.000 N 
ATOM     27  H   UNL     1      -3.445  12.652  17.593  0.00  0.00    +0.000 HD
ENDBRANCH  13  18
ENDBRANCH  12  13
ENDBRANCH   1  12
BRANCH  11  28
ATOM     28  C   UNL     1       4.721   6.028  16.574  0.00  0.00    +0.000 C 
BRANCH  28  29
ATOM     29  C   UNL     1       6.015   6.329  17.296  0.00  0.00    +0.000 A 
ATOM     30  C   UNL     1       6.511   5.448  18.265  0.00  0.00    +0.000 A 
ATOM     31  C   UNL     1       7.615   5.796  19.040  0.00  0.00    +0.000 A 
ATOM     32  C   UNL     1       8.265   7.009  18.826  0.00  0.00    +0.000 A 
ATOM     33  C   UNL     1       7.834   7.857  17.811  0.00  0.00    +0.000 A 
ATOM     34  C   UNL     1       6.716   7.519  17.048  0.00  0.00    +0.000 A 
ENDBRANCH  28  29
ENDBRANCH  11  28
TORSDOF 5
ENDMDL
MODEL 2
REMARK VINA RESULT:      -9.4      1.786      1.886
REMARK  Name = 
REMARK  5 active torsions:
REMARK  status: ('A' for Active; 'I' for Inactive)
REMARK    1  A    between atoms: C_5  and  C_7
REMARK    2  A    between atoms: C_7  and  S_8
REMARK    3  A    between atoms: S_8  and  C_9
REMARK    4  A    between atoms: N_19  and  C_20
REMARK    5  A    between atoms: C_20  and  C_21
REMARK                            x       y       z     vdW  Elec       q    Type
REMARK                         _______ _______ _______ _____ _____    ______ ____
ROOT
ATOM      1  C   UNL     1       2.975   6.298  18.012  0.00  0.00    +0.000 A 
ATOM      2  N   UNL     1       2.105   6.055  18.938  0.00  0.00    +0.000 NA
ATOM      3  C   UNL     1       2.020   4.751  19.448  0.00  0.00    +0.000 A 
ATOM      4  C   UNL     1       1.274   4.510  20.610  0.00  0.00    +0.000 A 
ATOM      5  C   UNL     1       1.186   3.221  21.153  0.00  0.00    +0.000 A 
ATOM      6  C   UNL     1       1.824   2.150  20.527  0.00  0.00    +0.000 A 
ATOM      7  C   UNL     1       2.584   2.380  19.383  0.00  0.00    +0.000 A 
ATOM      8  C   UNL     1       2.696   3.682  18.875  0.00  0.00    +0.000 A 
ATOM      9  C   UNL     1       3.625   3.985  17.781  0.00  0.00    +0.000 A 
ATOM     10  O   UNL     1       4.236   3.050  17.265  0.00  0.00    +0.000 OA
ATOM     11  N   UNL     1       3.798   5.330  17.448  0.00  0.00    +0.000 N 
ENDROOT
BRANCH   1  12
ATOM     12  S   UNL     1       3.194   7.986  17.584  0.00  0.00    +0.000 S 
BRANCH  12  13
ATOM     13  C   UNL     1       1.632   8.782  18.131  0.00  0.00    +0.000 C 
BRANCH  13  18
ATOM     14  O   UNL     1      -2.956  10.879  18.395  0.00  0.00    +0.000 OA
ATOM     15  C   UNL     1      -1.834  11.367  18.518  0.00  0.00    +0.000 C 
ATOM     16  C   UNL     1      -0.614  10.528  18.878  0.00  0.00    +0.000 C 
ATOM     17  N   UNL     1       0.692  11.114  18.550  0.00  0.00    +0.000 N 
ATOM     18  C   UNL     1       1.781  10.331  18.115  0.00  0.00    +0.000 C 
ATOM     19  O   UNL     1       2.811  10.840  17.657  0.00  0.00    +0.000 OA
ATOM     20  C   UNL     1       0.770  12.556  18.687  0.00  0.00    +0.000 A 
ATOM     21  C   UNL     1       1.980  13.248  18.839  0.00  0.00    +0.000 A 
ATOM     22  C   UNL     1       2.011  14.647  18.957  0.00  0.00    +0.000 A 
ATOM     23  C   UNL     1       0.832  15.387  18.917  0.00  0.00    +0.000 A 
ATOM     24  C   UNL     1      -0.382  14.725  18.771  0.00  0.00    +0.000 A 
ATOM     25  C   UNL     1      -0.412  13.326  18.673  0.00  0.00    +0.000 A 
ATOM     26  N   UNL     1      -1.661  12.719  18.511  0.00  0.00    +0.000 N 
ATOM     27  H   UNL     1      -2.492  13.283  18.384  0.00  0.00    +0.000 HD
ENDBRANCH  13  18
ENDBRANCH  12  13
ENDBRANCH   1  12
BRANCH  11  28
ATOM     28  C   UNL     1       4.917   5.609  16.536  0.00  0.00    +0.000 C 
BRANCH  28  29
ATOM     29  C   UNL     1       6.159   6.071  17.264  0.00  0.00    +0.000 A 
ATOM     30  C   UNL     1       6.721   5.289  18.280  0.00  0.00    +0.000 A 
ATOM     31  C   UNL     1       7.769   5.780  19.056  0.00  0.00    +0.000 A 
ATOM     32  C   UNL     1       8.297   7.042  18.797  0.00  0.00    +0.000 A 
ATOM     33  C   UNL     1       7.804   7.797  17.737  0.00  0.00    +0.000 A 
ATOM     34  C   UNL     1       6.742   7.313  16.972  0.00  0.00    +0.000 A 
ENDBRANCH  28  29
ENDBRANCH  11  28
TORSDOF 5
ENDMDL
MODEL 3
REMARK VINA RESULT:      -9.3      1.275      1.708
REMARK  Name = 
REMARK  5 active torsions:
REMARK  status: ('A' for Active; 'I' for Inactive)
REMARK    1  A    between atoms: C_5  and  C_7
REMARK    2  A    between atoms: C_7  and  S_8
REMARK    3  A    between atoms: S_8  and  C_9
REMARK    4  A    between atoms: N_19  and  C_20
REMARK    5  A    between atoms: C_20  and  C_21
REMARK                            x       y       z     vdW  Elec       q    Type
REMARK                         _______ _______ _______ _____ _____    ______ ____
ROOT
ATOM      1  C   UNL     1       3.030   6.301  17.909  0.00  0.00    +0.000 A 
ATOM      2  N   UNL     1       2.083   5.884  18.686  0.00  0.00    +0.000 NA
ATOM      3  C   UNL     1       1.987   4.507  18.938  0.00  0.00    +0.000 A 
ATOM      4  C   UNL     1       1.141   4.049  19.957  0.00  0.00    +0.000 A 
ATOM      5  C   UNL     1       1.038   2.681  20.244  0.00  0.00    +0.000 A 
ATOM      6  C   UNL     1       1.760   1.750  19.499  0.00  0.00    +0.000 A 
ATOM      7  C   UNL     1       2.618   2.195  18.496  0.00  0.00    +0.000 A 
ATOM      8  C   UNL     1       2.742   3.569  18.248  0.00  0.00    +0.000 A 
ATOM      9  C   UNL     1       3.762   4.077  17.324  0.00  0.00    +0.000 A 
ATOM     10  O   UNL     1       4.444   3.259  16.708  0.00  0.00    +0.000 OA
ATOM     11  N   UNL     1       3.929   5.462  17.260  0.00  0.00    +0.000 N 
ENDROOT
BRANCH   1  12
ATOM     12  S   UNL     1       3.242   8.041  17.820  0.00  0.00    +0.000 S 
BRANCH  12  13
ATOM     13  C   UNL     1       1.526   8.694  17.865  0.00  0.00    +0.000 C 
BRANCH  13  18
ATOM     14  O   UNL     1      -0.752  13.202  17.768  0.00  0.00    +0.000 OA
ATOM     15  C   UNL     1      -0.653  12.362  18.662  0.00  0.00    +0.000 C 
ATOM     16  C   UNL     1      -0.355  10.896  18.375  0.00  0.00    +0.000 C 
ATOM     17  N   UNL     1       0.180  10.114  19.498  0.00  0.00    +0.000 N 
ATOM     18  C   UNL     1       1.140   9.098  19.318  0.00  0.00    +0.000 C 
ATOM     19  O   UNL     1       1.728   8.578  20.272  0.00  0.00    +0.000 OA
ATOM     20  C   UNL     1      -0.337  10.481  20.803  0.00  0.00    +0.000 A 
ATOM     21  C   UNL     1      -0.297   9.625  21.912  0.00  0.00    +0.000 A 
ATOM     22  C   UNL     1      -0.798  10.024  23.161  0.00  0.00    +0.000 A 
ATOM     23  C   UNL     1      -1.344  11.294  23.332  0.00  0.00    +0.000 A 
ATOM     24  C   UNL     1      -1.400  12.161  22.247  0.00  0.00    +0.000 A 
ATOM     25  C   UNL     1      -0.916  11.753  20.995  0.00  0.00    +0.000 A 
ATOM     26  N   UNL     1      -0.984  12.675  19.947  0.00  0.00    +0.000 N 
ATOM     27  H   UNL     1      -1.292  13.624  20.119  0.00  0.00    +0.000 HD
ENDBRANCH  13  18
ENDBRANCH  12  13
ENDBRANCH   1  12
BRANCH  11  28
ATOM     28  C   UNL     1       5.121   5.915  16.529  0.00  0.00    +0.000 C 
BRANCH  28  29
ATOM     29  C   UNL     1       6.237   6.352  17.450  0.00  0.00    +0.000 A 
ATOM     30  C   UNL     1       6.923   7.551  17.218  0.00  0.00    +0.000 A 
ATOM     31  C   UNL     1       8.050   7.880  17.969  0.00  0.00    +0.000 A 
ATOM     32  C   UNL     1       8.479   7.036  18.990  0.00  0.00    +0.000 A 
ATOM     33  C   UNL     1       7.759   5.883  19.286  0.00  0.00    +0.000 A 
ATOM     34  C   UNL     1       6.642   5.543  18.522  0.00  0.00    +0.000 A 
ENDBRANCH  28  29
ENDBRANCH  11  28
TORSDOF 5
ENDMDL
MODEL 4
REMARK VINA RESULT:      -9.0      1.721      2.646
REMARK  Name = 
REMARK  5 active torsions:
REMARK  status: ('A' for Active; 'I' for Inactive)
REMARK    1  A    between atoms: C_5  and  C_7
REMARK    2  A    between atoms: C_7  and  S_8
REMARK    3  A    between atoms: S_8  and  C_9
REMARK    4  A    between atoms: N_19  and  C_20
REMARK    5  A    between atoms: C_20  and  C_21
REMARK                            x       y       z     vdW  Elec       q    Type
REMARK                         _______ _______ _______ _____ _____    ______ ____
ROOT
ATOM      1  C   UNL     1       2.721   6.222  18.107  0.00  0.00    +0.000 A 
ATOM      2  N   UNL     1       1.864   5.744  18.950  0.00  0.00    +0.000 NA
ATOM      3  C   UNL     1       1.916   4.374  19.248  0.00  0.00    +0.000 A 
ATOM      4  C   UNL     1       1.178   3.874  20.329  0.00  0.00    +0.000 A 
ATOM      5  C   UNL     1       1.224   2.512  20.663  0.00  0.00    +0.000 A 
ATOM      6  C   UNL     1       1.990   1.629  19.904  0.00  0.00    +0.000 A 
ATOM      7  C   UNL     1       2.743   2.118  18.839  0.00  0.00    +0.000 A 
ATOM      8  C   UNL     1       2.719   3.488  18.543  0.00  0.00    +0.000 A 
ATOM      9  C   UNL     1       3.631   4.058  17.546  0.00  0.00    +0.000 A 
ATOM     10  O   UNL     1       4.353   3.288  16.914  0.00  0.00    +0.000 OA
ATOM     11  N   UNL     1       3.659   5.449  17.431  0.00  0.00    +0.000 N 
ENDROOT
BRANCH   1  12
ATOM     12  S   UNL     1       2.758   7.969  17.954  0.00  0.00    +0.000 S 
BRANCH  12  13
ATOM     13  C   UNL     1       1.806   8.557  19.410  0.00  0.00    +0.000 C 
BRANCH  13  18
ATOM     14  O   UNL     1      -0.614  10.175  23.539  0.00  0.00    +0.000 OA
ATOM     15  C   UNL     1      -0.335  10.747  22.486  0.00  0.00    +0.000 C 
ATOM     16  C   UNL     1       0.787  10.272  21.571  0.00  0.00    +0.000 C 
ATOM     17  N   UNL     1       0.722  10.732  20.178  0.00  0.00    +0.000 N 
ATOM     18  C   UNL     1       1.127   9.922  19.097  0.00  0.00    +0.000 C 
ATOM     19  O   UNL     1       0.893  10.231  17.924  0.00  0.00    +0.000 OA
ATOM     20  C   UNL     1       0.191  12.070  19.997  0.00  0.00    +0.000 A 
ATOM     21  C   UNL     1       0.429  12.842  18.851  0.00  0.00    +0.000 A 
ATOM     22  C   UNL     1      -0.114  14.129  18.711  0.00  0.00    +0.000 A 
ATOM     23  C   UNL     1      -0.916  14.671  19.712  0.00  0.00    +0.000 A 
ATOM     24  C   UNL     1      -1.165  13.928  20.861  0.00  0.00    +0.000 A 
ATOM     25  C   UNL     1      -0.606  12.650  21.007  0.00  0.00    +0.000 A 
ATOM     26  N   UNL     1      -0.906  11.946  22.176  0.00  0.00    +0.000 N 
ATOM     27  H   UNL     1      -1.571  12.319  22.842  0.00  0.00    +0.000 HD
ENDBRANCH  13  18
ENDBRANCH  12  13
ENDBRANCH   1  12
BRANCH  11  28
ATOM     28  C   UNL     1       4.758   5.988  16.617  0.00  0.00    +0.000 C 
BRANCH  28  29
ATOM     29  C   UNL     1       5.956   6.388  17.449  0.00  0.00    +0.000 A 
ATOM     30  C   UNL     1       6.652   7.570  17.170  0.00  0.00    +0.000 A 
ATOM     31  C   UNL     1       7.844   7.863  17.830  0.00  0.00    +0.000 A 
ATOM     32  C   UNL     1       8.331   6.999  18.808  0.00  0.00    +0.000 A 
ATOM     33  C   UNL     1       7.607   5.862  19.153  0.00  0.00    +0.000 A 
ATOM     34  C   UNL     1       6.424   5.559  18.479  0.00  0.00    +0.000 A 
ENDBRANCH  28  29
ENDBRANCH  11  28
TORSDOF 5
ENDMDL
MODEL 5
REMARK VINA RESULT:      -9.0      1.848      2.266
REMARK  Name = 
REMARK  5 active torsions:
REMARK  status: ('A' for Active; 'I' for Inactive)
REMARK    1  A    between atoms: C_5  and  C_7
REMARK    2  A    between atoms: C_7  and  S_8
REMARK    3  A    between atoms: S_8  and  C_9
REMARK    4  A    between atoms: N_19  and  C_20
REMARK    5  A    between atoms: C_20  and  C_21
REMARK                            x       y       z     vdW  Elec       q    Type
REMARK                         _______ _______ _______ _____ _____    ______ ____
ROOT
ATOM      1  C   UNL     1       2.918   6.557  18.270  0.00  0.00    +0.000 A 
ATOM      2  N   UNL     1       2.077   6.183  19.179  0.00  0.00    +0.000 NA
ATOM      3  C   UNL     1       1.950   4.812  19.445  0.00  0.00    +0.000 A 
ATOM      4  C   UNL     1       1.244   4.391  20.580  0.00  0.00    +0.000 A 
ATOM      5  C   UNL     1       1.115   3.027  20.882  0.00  0.00    +0.000 A 
ATOM      6  C   UNL     1       1.671   2.066  20.039  0.00  0.00    +0.000 A 
ATOM      7  C   UNL     1       2.392   2.473  18.919  0.00  0.00    +0.000 A 
ATOM      8  C   UNL     1       2.547   3.841  18.653  0.00  0.00    +0.000 A 
ATOM      9  C   UNL     1       3.443   4.302  17.587  0.00  0.00    +0.000 A 
ATOM     10  O   UNL     1       3.983   3.456  16.877  0.00  0.00    +0.000 OA
ATOM     11  N   UNL     1       3.667   5.678  17.496  0.00  0.00    +0.000 N 
ENDROOT
BRANCH   1  12
ATOM     12  S   UNL     1       3.201   8.285  18.147  0.00  0.00    +0.000 S 
BRANCH  12  13
ATOM     13  C   UNL     1       1.525   8.986  17.880  0.00  0.00    +0.000 C 
BRANCH  13  18
ATOM     14  O   UNL     1       3.304  13.707  18.136  0.00  0.00    +0.000 OA
ATOM     15  C   UNL     1       2.434  13.132  18.788  0.00  0.00    +0.000 C 
ATOM     16  C   UNL     1       1.710  11.895  18.272  0.00  0.00    +0.000 C 
ATOM     17  N   UNL     1       1.056  11.058  19.287  0.00  0.00    +0.000 N 
ATOM     18  C   UNL     1       1.004   9.653  19.186  0.00  0.00    +0.000 C 
ATOM     19  O   UNL     1       0.629   8.944  20.125  0.00  0.00    +0.000 OA
ATOM     20  C   UNL     1       0.488  11.784  20.407  0.00  0.00    +0.000 A 
ATOM     21  C   UNL     1      -0.513  11.257  21.235  0.00  0.00    +0.000 A 
ATOM     22  C   UNL     1      -1.027  11.990  22.317  0.00  0.00    +0.000 A 
ATOM     23  C   UNL     1      -0.545  13.265  22.601  0.00  0.00    +0.000 A 
ATOM     24  C   UNL     1       0.445  13.813  21.793  0.00  0.00    +0.000 A 
ATOM     25  C   UNL     1       0.944  13.087  20.701  0.00  0.00    +0.000 A 
ATOM     26  N   UNL     1       1.949  13.685  19.937  0.00  0.00    +0.000 N 
ATOM     27  H   UNL     1       2.353  14.568  20.222  0.00  0.00    +0.000 HD
ENDBRANCH  13  18
ENDBRANCH  12  13
ENDBRANCH   1  12
BRANCH  11  28
ATOM     28  C   UNL     1       4.759   6.075  16.595  0.00  0.00    +0.000 C 
BRANCH  28  29
ATOM     29  C   UNL     1       6.050   6.350  17.332  0.00  0.00    +0.000 A 
ATOM     30  C   UNL     1       6.522   5.454  18.299  0.00  0.00    +0.000 A 
ATOM     31  C   UNL     1       7.625   5.778  19.087  0.00  0.00    +0.000 A 
ATOM     32  C   UNL     1       8.296   6.982  18.888  0.00  0.00    +0.000 A 
ATOM     33  C   UNL     1       7.888   7.845  17.875  0.00  0.00    +0.000 A 
ATOM     34  C   UNL     1       6.773   7.530  17.099  0.00  0.00    +0.000 A 
ENDBRANCH  28  29
ENDBRANCH  11  28
TORSDOF 5
ENDMDL
MODEL 6
REMARK VINA RESULT:      -8.9      2.131      2.586
REMARK  Name = 
REMARK  5 active torsions:
REMARK  status: ('A' for Active; 'I' for Inactive)
REMARK    1  A    between atoms: C_5  and  C_7
REMARK    2  A    between atoms: C_7  and  S_8
REMARK    3  A    between atoms: S_8  and  C_9
REMARK    4  A    between atoms: N_19  and  C_20
REMARK    5  A    between atoms: C_20  and  C_21
REMARK                            x       y       z     vdW  Elec       q    Type
REMARK                         _______ _______ _______ _____ _____    ______ ____
ROOT
ATOM      1  C   UNL     1       3.154   6.234  18.291  0.00  0.00    +0.000 A 
ATOM      2  N   UNL     1       2.100   5.824  18.919  0.00  0.00    +0.000 NA
ATOM      3  C   UNL     1       2.213   4.694  19.743  0.00  0.00    +0.000 A 
ATOM      4  C   UNL     1       1.170   4.374  20.623  0.00  0.00    +0.000 A 
ATOM      5  C   UNL     1       1.261   3.262  21.471  0.00  0.00    +0.000 A 
ATOM      6  C   UNL     1       2.387   2.441  21.434  0.00  0.00    +0.000 A 
ATOM      7  C   UNL     1       3.439   2.760  20.578  0.00  0.00    +0.000 A 
ATOM      8  C   UNL     1       3.350   3.899  19.765  0.00  0.00    +0.000 A 
ATOM      9  C   UNL     1       4.505   4.358  18.987  0.00  0.00    +0.000 A 
ATOM     10  O   UNL     1       5.523   3.667  18.998  0.00  0.00    +0.000 OA
ATOM     11  N   UNL     1       4.385   5.588  18.337  0.00  0.00    +0.000 N 
ENDROOT
BRANCH   1  12
ATOM     12  S   UNL     1       3.009   7.776  17.467  0.00  0.00    +0.000 S 
BRANCH  12  13
ATOM     13  C   UNL     1       1.573   8.576  18.285  0.00  0.00    +0.000 C 
BRANCH  13  18
ATOM     14  O   UNL     1      -3.013  10.694  18.253  0.00  0.00    +0.000 OA
ATOM     15  C   UNL     1      -1.897  11.179  18.436  0.00  0.00    +0.000 C 
ATOM     16  C   UNL     1      -0.705  10.339  18.878  0.00  0.00    +0.000 C 
ATOM     17  N   UNL     1       0.621  10.916  18.621  0.00  0.00    +0.000 N 
ATOM     18  C   UNL     1       1.730  10.125  18.260  0.00  0.00    +0.000 C 
ATOM     19  O   UNL     1       2.787  10.623  17.859  0.00  0.00    +0.000 OA
ATOM     20  C   UNL     1       0.698  12.360  18.746  0.00  0.00    +0.000 A 
ATOM     21  C   UNL     1       1.899  13.049  18.961  0.00  0.00    +0.000 A 
ATOM     22  C   UNL     1       1.930  14.449  19.065  0.00  0.00    +0.000 A 
ATOM     23  C   UNL     1       0.759  15.193  18.947  0.00  0.00    +0.000 A 
ATOM     24  C   UNL     1      -0.447  14.534  18.737  0.00  0.00    +0.000 A 
ATOM     25  C   UNL     1      -0.478  13.134  18.653  0.00  0.00    +0.000 A 
ATOM     26  N   UNL     1      -1.718  12.531  18.425  0.00  0.00    +0.000 N 
ATOM     27  H   UNL     1      -2.537  13.097  18.243  0.00  0.00    +0.000 HD
ENDBRANCH  13  18
ENDBRANCH  12  13
ENDBRANCH   1  12
BRANCH  11  28
ATOM     28  C   UNL     1       5.637   6.131  17.789  0.00  0.00    +0.000 C 
BRANCH  28  29
ATOM     29  C   UNL     1       5.960   5.580  16.419  0.00  0.00    +0.000 A 
ATOM     30  C   UNL     1       4.948   5.053  15.607  0.00  0.00    +0.000 A 
ATOM     31  C   UNL     1       5.262   4.405  14.414  0.00  0.00    +0.000 A 
ATOM     32  C   UNL     1       6.588   4.314  13.997  0.00  0.00    +0.000 A 
ATOM     33  C   UNL     1       7.596   4.905  14.753  0.00  0.00    +0.000 A 
ATOM     34  C   UNL     1       7.284   5.537  15.957  0.00  0.00    +0.000 A 
ENDBRANCH  28  29
ENDBRANCH  11  28
TORSDOF 5
ENDMDL
MODEL 7
REMARK VINA RESULT:      -8.8      1.214      1.795
REMARK  Name = 
REMARK  5 active torsions:
REMARK  status: ('A' for Active; 'I' for Inactive)
REMARK    1  A    between atoms: C_5  and  C_7
REMARK    2  A    between atoms: C_7  and  S_8
REMARK    3  A    between atoms: S_8  and  C_9
REMARK    4  A    between atoms: N_19  and  C_20
REMARK    5  A    between atoms: C_20  and  C_21
REMARK                            x       y       z     vdW  Elec       q    Type
REMARK                         _______ _______ _______ _____ _____    ______ ____
ROOT
ATOM      1  C   UNL     1       3.105   6.538  18.511  0.00  0.00    +0.000 A 
ATOM      2  N   UNL     1       2.054   6.059  19.093  0.00  0.00    +0.000 NA
ATOM      3  C   UNL     1       2.175   4.853  19.798  0.00  0.00    +0.000 A 
ATOM      4  C   UNL     1       1.134   4.437  20.639  0.00  0.00    +0.000 A 
ATOM      5  C   UNL     1       1.233   3.245  21.370  0.00  0.00    +0.000 A 
ATOM      6  C   UNL     1       2.365   2.440  21.252  0.00  0.00    +0.000 A 
ATOM      7  C   UNL     1       3.415   2.853  20.434  0.00  0.00    +0.000 A 
ATOM      8  C   UNL     1       3.318   4.067  19.741  0.00  0.00    +0.000 A 
ATOM      9  C   UNL     1       4.470   4.612  19.014  0.00  0.00    +0.000 A 
ATOM     10  O   UNL     1       5.493   3.931  18.957  0.00  0.00    +0.000 OA
ATOM     11  N   UNL     1       4.341   5.901  18.492  0.00  0.00    +0.000 N 
ENDROOT
BRANCH   1  12
ATOM     12  S   UNL     1       2.949   8.156  17.848  0.00  0.00    +0.000 S 
BRANCH  12  13
ATOM     13  C   UNL     1       1.134   8.424  17.772  0.00  0.00    +0.000 C 
BRANCH  13  18
ATOM     14  O   UNL     1      -2.628  11.166  15.809  0.00  0.00    +0.000 OA
ATOM     15  C   UNL     1      -2.184  11.101  16.955  0.00  0.00    +0.000 C 
ATOM     16  C   UNL     1      -1.389   9.901  17.455  0.00  0.00    +0.000 C 
ATOM     17  N   UNL     1      -0.549  10.131  18.638  0.00  0.00    +0.000 N 
ATOM     18  C   UNL     1       0.704   9.507  18.804  0.00  0.00    +0.000 C 
ATOM     19  O   UNL     1       1.491   9.845  19.695  0.00  0.00    +0.000 OA
ATOM     20  C   UNL     1      -1.094  11.062  19.607  0.00  0.00    +0.000 A 
ATOM     21  C   UNL     1      -0.687  11.100  20.949  0.00  0.00    +0.000 A 
ATOM     22  C   UNL     1      -1.233  12.026  21.851  0.00  0.00    +0.000 A 
ATOM     23  C   UNL     1      -2.193  12.943  21.431  0.00  0.00    +0.000 A 
ATOM     24  C   UNL     1      -2.618  12.925  20.107  0.00  0.00    +0.000 A 
ATOM     25  C   UNL     1      -2.085  11.986  19.211  0.00  0.00    +0.000 A 
ATOM     26  N   UNL     1      -2.538  12.028  17.890  0.00  0.00    +0.000 N 
ATOM     27  H   UNL     1      -3.160  12.766  17.585  0.00  0.00    +0.000 HD
ENDBRANCH  13  18
ENDBRANCH  12  13
ENDBRANCH   1  12
BRANCH  11  28
ATOM     28  C   UNL     1       5.589   6.506  18.005  0.00  0.00    +0.000 C 
BRANCH  28  29
ATOM     29  C   UNL     1       6.018   5.955  16.664  0.00  0.00    +0.000 A 
ATOM     30  C   UNL     1       5.136   5.965  15.576  0.00  0.00    +0.000 A 
ATOM     31  C   UNL     1       5.470   5.321  14.386  0.00  0.00    +0.000 A 
ATOM     32  C   UNL     1       6.708   4.696  14.255  0.00  0.00    +0.000 A 
ATOM     33  C   UNL     1       7.627   4.749  15.299  0.00  0.00    +0.000 A 
ATOM     34  C   UNL     1       7.285   5.378  16.496  0.00  0.00    +0.000 A 
ENDBRANCH  28  29
ENDBRANCH  11  28
TORSDOF 5
ENDMDL
MODEL 8
REMARK VINA RESULT:      -8.8      1.278      2.293
REMARK  Name = 
REMARK  5 active torsions:
REMARK  status: ('A' for Active; 'I' for Inactive)
REMARK    1  A    between atoms: C_5  and  C_7
REMARK    2  A    between atoms: C_7  and  S_8
REMARK    3  A    between atoms: S_8  and  C_9
REMARK    4  A    between atoms: N_19  and  C_20
REMARK    5  A    between atoms: C_20  and  C_21
REMARK                            x       y       z     vdW  Elec       q    Type
REMARK                         _______ _______ _______ _____ _____    ______ ____
ROOT
ATOM      1  C   UNL     1       2.987   6.259  17.985  0.00  0.00    +0.000 A 
ATOM      2  N   UNL     1       2.119   6.045  18.919  0.00  0.00    +0.000 NA
ATOM      3  C   UNL     1       2.043   4.759  19.475  0.00  0.00    +0.000 A 
ATOM      4  C   UNL     1       1.299   4.555  20.645  0.00  0.00    +0.000 A 
ATOM      5  C   UNL     1       1.219   3.285  21.234  0.00  0.00    +0.000 A 
ATOM      6  C   UNL     1       1.862   2.197  20.647  0.00  0.00    +0.000 A 
ATOM      7  C   UNL     1       2.620   2.391  19.494  0.00  0.00    +0.000 A 
ATOM      8  C   UNL     1       2.724   3.675  18.940  0.00  0.00    +0.000 A 
ATOM      9  C   UNL     1       3.651   3.943  17.835  0.00  0.00    +0.000 A 
ATOM     10  O   UNL     1       4.266   2.994  17.352  0.00  0.00    +0.000 OA
ATOM     11  N   UNL     1       3.816   5.276  17.454  0.00  0.00    +0.000 N 
ENDROOT
BRANCH   1  12
ATOM     12  S   UNL     1       3.196   7.932  17.497  0.00  0.00    +0.000 S 
BRANCH  12  13
ATOM     13  C   UNL     1       2.270   8.878  18.769  0.00  0.00    +0.000 C 
BRANCH  13  18
ATOM     14  O   UNL     1      -0.079  11.745  22.202  0.00  0.00    +0.000 OA
ATOM     15  C   UNL     1      -0.378  11.459  21.043  0.00  0.00    +0.000 C 
ATOM     16  C   UNL     1       0.656  10.991  20.026  0.00  0.00    +0.000 C 
ATOM     17  N   UNL     1       0.132  10.263  18.862  0.00  0.00    +0.000 N 
ATOM     18  C   UNL     1       0.830   9.193  18.267  0.00  0.00    +0.000 C 
ATOM     19  O   UNL     1       0.308   8.462  17.418  0.00  0.00    +0.000 OA
ATOM     20  C   UNL     1      -1.162  10.714  18.387  0.00  0.00    +0.000 A 
ATOM     21  C   UNL     1      -1.633  10.466  17.090  0.00  0.00    +0.000 A 
ATOM     22  C   UNL     1      -2.898  10.911  16.675  0.00  0.00    +0.000 A 
ATOM     23  C   UNL     1      -3.726  11.607  17.551  0.00  0.00    +0.000 A 
ATOM     24  C   UNL     1      -3.283  11.870  18.842  0.00  0.00    +0.000 A 
ATOM     25  C   UNL     1      -2.010  11.441  19.249  0.00  0.00    +0.000 A 
ATOM     26  N   UNL     1      -1.627  11.721  20.564  0.00  0.00    +0.000 N 
ATOM     27  H   UNL     1      -2.284  12.139  21.211  0.00  0.00    +0.000 HD
ENDBRANCH  13  18
ENDBRANCH  12  13
ENDBRANCH   1  12
BRANCH  11  28
ATOM     28  C   UNL     1       4.932   5.530  16.532  0.00  0.00    +0.000 C 
BRANCH  28  29
ATOM     29  C   UNL     1       6.168   6.037  17.240  0.00  0.00    +0.000 A 
ATOM     30  C   UNL     1       6.753   5.292  18.272  0.00  0.00    +0.000 A 
ATOM     31  C   UNL     1       7.795   5.826  19.029  0.00  0.00    +0.000 A 
ATOM     32  C   UNL     1       8.293   7.093  18.736  0.00  0.00    +0.000 A 
ATOM     33  C   UNL     1       7.776   7.810  17.661  0.00  0.00    +0.000 A 
ATOM     34  C   UNL     1       6.721   7.285  16.915  0.00  0.00    +0.000 A 
ENDBRANCH  28  29
ENDBRANCH  11  28
TORSDOF 5
ENDMDL
MODEL 9
REMARK VINA RESULT:      -8.7      1.542      2.570
REMARK  Name = 
REMARK  5 active torsions:
REMARK  status: ('A' for Active; 'I' for Inactive)
REMARK    1  A    between atoms: C_5  and  C_7
REMARK    2  A    between atoms: C_7  and  S_8
REMARK    3  A    between atoms: S_8  and  C_9
REMARK    4  A    between atoms: N_19  and  C_20
REMARK    5  A    between atoms: C_20  and  C_21
REMARK                            x       y       z     vdW  Elec       q    Type
REMARK                         _______ _______ _______ _____ _____    ______ ____
ROOT
ATOM      1  C   UNL     1       2.956   6.193  17.866  0.00  0.00    +0.000 A 
ATOM      2  N   UNL     1       2.113   5.646  18.681  0.00  0.00    +0.000 NA
ATOM      3  C   UNL     1       2.189   4.261  18.888  0.00  0.00    +0.000 A 
ATOM      4  C   UNL     1       1.466   3.678  19.938  0.00  0.00    +0.000 A 
ATOM      5  C   UNL     1       1.536   2.299  20.181  0.00  0.00    +0.000 A 
ATOM      6  C   UNL     1       2.312   1.480  19.361  0.00  0.00    +0.000 A 
ATOM      7  C   UNL     1       3.050   2.050  18.326  0.00  0.00    +0.000 A 
ATOM      8  C   UNL     1       3.001   3.436  18.122  0.00  0.00    +0.000 A 
ATOM      9  C   UNL     1       3.898   4.085  17.158  0.00  0.00    +0.000 A 
ATOM     10  O   UNL     1       4.627   3.370  16.474  0.00  0.00    +0.000 OA
ATOM     11  N   UNL     1       3.902   5.481  17.135  0.00  0.00    +0.000 N 
ENDROOT
BRANCH   1  12
ATOM     12  S   UNL     1       2.964   7.947  17.828  0.00  0.00    +0.000 S 
BRANCH  12  13
ATOM     13  C   UNL     1       2.235   8.423  19.445  0.00  0.00    +0.000 C 
BRANCH  13  18
ATOM     14  O   UNL     1       0.185   9.524  23.929  0.00  0.00    +0.000 OA
ATOM     15  C   UNL     1       0.052  10.051  22.825  0.00  0.00    +0.000 C 
ATOM     16  C   UNL     1       1.085   9.896  21.716  0.00  0.00    +0.000 C 
ATOM     17  N   UNL     1       0.614  10.168  20.352  0.00  0.00    +0.000 N 
ATOM     18  C   UNL     1       1.076   9.442  19.236  0.00  0.00    +0.000 C 
ATOM     19  O   UNL     1       0.542   9.538  18.126  0.00  0.00    +0.000 OA
ATOM     20  C   UNL     1      -0.375  11.224  20.243  0.00  0.00    +0.000 A 
ATOM     21  C   UNL     1      -0.633  11.915  19.051  0.00  0.00    +0.000 A 
ATOM     22  C   UNL     1      -1.608  12.923  18.987  0.00  0.00    +0.000 A 
ATOM     23  C   UNL     1      -2.356  13.257  20.114  0.00  0.00    +0.000 A 
ATOM     24  C   UNL     1      -2.118  12.590  21.310  0.00  0.00    +0.000 A 
ATOM     25  C   UNL     1      -1.130  11.596  21.376  0.00  0.00    +0.000 A 
ATOM     26  N   UNL     1      -0.949  10.950  22.602  0.00  0.00    +0.000 N 
ATOM     27  H   UNL     1      -1.571  11.139  23.378  0.00  0.00    +0.000 HD
ENDBRANCH  13  18
ENDBRANCH  12  13
ENDBRANCH   1  12
BRANCH  11  28
ATOM     28  C   UNL     1       4.987   6.091  16.352  0.00  0.00    +0.000 C 
BRANCH  28  29
ATOM     29  C   UNL     1       6.210   6.390  17.188  0.00  0.00    +0.000 A 
ATOM     30  C   UNL     1       6.671   5.464  18.133  0.00  0.00    +0.000 A 
ATOM     31  C   UNL     1       7.700   5.798  19.010  0.00  0.00    +0.000 A 
ATOM     32  C   UNL     1       8.312   7.047  18.925  0.00  0.00    +0.000 A 
ATOM     33  C   UNL     1       7.921   7.946  17.938  0.00  0.00    +0.000 A 
ATOM     34  C   UNL     1       6.877   7.618  17.071  0.00  0.00    +0.000 A 
ENDBRANCH  28  29
ENDBRANCH  11  28
TORSDOF 5
ENDMDL
