MODEL 1
REMARK VINA RESULT:      -8.7      0.000      0.000
REMARK  Name = 
REMARK  3 active torsions:
REMARK  status: ('A' for Active; 'I' for Inactive)
REMARK    1  A    between atoms: C_6  and  C_7
REMARK    2  A    between atoms: N_9  and  C_10
REMARK    3  A    between atoms: C_10  and  C_11
REMARK                            x       y       z     vdW  Elec       q    Type
REMARK                         _______ _______ _______ _____ _____    ______ ____
ROOT
ATOM      1  C   UNL     1       0.074   9.510  20.101  0.00  0.00    +0.000 C 
ATOM      2  C   UNL     1      -0.644  10.589  20.998  0.00  0.00    +0.000 C 
ATOM      3  C   UNL     1      -0.991  11.849  20.159  0.00  0.00    +0.000 C 
ATOM      4  C   UNL     1      -1.870  11.355  19.014  0.00  0.00    +0.000 A 
ATOM      5  C   UNL     1      -3.153  11.802  18.728  0.00  0.00    +0.000 A 
ATOM      6  C   UNL     1      -3.811  11.274  17.615  0.00  0.00    +0.000 A 
ATOM      7  C   UNL     1      -3.188  10.314  16.803  0.00  0.00    +0.000 A 
ATOM      8  C   UNL     1      -1.898   9.862  17.088  0.00  0.00    +0.000 A 
ATOM      9  C   UNL     1      -1.240  10.383  18.193  0.00  0.00    +0.000 A 
ATOM     10  C   UNL     1       0.185  10.046  18.632  0.00  0.00    +0.000 C 
ATOM     11  C   UNL     1       0.952  11.365  18.718  0.00  0.00    +0.000 A 
ATOM     12  C   UNL     1       2.160  11.642  18.093  0.00  0.00    +0.000 A 
ATOM     13  C   UNL     1       2.756  12.884  18.319  0.00  0.00    +0.000 A 
ATOM     14  C   UNL     1       2.147  13.831  19.157  0.00  0.00    +0.000 A 
ATOM     15  C   UNL     1       0.927  13.558  19.781  0.00  0.00    +0.000 A 
ATOM     16  C   UNL     1       0.331  12.325  19.560  0.00  0.00    +0.000 A 
ENDROOT
BRANCH   1  17
ATOM     17  C   UNL     1       1.455   9.135  20.661  0.00  0.00    +0.000 C 
BRANCH  17  20
ATOM     18  C   UNL     1       2.270   6.977  19.758  0.00  0.00    +0.000 C 
ATOM     19  O   UNL     1       2.667   7.485  18.714  0.00  0.00    +0.000 OA
ATOM     20  N   UNL     1       1.646   7.703  20.750  0.00  0.00    +0.000 N 
ATOM     21  H   UNL     1       1.264   7.206  21.546  0.00  0.00    +0.000 HD
BRANCH  18  27
ATOM     22  O   UNL     1       5.779   4.445  19.044  0.00  0.00    +0.000 OA
ATOM     23  C   UNL     1       4.555   4.545  19.007  0.00  0.00    +0.000 C 
ATOM     24  C   UNL     1       3.738   4.002  17.855  0.00  0.00    +0.000 C 
ATOM     25  C   UNL     1       2.305   4.507  17.777  0.00  0.00    +0.000 C 
ATOM     26  C   UNL     1       1.659   4.607  19.153  0.00  0.00    +0.000 C 
ATOM     27  C   UNL     1       2.494   5.484  20.081  0.00  0.00    +0.000 C 
ATOM     28  N   UNL     1       3.899   5.090  20.069  0.00  0.00    +0.000 N 
ATOM     29  H   UNL     1       4.501   5.406  20.820  0.00  0.00    +0.000 HD
ENDBRANCH  18  27
ENDBRANCH  17  20
ENDBRANCH   1  17
TORSDOF 3
ENDMDL
MODEL 2
REMARK VINA RESULT:      -8.7      2.520      8.554
REMARK  Name = 
REMARK  3 active torsions:
REMARK  status: ('A' for Active; 'I' for Inactive)
REMARK    1  A    between atoms: C_6  and  C_7
REMARK    2  A    between atoms: N_9  and  C_10
REMARK    3  A    between atoms: C_10  and  C_11
REMARK                            x       y       z     vdW  Elec       q    Type
REMARK                         _______ _______ _______ _____ _____    ______ ____
ROOT
ATOM      1  C   UNL     1       3.767   6.523  18.396  0.00  0.00    +0.000 C 
ATOM      2  C   UNL     1       4.824   5.898  19.384  0.00  0.00    +0.000 C 
ATOM      3  C   UNL     1       5.239   4.480  18.907  0.00  0.00    +0.000 C 
ATOM      4  C   UNL     1       5.786   4.660  17.494  0.00  0.00    +0.000 A 
ATOM      5  C   UNL     1       7.056   4.297  17.066  0.00  0.00    +0.000 A 
ATOM      6  C   UNL     1       7.390   4.495  15.724  0.00  0.00    +0.000 A 
ATOM      7  C   UNL     1       6.462   5.048  14.829  0.00  0.00    +0.000 A 
ATOM      8  C   UNL     1       5.184   5.417  15.257  0.00  0.00    +0.000 A 
ATOM      9  C   UNL     1       4.848   5.222  16.589  0.00  0.00    +0.000 A 
ATOM     10  C   UNL     1       3.490   5.518  17.225  0.00  0.00    +0.000 C 
ATOM     11  C   UNL     1       3.010   4.224  17.882  0.00  0.00    +0.000 A 
ATOM     12  C   UNL     1       1.781   3.616  17.669  0.00  0.00    +0.000 A 
ATOM     13  C   UNL     1       1.476   2.461  18.391  0.00  0.00    +0.000 A 
ATOM     14  C   UNL     1       2.394   1.926  19.310  0.00  0.00    +0.000 A 
ATOM     15  C   UNL     1       3.635   2.532  19.520  0.00  0.00    +0.000 A 
ATOM     16  C   UNL     1       3.941   3.680  18.805  0.00  0.00    +0.000 A 
ENDROOT
BRANCH   1  17
ATOM     17  C   UNL     1       2.466   6.901  19.123  0.00  0.00    +0.000 C 
BRANCH  17  20
ATOM     18  C   UNL     1       1.433   9.068  19.732  0.00  0.00    +0.000 C 
ATOM     19  O   UNL     1       1.210   8.717  20.886  0.00  0.00    +0.000 OA
ATOM     20  N   UNL     1       2.019   8.240  18.799  0.00  0.00    +0.000 N 
ATOM     21  H   UNL     1       2.092   8.563  17.842  0.00  0.00    +0.000 HD
BRANCH  18  27
ATOM     22  O   UNL     1       0.119  12.596  21.982  0.00  0.00    +0.000 OA
ATOM     23  C   UNL     1      -0.005  11.916  20.966  0.00  0.00    +0.000 C 
ATOM     24  C   UNL     1      -1.358  11.605  20.366  0.00  0.00    +0.000 C 
ATOM     25  C   UNL     1      -1.375  10.480  19.342  0.00  0.00    +0.000 C 
ATOM     26  C   UNL     1      -0.158  10.525  18.426  0.00  0.00    +0.000 C 
ATOM     27  C   UNL     1       1.133  10.501  19.239  0.00  0.00    +0.000 C 
ATOM     28  N   UNL     1       1.111  11.492  20.309  0.00  0.00    +0.000 N 
ATOM     29  H   UNL     1       1.985  11.759  20.745  0.00  0.00    +0.000 HD
ENDBRANCH  18  27
ENDBRANCH  17  20
ENDBRANCH   1  17
TORSDOF 3
ENDMDL
MODEL 3
REMARK VINA RESULT:      -8.6      2.431      8.446
REMARK  Name = 
REMARK  3 active torsions:
REMARK  status: ('A' for Active; 'I' for Inactive)
REMARK    1  A    between atoms: C_6  and  C_7
REMARK    2  A    between atoms: N_9  and  C_10
REMARK    3  A    between atoms: C_10  and  C_11
REMARK                            x       y       z     vdW  Elec       q    Type
REMARK                         _______ _______ _______ _____ _____    ______ ____
ROOT
ATOM      1  C   UNL     1       3.957   6.516  18.583  0.00  0.00    +0.000 C 
ATOM      2  C   UNL     1       5.036   5.737  19.428  0.00  0.00    +0.000 C 
ATOM      3  C   UNL     1       5.326   4.352  18.791  0.00  0.00    +0.000 C 
ATOM      4  C   UNL     1       5.788   4.639  17.365  0.00  0.00    +0.000 A 
ATOM      5  C   UNL     1       7.000   4.247  16.813  0.00  0.00    +0.000 A 
ATOM      6  C   UNL     1       7.255   4.556  15.474  0.00  0.00    +0.000 A 
ATOM      7  C   UNL     1       6.306   5.247  14.706  0.00  0.00    +0.000 A 
ATOM      8  C   UNL     1       5.087   5.644  15.259  0.00  0.00    +0.000 A 
ATOM      9  C   UNL     1       4.829   5.339  16.588  0.00  0.00    +0.000 A 
ATOM     10  C   UNL     1       3.538   5.649  17.346  0.00  0.00    +0.000 C 
ATOM     11  C   UNL     1       3.022   4.326  17.912  0.00  0.00    +0.000 A 
ATOM     12  C   UNL     1       1.745   3.812  17.733  0.00  0.00    +0.000 A 
ATOM     13  C   UNL     1       1.417   2.611  18.365  0.00  0.00    +0.000 A 
ATOM     14  C   UNL     1       2.358   1.937  19.159  0.00  0.00    +0.000 A 
ATOM     15  C   UNL     1       3.647   2.448  19.334  0.00  0.00    +0.000 A 
ATOM     16  C   UNL     1       3.977   3.642  18.709  0.00  0.00    +0.000 A 
ENDROOT
BRANCH   1  17
ATOM     17  C   UNL     1       2.735   6.895  19.435  0.00  0.00    +0.000 C 
BRANCH  17  20
ATOM     18  C   UNL     1       1.288   8.899  19.579  0.00  0.00    +0.000 C 
ATOM     19  O   UNL     1       1.296   8.903  20.806  0.00  0.00    +0.000 OA
ATOM     20  N   UNL     1       1.941   7.944  18.831  0.00  0.00    +0.000 N 
ATOM     21  H   UNL     1       1.819   7.949  17.825  0.00  0.00    +0.000 HD
BRANCH  18  27
ATOM     22  O   UNL     1       2.888  12.687  18.053  0.00  0.00    +0.000 OA
ATOM     23  C   UNL     1       1.951  12.108  18.598  0.00  0.00    +0.000 C 
ATOM     24  C   UNL     1       1.193  12.719  19.756  0.00  0.00    +0.000 C 
ATOM     25  C   UNL     1       0.316  11.756  20.542  0.00  0.00    +0.000 C 
ATOM     26  C   UNL     1      -0.404  10.769  19.631  0.00  0.00    +0.000 C 
ATOM     27  C   UNL     1       0.592  10.009  18.761  0.00  0.00    +0.000 C 
ATOM     28  N   UNL     1       1.524  10.915  18.098  0.00  0.00    +0.000 N 
ATOM     29  H   UNL     1       2.053  10.576  17.304  0.00  0.00    +0.000 HD
ENDBRANCH  18  27
ENDBRANCH  17  20
ENDBRANCH   1  17
TORSDOF 3
ENDMDL
MODEL 4
REMARK VINA RESULT:      -8.6      2.449      7.862
REMARK  Name = 
REMARK  3 active torsions:
REMARK  status: ('A' for Active; 'I' for Inactive)
REMARK    1  A    between atoms: C_6  and  C_7
REMARK    2  A    between atoms: N_9  and  C_10
REMARK    3  A    between atoms: C_10  and  C_11
REMARK                            x       y       z     vdW  Elec       q    Type
REMARK                         _______ _______ _______ _____ _____    ______ ____
ROOT
ATOM      1  C   UNL     1       2.348   6.566  18.605  0.00  0.00    +0.000 C 
ATOM      2  C   UNL     1       1.776   5.597  17.502  0.00  0.00    +0.000 C 
ATOM      3  C   UNL     1       2.430   4.194  17.621  0.00  0.00    +0.000 C 
ATOM      4  C   UNL     1       2.132   3.715  19.039  0.00  0.00    +0.000 A 
ATOM      5  C   UNL     1       1.466   2.544  19.375  0.00  0.00    +0.000 A 
ATOM      6  C   UNL     1       1.307   2.230  20.726  0.00  0.00    +0.000 A 
ATOM      7  C   UNL     1       1.811   3.080  21.723  0.00  0.00    +0.000 A 
ATOM      8  C   UNL     1       2.481   4.259  21.389  0.00  0.00    +0.000 A 
ATOM      9  C   UNL     1       2.640   4.575  20.047  0.00  0.00    +0.000 A 
ATOM     10  C   UNL     1       3.383   5.792  19.493  0.00  0.00    +0.000 C 
ATOM     11  C   UNL     1       4.453   5.267  18.537  0.00  0.00    +0.000 A 
ATOM     12  C   UNL     1       5.805   5.578  18.586  0.00  0.00    +0.000 A 
ATOM     13  C   UNL     1       6.644   5.053  17.601  0.00  0.00    +0.000 A 
ATOM     14  C   UNL     1       6.132   4.229  16.587  0.00  0.00    +0.000 A 
ATOM     15  C   UNL     1       4.773   3.908  16.540  0.00  0.00    +0.000 A 
ATOM     16  C   UNL     1       3.936   4.428  17.515  0.00  0.00    +0.000 A 
ENDROOT
BRANCH   1  17
ATOM     17  C   UNL     1       2.980   7.821  17.984  0.00  0.00    +0.000 C 
BRANCH  17  20
ATOM     18  C   UNL     1       1.323   9.371  18.977  0.00  0.00    +0.000 C 
ATOM     19  O   UNL     1       1.384   8.839  20.081  0.00  0.00    +0.000 OA
ATOM     20  N   UNL     1       2.048   8.925  17.893  0.00  0.00    +0.000 N 
ATOM     21  H   UNL     1       1.882   9.354  16.991  0.00  0.00    +0.000 HD
BRANCH  18  27
ATOM     22  O   UNL     1       2.583  13.468  18.050  0.00  0.00    +0.000 OA
ATOM     23  C   UNL     1       1.826  12.742  18.690  0.00  0.00    +0.000 C 
ATOM     24  C   UNL     1       1.488  13.011  20.140  0.00  0.00    +0.000 C 
ATOM     25  C   UNL     1       0.840  11.853  20.884  0.00  0.00    +0.000 C 
ATOM     26  C   UNL     1      -0.173  11.114  20.018  0.00  0.00    +0.000 C 
ATOM     27  C   UNL     1       0.471  10.634  18.721  0.00  0.00    +0.000 C 
ATOM     28  N   UNL     1       1.206  11.706  18.059  0.00  0.00    +0.000 N 
ATOM     29  H   UNL     1       1.451  11.599  17.082  0.00  0.00    +0.000 HD
ENDBRANCH  18  27
ENDBRANCH  17  20
ENDBRANCH   1  17
TORSDOF 3
ENDMDL
MODEL 5
REMARK VINA RESULT:      -8.4      2.416      7.827
REMARK  Name = 
REMARK  3 active torsions:
REMARK  status: ('A' for Active; 'I' for Inactive)
REMARK    1  A    between atoms: C_6  and  C_7
REMARK    2  A    between atoms: N_9  and  C_10
REMARK    3  A    between atoms: C_10  and  C_11
REMARK                            x       y       z     vdW  Elec       q    Type
REMARK                         _______ _______ _______ _____ _____    ______ ____
ROOT
ATOM      1  C   UNL     1       2.330   6.572  18.568  0.00  0.00    +0.000 C 
ATOM      2  C   UNL     1       1.731   5.586  17.494  0.00  0.00    +0.000 C 
ATOM      3  C   UNL     1       2.379   4.181  17.626  0.00  0.00    +0.000 C 
ATOM      4  C   UNL     1       2.106   3.731  19.059  0.00  0.00    +0.000 A 
ATOM      5  C   UNL     1       1.439   2.570  19.428  0.00  0.00    +0.000 A 
ATOM      6  C   UNL     1       1.305   2.282  20.789  0.00  0.00    +0.000 A 
ATOM      7  C   UNL     1       1.833   3.147  21.759  0.00  0.00    +0.000 A 
ATOM      8  C   UNL     1       2.503   4.316  21.391  0.00  0.00    +0.000 A 
ATOM      9  C   UNL     1       2.638   4.606  20.040  0.00  0.00    +0.000 A 
ATOM     10  C   UNL     1       3.377   5.808  19.450  0.00  0.00    +0.000 C 
ATOM     11  C   UNL     1       4.426   5.259  18.483  0.00  0.00    +0.000 A 
ATOM     12  C   UNL     1       5.780   5.561  18.500  0.00  0.00    +0.000 A 
ATOM     13  C   UNL     1       6.597   5.014  17.510  0.00  0.00    +0.000 A 
ATOM     14  C   UNL     1       6.060   4.174  16.520  0.00  0.00    +0.000 A 
ATOM     15  C   UNL     1       4.699   3.861  16.506  0.00  0.00    +0.000 A 
ATOM     16  C   UNL     1       3.884   4.404  17.488  0.00  0.00    +0.000 A 
ENDROOT
BRANCH   1  17
ATOM     17  C   UNL     1       2.958   7.811  17.911  0.00  0.00    +0.000 C 
BRANCH  17  20
ATOM     18  C   UNL     1       1.434   9.382  19.071  0.00  0.00    +0.000 C 
ATOM     19  O   UNL     1       1.538   8.799  20.146  0.00  0.00    +0.000 OA
ATOM     20  N   UNL     1       2.071   8.955  17.926  0.00  0.00    +0.000 N 
ATOM     21  H   UNL     1       1.869   9.431  17.054  0.00  0.00    +0.000 HD
BRANCH  18  27
ATOM     22  O   UNL     1       1.867  13.207  21.173  0.00  0.00    +0.000 OA
ATOM     23  C   UNL     1       1.101  12.350  20.738  0.00  0.00    +0.000 C 
ATOM     24  C   UNL     1      -0.111  11.885  21.517  0.00  0.00    +0.000 C 
ATOM     25  C   UNL     1      -0.746  10.594  21.024  0.00  0.00    +0.000 C 
ATOM     26  C   UNL     1      -0.777  10.518  19.502  0.00  0.00    +0.000 C 
ATOM     27  C   UNL     1       0.625  10.689  18.923  0.00  0.00    +0.000 C 
ATOM     28  N   UNL     1       1.297  11.856  19.484  0.00  0.00    +0.000 N 
ATOM     29  H   UNL     1       2.106  12.230  19.004  0.00  0.00    +0.000 HD
ENDBRANCH  18  27
ENDBRANCH  17  20
ENDBRANCH   1  17
TORSDOF 3
ENDMDL
MODEL 6
REMARK VINA RESULT:      -8.4      1.136      1.435
REMARK  Name = 
REMARK  3 active torsions:
REMARK  status: ('A' for Active; 'I' for Inactive)
REMARK    1  A    between atoms: C_6  and  C_7
REMARK    2  A    between atoms: N_9  and  C_10
REMARK    3  A    between atoms: C_10  and  C_11
REMARK                            x       y       z     vdW  Elec       q    Type
REMARK                         _______ _______ _______ _____ _____    ______ ____
ROOT
ATOM      1  C   UNL     1       0.389   9.250  19.903  0.00  0.00    +0.000 C 
ATOM      2  C   UNL     1      -0.478  10.123  20.887  0.00  0.00    +0.000 C 
ATOM      3  C   UNL     1      -0.978  11.409  20.175  0.00  0.00    +0.000 C 
ATOM      4  C   UNL     1      -1.768  10.930  18.960  0.00  0.00    +0.000 A 
ATOM      5  C   UNL     1      -3.095  11.232  18.686  0.00  0.00    +0.000 A 
ATOM      6  C   UNL     1      -3.661  10.744  17.506  0.00  0.00    +0.000 A 
ATOM      7  C   UNL     1      -2.905   9.967  16.616  0.00  0.00    +0.000 A 
ATOM      8  C   UNL     1      -1.570   9.660  16.889  0.00  0.00    +0.000 A 
ATOM      9  C   UNL     1      -1.003  10.142  18.060  0.00  0.00    +0.000 A 
ATOM     10  C   UNL     1       0.449   9.949  18.501  0.00  0.00    +0.000 C 
ATOM     11  C   UNL     1       1.031  11.341  18.746  0.00  0.00    +0.000 A 
ATOM     12  C   UNL     1       2.200  11.839  18.188  0.00  0.00    +0.000 A 
ATOM     13  C   UNL     1       2.622  13.117  18.558  0.00  0.00    +0.000 A 
ATOM     14  C   UNL     1       1.880  13.881  19.473  0.00  0.00    +0.000 A 
ATOM     15  C   UNL     1       0.699  13.385  20.031  0.00  0.00    +0.000 A 
ATOM     16  C   UNL     1       0.276  12.115  19.666  0.00  0.00    +0.000 A 
ENDROOT
BRANCH   1  17
ATOM     17  C   UNL     1       1.800   9.001  20.459  0.00  0.00    +0.000 C 
BRANCH  17  20
ATOM     18  C   UNL     1       2.597   6.879  19.462  0.00  0.00    +0.000 C 
ATOM     19  O   UNL     1       2.736   7.374  18.348  0.00  0.00    +0.000 OA
ATOM     20  N   UNL     1       2.123   7.592  20.542  0.00  0.00    +0.000 N 
ATOM     21  H   UNL     1       1.947   7.099  21.408  0.00  0.00    +0.000 HD
BRANCH  18  27
ATOM     22  O   UNL     1       2.096   3.257  17.039  0.00  0.00    +0.000 OA
ATOM     23  C   UNL     1       2.027   3.770  18.153  0.00  0.00    +0.000 C 
ATOM     24  C   UNL     1       0.887   3.475  19.103  0.00  0.00    +0.000 C 
ATOM     25  C   UNL     1       0.749   4.437  20.274  0.00  0.00    +0.000 C 
ATOM     26  C   UNL     1       2.103   4.832  20.851  0.00  0.00    +0.000 C 
ATOM     27  C   UNL     1       3.003   5.420  19.767  0.00  0.00    +0.000 C 
ATOM     28  N   UNL     1       3.043   4.568  18.584  0.00  0.00    +0.000 N 
ATOM     29  H   UNL     1       3.790   4.700  17.913  0.00  0.00    +0.000 HD
ENDBRANCH  18  27
ENDBRANCH  17  20
ENDBRANCH   1  17
TORSDOF 3
ENDMDL
MODEL 7
REMARK VINA RESULT:      -8.3      4.615      7.538
REMARK  Name = 
REMARK  3 active torsions:
REMARK  status: ('A' for Active; 'I' for Inactive)
REMARK    1  A    between atoms: C_6  and  C_7
REMARK    2  A    between atoms: N_9  and  C_10
REMARK    3  A    between atoms: C_10  and  C_11
REMARK                            x       y       z     vdW  Elec       q    Type
REMARK                         _______ _______ _______ _____ _____    ______ ____
ROOT
ATOM      1  C   UNL     1      -1.469  10.726  18.648  0.00  0.00    +0.000 C 
ATOM      2  C   UNL     1      -0.209   9.868  18.247  0.00  0.00    +0.000 C 
ATOM      3  C   UNL     1       1.018  10.270  19.109  0.00  0.00    +0.000 C 
ATOM      4  C   UNL     1       0.595  10.053  20.560  0.00  0.00    +0.000 A 
ATOM      5  C   UNL     1       1.236   9.231  21.476  0.00  0.00    +0.000 A 
ATOM      6  C   UNL     1       0.743   9.173  22.781  0.00  0.00    +0.000 A 
ATOM      7  C   UNL     1      -0.376   9.931  23.158  0.00  0.00    +0.000 A 
ATOM      8  C   UNL     1      -1.025  10.758  22.239  0.00  0.00    +0.000 A 
ATOM      9  C   UNL     1      -0.539  10.818  20.940  0.00  0.00    +0.000 A 
ATOM     10  C   UNL     1      -1.086  11.699  19.816  0.00  0.00    +0.000 C 
ATOM     11  C   UNL     1       0.079  12.543  19.300  0.00  0.00    +0.000 A 
ATOM     12  C   UNL     1       0.084  13.925  19.175  0.00  0.00    +0.000 A 
ATOM     13  C   UNL     1       1.215  14.540  18.634  0.00  0.00    +0.000 A 
ATOM     14  C   UNL     1       2.321  13.777  18.228  0.00  0.00    +0.000 A 
ATOM     15  C   UNL     1       2.322  12.386  18.360  0.00  0.00    +0.000 A 
ATOM     16  C   UNL     1       1.200  11.771  18.897  0.00  0.00    +0.000 A 
ENDROOT
BRANCH   1  17
ATOM     17  C   UNL     1      -2.036  11.497  17.446  0.00  0.00    +0.000 C 
BRANCH  17  20
ATOM     18  C   UNL     1      -4.488  11.737  17.195  0.00  0.00    +0.000 C 
ATOM     19  O   UNL     1      -4.563  10.824  16.378  0.00  0.00    +0.000 OA
ATOM     20  N   UNL     1      -3.294  12.147  17.748  0.00  0.00    +0.000 N 
ATOM     21  H   UNL     1      -3.293  12.964  18.346  0.00  0.00    +0.000 HD
BRANCH  18  27
ATOM     22  O   UNL     1      -5.198  13.632  21.086  0.00  0.00    +0.000 OA
ATOM     23  C   UNL     1      -5.645  12.922  20.188  0.00  0.00    +0.000 C 
ATOM     24  C   UNL     1      -6.455  11.677  20.475  0.00  0.00    +0.000 C 
ATOM     25  C   UNL     1      -6.628  10.726  19.299  0.00  0.00    +0.000 C 
ATOM     26  C   UNL     1      -6.866  11.472  17.993  0.00  0.00    +0.000 C 
ATOM     27  C   UNL     1      -5.741  12.468  17.725  0.00  0.00    +0.000 C 
ATOM     28  N   UNL     1      -5.477  13.304  18.891  0.00  0.00    +0.000 N 
ATOM     29  H   UNL     1      -4.953  14.162  18.768  0.00  0.00    +0.000 HD
ENDBRANCH  18  27
ENDBRANCH  17  20
ENDBRANCH   1  17
TORSDOF 3
ENDMDL
MODEL 8
REMARK VINA RESULT:      -8.2      1.176      1.453
REMARK  Name = 
REMARK  3 active torsions:
REMARK  status: ('A' for Active; 'I' for Inactive)
REMARK    1  A    between atoms: C_6  and  C_7
REMARK    2  A    between atoms: N_9  and  C_10
REMARK    3  A    between atoms: C_10  and  C_11
REMARK                            x       y       z     vdW  Elec       q    Type
REMARK                         _______ _______ _______ _____ _____    ______ ____
ROOT
ATOM      1  C   UNL     1       0.142   9.311  19.860  0.00  0.00    +0.000 C 
ATOM      2  C   UNL     1      -0.481  10.306  20.912  0.00  0.00    +0.000 C 
ATOM      3  C   UNL     1      -0.829  11.660  20.237  0.00  0.00    +0.000 C 
ATOM      4  C   UNL     1      -1.791  11.323  19.102  0.00  0.00    +0.000 A 
ATOM      5  C   UNL     1      -3.071  11.838  18.947  0.00  0.00    +0.000 A 
ATOM      6  C   UNL     1      -3.813  11.456  17.826  0.00  0.00    +0.000 A 
ATOM      7  C   UNL     1      -3.275  10.573  16.878  0.00  0.00    +0.000 A 
ATOM      8  C   UNL     1      -1.988  10.053  17.032  0.00  0.00    +0.000 A 
ATOM      9  C   UNL     1      -1.248  10.428  18.144  0.00  0.00    +0.000 A 
ATOM     10  C   UNL     1       0.188  10.001  18.454  0.00  0.00    +0.000 C 
ATOM     11  C   UNL     1       1.007  11.278  18.634  0.00  0.00    +0.000 A 
ATOM     12  C   UNL     1       2.186  11.586  17.969  0.00  0.00    +0.000 A 
ATOM     13  C   UNL     1       2.840  12.776  18.291  0.00  0.00    +0.000 A 
ATOM     14  C   UNL     1       2.317  13.643  19.263  0.00  0.00    +0.000 A 
ATOM     15  C   UNL     1       1.126  13.340  19.928  0.00  0.00    +0.000 A 
ATOM     16  C   UNL     1       0.473  12.159  19.613  0.00  0.00    +0.000 A 
ENDROOT
BRANCH   1  17
ATOM     17  C   UNL     1       1.538   8.834  20.290  0.00  0.00    +0.000 C 
BRANCH  17  20
ATOM     18  C   UNL     1       2.222   6.574  19.541  0.00  0.00    +0.000 C 
ATOM     19  O   UNL     1       1.839   6.039  20.576  0.00  0.00    +0.000 OA
ATOM     20  N   UNL     1       2.137   7.933  19.327  0.00  0.00    +0.000 N 
ATOM     21  H   UNL     1       2.554   8.319  18.489  0.00  0.00    +0.000 HD
BRANCH  18  27
ATOM     22  O   UNL     1       2.930   2.260  19.183  0.00  0.00    +0.000 OA
ATOM     23  C   UNL     1       3.348   3.395  18.966  0.00  0.00    +0.000 C 
ATOM     24  C   UNL     1       4.799   3.770  19.173  0.00  0.00    +0.000 C 
ATOM     25  C   UNL     1       5.087   5.264  19.210  0.00  0.00    +0.000 C 
ATOM     26  C   UNL     1       4.271   6.028  18.174  0.00  0.00    +0.000 C 
ATOM     27  C   UNL     1       2.780   5.758  18.354  0.00  0.00    +0.000 C 
ATOM     28  N   UNL     1       2.502   4.329  18.448  0.00  0.00    +0.000 N 
ATOM     29  H   UNL     1       1.553   4.006  18.305  0.00  0.00    +0.000 HD
ENDBRANCH  18  27
ENDBRANCH  17  20
ENDBRANCH   1  17
TORSDOF 3
ENDMDL
MODEL 9
REMARK VINA RESULT:      -8.2      2.515      7.658
REMARK  Name = 
REMARK  3 active torsions:
REMARK  status: ('A' for Active; 'I' for Inactive)
REMARK    1  A    between atoms: C_6  and  C_7
REMARK    2  A    between atoms: N_9  and  C_10
REMARK    3  A    between atoms: C_10  and  C_11
REMARK                            x       y       z     vdW  Elec       q    Type
REMARK                         _______ _______ _______ _____ _____    ______ ____
ROOT
ATOM      1  C   UNL     1       2.269   6.659  18.471  0.00  0.00    +0.000 C 
ATOM      2  C   UNL     1       1.631   5.630  17.462  0.00  0.00    +0.000 C 
ATOM      3  C   UNL     1       2.291   4.234  17.620  0.00  0.00    +0.000 C 
ATOM      4  C   UNL     1       2.080   3.838  19.078  0.00  0.00    +0.000 A 
ATOM      5  C   UNL     1       1.436   2.690  19.520  0.00  0.00    +0.000 A 
ATOM      6  C   UNL     1       1.360   2.454  20.895  0.00  0.00    +0.000 A 
ATOM      7  C   UNL     1       1.924   3.357  21.809  0.00  0.00    +0.000 A 
ATOM      8  C   UNL     1       2.572   4.513  21.368  0.00  0.00    +0.000 A 
ATOM      9  C   UNL     1       2.649   4.752  20.003  0.00  0.00    +0.000 A 
ATOM     10  C   UNL     1       3.356   5.933  19.337  0.00  0.00    +0.000 C 
ATOM     11  C   UNL     1       4.366   5.351  18.348  0.00  0.00    +0.000 A 
ATOM     12  C   UNL     1       5.719   5.659  18.297  0.00  0.00    +0.000 A 
ATOM     13  C   UNL     1       6.496   5.077  17.294  0.00  0.00    +0.000 A 
ATOM     14  C   UNL     1       5.923   4.198  16.361  0.00  0.00    +0.000 A 
ATOM     15  C   UNL     1       4.563   3.880  16.415  0.00  0.00    +0.000 A 
ATOM     16  C   UNL     1       3.787   4.457  17.409  0.00  0.00    +0.000 A 
ENDROOT
BRANCH   1  17
ATOM     17  C   UNL     1       2.862   7.875  17.742  0.00  0.00    +0.000 C 
BRANCH  17  20
ATOM     18  C   UNL     1       1.369   9.787  18.239  0.00  0.00    +0.000 C 
ATOM     19  O   UNL     1       0.494   9.393  17.474  0.00  0.00    +0.000 OA
ATOM     20  N   UNL     1       2.564   9.123  18.412  0.00  0.00    +0.000 N 
ATOM     21  H   UNL     1       3.277   9.552  18.990  0.00  0.00    +0.000 HD
BRANCH  18  27
ATOM     22  O   UNL     1       0.740  10.087  22.569  0.00  0.00    +0.000 OA
ATOM     23  C   UNL     1       0.422  10.484  21.451  0.00  0.00    +0.000 C 
ATOM     24  C   UNL     1      -1.020  10.742  21.070  0.00  0.00    +0.000 C 
ATOM     25  C   UNL     1      -1.285  10.881  19.578  0.00  0.00    +0.000 C 
ATOM     26  C   UNL     1      -0.186  11.668  18.875  0.00  0.00    +0.000 C 
ATOM     27  C   UNL     1       1.179  11.037  19.127  0.00  0.00    +0.000 C 
ATOM     28  N   UNL     1       1.396  10.780  20.547  0.00  0.00    +0.000 N 
ATOM     29  H   UNL     1       2.341  10.615  20.874  0.00  0.00    +0.000 HD
ENDBRANCH  18  27
ENDBRANCH  17  20
ENDBRANCH   1  17
TORSDOF 3
ENDMDL
