MODEL 1
REMARK VINA RESULT:      -9.2      0.000      0.000
REMARK  Name = 
REMARK  7 active torsions:
REMARK  status: ('A' for Active; 'I' for Inactive)
REMARK    1  A    between atoms: C_1  and  C_2
REMARK    2  A    between atoms: C_2  and  C_3
REMARK    3  A    between atoms: C_2  and  N_4
REMARK    4  A    between atoms: N_4  and  C_5
REMARK    5  A    between atoms: C_5  and  C_6
REMARK    6  A    between atoms: C_9  and  C_10
REMARK    7  A    between atoms: C_17  and  C_19
REMARK                            x       y       z     vdW  Elec       q    Type
REMARK                         _______ _______ _______ _____ _____    ______ ____
ROOT
ATOM      1  N   UNL     1       4.062   4.355  19.359  0.00  0.00    +0.000 N 
ATOM      2  C   UNL     1       2.716   4.734  19.497  0.00  0.00    +0.000 C 
ATOM      3  O   UNL     1       1.838   3.931  19.812  0.00  0.00    +0.000 OA
ENDROOT
BRANCH   2   4
ATOM      4  C   UNL     1       2.263   6.158  19.299  0.00  0.00    +0.000 A 
ATOM      5  C   UNL     1       2.207   6.730  18.036  0.00  0.00    +0.000 A 
ATOM      6  C   UNL     1       2.151   8.099  17.894  0.00  0.00    +0.000 A 
ATOM      7  C   UNL     1       1.793   8.887  18.990  0.00  0.00    +0.000 A 
ATOM      8  C   UNL     1       1.687  10.263  18.870  0.00  0.00    +0.000 A 
ATOM      9  C   UNL     1       0.677  10.915  19.537  0.00  0.00    +0.000 A 
ATOM     10  C   UNL     1       0.116  10.286  20.656  0.00  0.00    +0.000 A 
ATOM     11  C   UNL     1       0.590   9.040  21.054  0.00  0.00    +0.000 A 
ATOM     12  C   UNL     1       1.392   8.264  20.193  0.00  0.00    +0.000 A 
ATOM     13  C   UNL     1       1.795   6.923  20.390  0.00  0.00    +0.000 A 
ENDBRANCH   2   4
BRANCH   1  15
ATOM     14  C   UNL     1       4.072   2.232  20.799  0.00  0.00    +0.000 C 
ATOM     15  C   UNL     1       4.327   2.894  19.431  0.00  0.00    +0.000 C 
ATOM     16  C   UNL     1       3.542   2.148  18.346  0.00  0.00    +0.000 C 
ENDBRANCH   1  15
BRANCH   1  17
ATOM     17  C   UNL     1       5.249   5.217  19.099  0.00  0.00    +0.000 C 
BRANCH  17  18
ATOM     18  C   UNL     1       6.223   4.771  18.042  0.00  0.00    +0.000 A 
ATOM     19  N   UNL     1       7.498   4.619  18.165  0.00  0.00    +0.000 NA
ATOM     20  N   UNL     1       8.001   4.418  16.895  0.00  0.00    +0.000 NA
ATOM     21  C   UNL     1       6.938   4.475  16.069  0.00  0.00    +0.000 A 
ATOM     22  O   UNL     1       5.787   4.691  16.754  0.00  0.00    +0.000 OA
BRANCH  21  23
ATOM     23  C   UNL     1       6.899   4.442  14.634  0.00  0.00    +0.000 A 
ATOM     24  C   UNL     1       6.041   3.559  13.952  0.00  0.00    +0.000 A 
ATOM     25  C   UNL     1       6.037   3.489  12.559  0.00  0.00    +0.000 A 
ATOM     26  C   UNL     1       6.886   4.307  11.824  0.00  0.00    +0.000 A 
ATOM     27  C   UNL     1       7.736   5.205  12.469  0.00  0.00    +0.000 A 
ATOM     28  C   UNL     1       7.742   5.270  13.868  0.00  0.00    +0.000 A 
ENDBRANCH  21  23
ENDBRANCH  17  18
ENDBRANCH   1  17
TORSDOF 5
ENDMDL
MODEL 2
REMARK VINA RESULT:      -9.0      1.215      2.104
REMARK  Name = 
REMARK  7 active torsions:
REMARK  status: ('A' for Active; 'I' for Inactive)
REMARK    1  A    between atoms: C_1  and  C_2
REMARK    2  A    between atoms: C_2  and  C_3
REMARK    3  A    between atoms: C_2  and  N_4
REMARK    4  A    between atoms: N_4  and  C_5
REMARK    5  A    between atoms: C_5  and  C_6
REMARK    6  A    between atoms: C_9  and  C_10
REMARK    7  A    between atoms: C_17  and  C_19
REMARK                            x       y       z     vdW  Elec       q    Type
REMARK                         _______ _______ _______ _____ _____    ______ ____
ROOT
ATOM      1  N   UNL     1       3.424   4.302  19.293  0.00  0.00    +0.000 N 
ATOM      2  C   UNL     1       2.156   4.870  19.505  0.00  0.00    +0.000 C 
ATOM      3  O   UNL     1       1.141   4.183  19.622  0.00  0.00    +0.000 OA
ENDROOT
BRANCH   2   4
ATOM      4  C   UNL     1       1.960   6.358  19.635  0.00  0.00    +0.000 A 
ATOM      5  C   UNL     1       1.832   6.963  20.878  0.00  0.00    +0.000 A 
ATOM      6  C   UNL     1       1.300   8.230  20.983  0.00  0.00    +0.000 A 
ATOM      7  C   UNL     1       1.221   9.036  19.846  0.00  0.00    +0.000 A 
ATOM      8  C   UNL     1       0.729  10.330  19.926  0.00  0.00    +0.000 A 
ATOM      9  C   UNL     1       1.320  11.316  19.173  0.00  0.00    +0.000 A 
ATOM     10  C   UNL     1       2.036  10.931  18.032  0.00  0.00    +0.000 A 
ATOM     11  C   UNL     1       2.125   9.583  17.698  0.00  0.00    +0.000 A 
ATOM     12  C   UNL     1       1.785   8.585  18.632  0.00  0.00    +0.000 A 
ATOM     13  C   UNL     1       1.991   7.192  18.497  0.00  0.00    +0.000 A 
ENDBRANCH   2   4
BRANCH   1  15
ATOM     14  C   UNL     1       3.447   2.424  17.545  0.00  0.00    +0.000 C 
ATOM     15  C   UNL     1       3.435   2.838  19.030  0.00  0.00    +0.000 C 
ATOM     16  C   UNL     1       4.605   2.166  19.759  0.00  0.00    +0.000 C 
ENDBRANCH   1  15
BRANCH   1  17
ATOM     17  C   UNL     1       4.750   4.978  19.244  0.00  0.00    +0.000 C 
BRANCH  17  18
ATOM     18  C   UNL     1       5.199   5.552  17.928  0.00  0.00    +0.000 A 
ATOM     19  N   UNL     1       5.017   6.752  17.492  0.00  0.00    +0.000 NA
ATOM     20  N   UNL     1       5.396   6.758  16.165  0.00  0.00    +0.000 NA
ATOM     21  C   UNL     1       5.790   5.498  15.893  0.00  0.00    +0.000 A 
ATOM     22  O   UNL     1       5.688   4.699  16.985  0.00  0.00    +0.000 OA
BRANCH  21  23
ATOM     23  C   UNL     1       6.176   4.918  14.638  0.00  0.00    +0.000 A 
ATOM     24  C   UNL     1       7.356   5.321  13.985  0.00  0.00    +0.000 A 
ATOM     25  C   UNL     1       7.708   4.796  12.742  0.00  0.00    +0.000 A 
ATOM     26  C   UNL     1       6.890   3.853  12.133  0.00  0.00    +0.000 A 
ATOM     27  C   UNL     1       5.722   3.421  12.761  0.00  0.00    +0.000 A 
ATOM     28  C   UNL     1       5.368   3.953  14.007  0.00  0.00    +0.000 A 
ENDBRANCH  21  23
ENDBRANCH  17  18
ENDBRANCH   1  17
TORSDOF 5
ENDMDL
MODEL 3
REMARK VINA RESULT:      -8.8      0.698      1.137
REMARK  Name = 
REMARK  7 active torsions:
REMARK  status: ('A' for Active; 'I' for Inactive)
REMARK    1  A    between atoms: C_1  and  C_2
REMARK    2  A    between atoms: C_2  and  C_3
REMARK    3  A    between atoms: C_2  and  N_4
REMARK    4  A    between atoms: N_4  and  C_5
REMARK    5  A    between atoms: C_5  and  C_6
REMARK    6  A    between atoms: C_9  and  C_10
REMARK    7  A    between atoms: C_17  and  C_19
REMARK                            x       y       z     vdW  Elec       q    Type
REMARK                         _______ _______ _______ _____ _____    ______ ____
ROOT
ATOM      1  N   UNL     1       4.224   4.438  19.151  0.00  0.00    +0.000 N 
ATOM      2  C   UNL     1       2.850   4.733  19.113  0.00  0.00    +0.000 C 
ATOM      3  O   UNL     1       1.990   3.853  19.123  0.00  0.00    +0.000 OA
ENDROOT
BRANCH   2   4
ATOM      4  C   UNL     1       2.338   6.151  19.091  0.00  0.00    +0.000 A 
ATOM      5  C   UNL     1       2.176   6.841  17.897  0.00  0.00    +0.000 A 
ATOM      6  C   UNL     1       2.065   8.215  17.899  0.00  0.00    +0.000 A 
ATOM      7  C   UNL     1       1.759   8.876  19.091  0.00  0.00    +0.000 A 
ATOM      8  C   UNL     1       1.599  10.253  19.117  0.00  0.00    +0.000 A 
ATOM      9  C   UNL     1       0.617  10.795  19.912  0.00  0.00    +0.000 A 
ATOM     10  C   UNL     1       0.156  10.036  20.996  0.00  0.00    +0.000 A 
ATOM     11  C   UNL     1       0.698   8.777  21.234  0.00  0.00    +0.000 A 
ATOM     12  C   UNL     1       1.463   8.123  20.248  0.00  0.00    +0.000 A 
ATOM     13  C   UNL     1       1.923   6.785  20.281  0.00  0.00    +0.000 A 
ENDBRANCH   2   4
BRANCH   1  15
ATOM     14  C   UNL     1       4.437   2.149  20.289  0.00  0.00    +0.000 C 
ATOM     15  C   UNL     1       4.574   3.000  19.012  0.00  0.00    +0.000 C 
ATOM     16  C   UNL     1       3.771   2.355  17.876  0.00  0.00    +0.000 C 
ENDBRANCH   1  15
BRANCH   1  17
ATOM     17  C   UNL     1       5.374   5.378  19.259  0.00  0.00    +0.000 C 
BRANCH  17  18
ATOM     18  C   UNL     1       6.240   5.572  18.044  0.00  0.00    +0.000 A 
ATOM     19  N   UNL     1       7.063   6.538  17.813  0.00  0.00    +0.000 NA
ATOM     20  N   UNL     1       7.461   6.418  16.497  0.00  0.00    +0.000 NA
ATOM     21  C   UNL     1       6.809   5.342  16.016  0.00  0.00    +0.000 A 
ATOM     22  O   UNL     1       6.028   4.769  16.965  0.00  0.00    +0.000 OA
BRANCH  21  23
ATOM     23  C   UNL     1       6.766   4.830  14.675  0.00  0.00    +0.000 A 
ATOM     24  C   UNL     1       7.673   5.281  13.697  0.00  0.00    +0.000 A 
ATOM     25  C   UNL     1       7.602   4.823  12.381  0.00  0.00    +0.000 A 
ATOM     26  C   UNL     1       6.628   3.900  12.022  0.00  0.00    +0.000 A 
ATOM     27  C   UNL     1       5.724   3.422  12.971  0.00  0.00    +0.000 A 
ATOM     28  C   UNL     1       5.794   3.886  14.290  0.00  0.00    +0.000 A 
ENDBRANCH  21  23
ENDBRANCH  17  18
ENDBRANCH   1  17
TORSDOF 5
ENDMDL
MODEL 4
REMARK VINA RESULT:      -8.6      1.042      1.042
REMARK  Name = 
REMARK  7 active torsions:
REMARK  status: ('A' for Active; 'I' for Inactive)
REMARK    1  A    between atoms: C_1  and  C_2
REMARK    2  A    between atoms: C_2  and  C_3
REMARK    3  A    between atoms: C_2  and  N_4
REMARK    4  A    between atoms: N_4  and  C_5
REMARK    5  A    between atoms: C_5  and  C_6
REMARK    6  A    between atoms: C_9  and  C_10
REMARK    7  A    between atoms: C_17  and  C_19
REMARK                            x       y       z     vdW  Elec       q    Type
REMARK                         _______ _______ _______ _____ _____    ______ ____
ROOT
ATOM      1  N   UNL     1       4.145   4.367  19.222  0.00  0.00    +0.000 N 
ATOM      2  C   UNL     1       2.784   4.696  19.345  0.00  0.00    +0.000 C 
ATOM      3  O   UNL     1       1.921   3.845  19.564  0.00  0.00    +0.000 OA
ENDROOT
BRANCH   2   4
ATOM      4  C   UNL     1       2.294   6.118  19.251  0.00  0.00    +0.000 A 
ATOM      5  C   UNL     1       2.094   6.733  18.022  0.00  0.00    +0.000 A 
ATOM      6  C   UNL     1       2.005   8.105  17.938  0.00  0.00    +0.000 A 
ATOM      7  C   UNL     1       1.760   8.849  19.095  0.00  0.00    +0.000 A 
ATOM      8  C   UNL     1       1.624  10.226  19.038  0.00  0.00    +0.000 A 
ATOM      9  C   UNL     1       0.685  10.838  19.834  0.00  0.00    +0.000 A 
ATOM     10  C   UNL     1       0.257  10.160  20.983  0.00  0.00    +0.000 A 
ATOM     11  C   UNL     1       0.787   8.909  21.281  0.00  0.00    +0.000 A 
ATOM     12  C   UNL     1       1.500   8.177  20.311  0.00  0.00    +0.000 A 
ATOM     13  C   UNL     1       1.939   6.836  20.412  0.00  0.00    +0.000 A 
ENDBRANCH   2   4
BRANCH   1  15
ATOM     14  C   UNL     1       4.251   2.148  20.505  0.00  0.00    +0.000 C 
ATOM     15  C   UNL     1       4.452   2.913  19.182  0.00  0.00    +0.000 C 
ATOM     16  C   UNL     1       3.658   2.224  18.066  0.00  0.00    +0.000 C 
ENDBRANCH   1  15
BRANCH   1  17
ATOM     17  C   UNL     1       5.313   5.280  19.073  0.00  0.00    +0.000 C 
BRANCH  17  18
ATOM     18  C   UNL     1       5.644   5.778  17.693  0.00  0.00    +0.000 A 
ATOM     19  N   UNL     1       5.445   6.960  17.216  0.00  0.00    +0.000 NA
ATOM     20  N   UNL     1       5.695   6.892  15.861  0.00  0.00    +0.000 NA
ATOM     21  C   UNL     1       6.035   5.612  15.617  0.00  0.00    +0.000 A 
ATOM     22  O   UNL     1       6.023   4.869  16.751  0.00  0.00    +0.000 OA
BRANCH  21  23
ATOM     23  C   UNL     1       6.288   4.962  14.361  0.00  0.00    +0.000 A 
ATOM     24  C   UNL     1       5.411   3.978  13.865  0.00  0.00    +0.000 A 
ATOM     25  C   UNL     1       5.680   3.309  12.671  0.00  0.00    +0.000 A 
ATOM     26  C   UNL     1       6.826   3.618  11.949  0.00  0.00    +0.000 A 
ATOM     27  C   UNL     1       7.706   4.599  12.405  0.00  0.00    +0.000 A 
ATOM     28  C   UNL     1       7.437   5.265  13.606  0.00  0.00    +0.000 A 
ENDBRANCH  21  23
ENDBRANCH  17  18
ENDBRANCH   1  17
TORSDOF 5
ENDMDL
MODEL 5
REMARK VINA RESULT:      -8.5      3.726      5.114
REMARK  Name = 
REMARK  7 active torsions:
REMARK  status: ('A' for Active; 'I' for Inactive)
REMARK    1  A    between atoms: C_1  and  C_2
REMARK    2  A    between atoms: C_2  and  C_3
REMARK    3  A    between atoms: C_2  and  N_4
REMARK    4  A    between atoms: N_4  and  C_5
REMARK    5  A    between atoms: C_5  and  C_6
REMARK    6  A    between atoms: C_9  and  C_10
REMARK    7  A    between atoms: C_17  and  C_19
REMARK                            x       y       z     vdW  Elec       q    Type
REMARK                         _______ _______ _______ _____ _____    ______ ____
ROOT
ATOM      1  N   UNL     1       4.866   5.484  16.554  0.00  0.00    +0.000 N 
ATOM      2  C   UNL     1       3.828   5.242  17.471  0.00  0.00    +0.000 C 
ATOM      3  O   UNL     1       3.427   4.106  17.722  0.00  0.00    +0.000 OA
ENDROOT
BRANCH   2   4
ATOM      4  C   UNL     1       3.161   6.358  18.234  0.00  0.00    +0.000 A 
ATOM      5  C   UNL     1       3.053   6.323  19.617  0.00  0.00    +0.000 A 
ATOM      6  C   UNL     1       2.147   7.134  20.264  0.00  0.00    +0.000 A 
ATOM      7  C   UNL     1       1.600   8.227  19.587  0.00  0.00    +0.000 A 
ATOM      8  C   UNL     1       0.718   9.086  20.223  0.00  0.00    +0.000 A 
ATOM      9  C   UNL     1       0.795  10.434  19.963  0.00  0.00    +0.000 A 
ATOM     10  C   UNL     1       1.389  10.838  18.760  0.00  0.00    +0.000 A 
ATOM     11  C   UNL     1       1.874   9.878  17.876  0.00  0.00    +0.000 A 
ATOM     12  C   UNL     1       2.064   8.546  18.291  0.00  0.00    +0.000 A 
ATOM     13  C   UNL     1       2.706   7.515  17.566  0.00  0.00    +0.000 A 
ENDBRANCH   2   4
BRANCH   1  15
ATOM     14  C   UNL     1       5.392   4.504  14.242  0.00  0.00    +0.000 C 
ATOM     15  C   UNL     1       5.315   4.304  15.768  0.00  0.00    +0.000 C 
ATOM     16  C   UNL     1       6.663   3.790  16.287  0.00  0.00    +0.000 C 
ENDBRANCH   1  15
BRANCH   1  17
ATOM     17  C   UNL     1       5.537   6.773  16.227  0.00  0.00    +0.000 C 
BRANCH  17  18
ATOM     18  C   UNL     1       6.721   7.181  17.061  0.00  0.00    +0.000 A 
ATOM     19  N   UNL     1       7.316   6.488  17.970  0.00  0.00    +0.000 NA
ATOM     20  N   UNL     1       8.191   7.340  18.614  0.00  0.00    +0.000 NA
ATOM     21  C   UNL     1       8.041   8.537  18.014  0.00  0.00    +0.000 A 
ATOM     22  O   UNL     1       7.122   8.483  17.018  0.00  0.00    +0.000 OA
BRANCH  21  23
ATOM     23  C   UNL     1       8.623   9.805  18.357  0.00  0.00    +0.000 A 
ATOM     24  C   UNL     1       9.436   9.944  19.497  0.00  0.00    +0.000 A 
ATOM     25  C   UNL     1       9.962  11.184  19.861  0.00  0.00    +0.000 A 
ATOM     26  C   UNL     1       9.690  12.304  19.086  0.00  0.00    +0.000 A 
ATOM     27  C   UNL     1       8.900  12.196  17.941  0.00  0.00    +0.000 A 
ATOM     28  C   UNL     1       8.369  10.952  17.581  0.00  0.00    +0.000 A 
ENDBRANCH  21  23
ENDBRANCH  17  18
ENDBRANCH   1  17
TORSDOF 5
ENDMDL
MODEL 6
REMARK VINA RESULT:      -8.5      3.694      5.484
REMARK  Name = 
REMARK  7 active torsions:
REMARK  status: ('A' for Active; 'I' for Inactive)
REMARK    1  A    between atoms: C_1  and  C_2
REMARK    2  A    between atoms: C_2  and  C_3
REMARK    3  A    between atoms: C_2  and  N_4
REMARK    4  A    between atoms: N_4  and  C_5
REMARK    5  A    between atoms: C_5  and  C_6
REMARK    6  A    between atoms: C_9  and  C_10
REMARK    7  A    between atoms: C_17  and  C_19
REMARK                            x       y       z     vdW  Elec       q    Type
REMARK                         _______ _______ _______ _____ _____    ______ ____
ROOT
ATOM      1  N   UNL     1       5.678   5.149  16.063  0.00  0.00    +0.000 N 
ATOM      2  C   UNL     1       4.836   4.465  16.956  0.00  0.00    +0.000 C 
ATOM      3  O   UNL     1       4.712   3.240  16.933  0.00  0.00    +0.000 OA
ENDROOT
BRANCH   2   4
ATOM      4  C   UNL     1       4.052   5.184  18.024  0.00  0.00    +0.000 A 
ATOM      5  C   UNL     1       4.119   4.793  19.355  0.00  0.00    +0.000 A 
ATOM      6  C   UNL     1       3.151   5.198  20.247  0.00  0.00    +0.000 A 
ATOM      7  C   UNL     1       2.318   6.269  19.916  0.00  0.00    +0.000 A 
ATOM      8  C   UNL     1       1.363   6.728  20.809  0.00  0.00    +0.000 A 
ATOM      9  C   UNL     1       1.135   8.081  20.905  0.00  0.00    +0.000 A 
ATOM     10  C   UNL     1       1.487   8.886  19.814  0.00  0.00    +0.000 A 
ATOM     11  C   UNL     1       2.048   8.303  18.682  0.00  0.00    +0.000 A 
ATOM     12  C   UNL     1       2.551   6.988  18.722  0.00  0.00    +0.000 A 
ATOM     13  C   UNL     1       3.297   6.334  17.713  0.00  0.00    +0.000 A 
ENDBRANCH   2   4
BRANCH   1  15
ATOM     14  C   UNL     1       5.285   3.910  13.851  0.00  0.00    +0.000 C 
ATOM     15  C   UNL     1       6.260   4.324  14.971  0.00  0.00    +0.000 C 
ATOM     16  C   UNL     1       7.479   5.022  14.357  0.00  0.00    +0.000 C 
ENDBRANCH   1  15
BRANCH   1  17
ATOM     17  C   UNL     1       6.022   6.598  16.034  0.00  0.00    +0.000 C 
BRANCH  17  18
ATOM     18  C   UNL     1       7.071   7.092  16.993  0.00  0.00    +0.000 A 
ATOM     19  N   UNL     1       7.590   6.453  17.985  0.00  0.00    +0.000 NA
ATOM     20  N   UNL     1       8.331   7.368  18.706  0.00  0.00    +0.000 NA
ATOM     21  C   UNL     1       8.186   8.542  18.062  0.00  0.00    +0.000 A 
ATOM     22  O   UNL     1       7.400   8.414  16.965  0.00  0.00    +0.000 OA
BRANCH  21  23
ATOM     23  C   UNL     1       8.649   9.848  18.439  0.00  0.00    +0.000 A 
ATOM     24  C   UNL     1       8.349  10.978  17.654  0.00  0.00    +0.000 A 
ATOM     25  C   UNL     1       8.840  12.240  17.989  0.00  0.00    +0.000 A 
ATOM     26  C   UNL     1       9.633  12.395  19.119  0.00  0.00    +0.000 A 
ATOM     27  C   UNL     1       9.935  11.299  19.926  0.00  0.00    +0.000 A 
ATOM     28  C   UNL     1       9.446  10.032  19.585  0.00  0.00    +0.000 A 
ENDBRANCH  21  23
ENDBRANCH  17  18
ENDBRANCH   1  17
TORSDOF 5
ENDMDL
MODEL 7
REMARK VINA RESULT:      -8.5      1.868      7.754
REMARK  Name = 
REMARK  7 active torsions:
REMARK  status: ('A' for Active; 'I' for Inactive)
REMARK    1  A    between atoms: C_1  and  C_2
REMARK    2  A    between atoms: C_2  and  C_3
REMARK    3  A    between atoms: C_2  and  N_4
REMARK    4  A    between atoms: N_4  and  C_5
REMARK    5  A    between atoms: C_5  and  C_6
REMARK    6  A    between atoms: C_9  and  C_10
REMARK    7  A    between atoms: C_17  and  C_19
REMARK                            x       y       z     vdW  Elec       q    Type
REMARK                         _______ _______ _______ _____ _____    ______ ____
ROOT
ATOM      1  N   UNL     1       3.467   4.257  18.929  0.00  0.00    +0.000 N 
ATOM      2  C   UNL     1       3.846   3.419  17.866  0.00  0.00    +0.000 C 
ATOM      3  O   UNL     1       3.314   2.326  17.672  0.00  0.00    +0.000 OA
ENDROOT
BRANCH   2   4
ATOM      4  C   UNL     1       4.906   3.818  16.873  0.00  0.00    +0.000 A 
ATOM      5  C   UNL     1       6.169   4.221  17.287  0.00  0.00    +0.000 A 
ATOM      6  C   UNL     1       6.992   4.917  16.430  0.00  0.00    +0.000 A 
ATOM      7  C   UNL     1       6.719   4.911  15.061  0.00  0.00    +0.000 A 
ATOM      8  C   UNL     1       7.551   5.567  14.168  0.00  0.00    +0.000 A 
ATOM      9  C   UNL     1       7.807   4.989  12.946  0.00  0.00    +0.000 A 
ATOM     10  C   UNL     1       6.885   4.055  12.455  0.00  0.00    +0.000 A 
ATOM     11  C   UNL     1       5.755   3.746  13.205  0.00  0.00    +0.000 A 
ATOM     12  C   UNL     1       5.670   4.105  14.564  0.00  0.00    +0.000 A 
ATOM     13  C   UNL     1       4.672   3.708  15.486  0.00  0.00    +0.000 A 
ENDBRANCH   2   4
BRANCH   1  15
ATOM     14  C   UNL     1       2.561   4.264  21.329  0.00  0.00    +0.000 C 
ATOM     15  C   UNL     1       2.523   3.661  19.911  0.00  0.00    +0.000 C 
ATOM     16  C   UNL     1       1.088   3.701  19.375  0.00  0.00    +0.000 C 
ENDBRANCH   1  15
BRANCH   1  17
ATOM     17  C   UNL     1       3.926   5.642  19.231  0.00  0.00    +0.000 C 
BRANCH  17  18
ATOM     18  C   UNL     1       3.179   6.784  18.600  0.00  0.00    +0.000 A 
ATOM     19  N   UNL     1       3.478   7.414  17.515  0.00  0.00    +0.000 NA
ATOM     20  N   UNL     1       2.648   8.515  17.449  0.00  0.00    +0.000 NA
ATOM     21  C   UNL     1       1.882   8.460  18.556  0.00  0.00    +0.000 A 
ATOM     22  O   UNL     1       2.180   7.375  19.313  0.00  0.00    +0.000 OA
BRANCH  21  23
ATOM     23  C   UNL     1       0.926   9.412  19.048  0.00  0.00    +0.000 A 
ATOM     24  C   UNL     1       0.844   9.714  20.420  0.00  0.00    +0.000 A 
ATOM     25  C   UNL     1      -0.117  10.600  20.908  0.00  0.00    +0.000 A 
ATOM     26  C   UNL     1      -1.007  11.205  20.030  0.00  0.00    +0.000 A 
ATOM     27  C   UNL     1      -0.941  10.940  18.662  0.00  0.00    +0.000 A 
ATOM     28  C   UNL     1       0.020  10.046  18.175  0.00  0.00    +0.000 A 
ENDBRANCH  21  23
ENDBRANCH  17  18
ENDBRANCH   1  17
TORSDOF 5
ENDMDL
MODEL 8
REMARK VINA RESULT:      -8.5      2.140      7.904
REMARK  Name = 
REMARK  7 active torsions:
REMARK  status: ('A' for Active; 'I' for Inactive)
REMARK    1  A    between atoms: C_1  and  C_2
REMARK    2  A    between atoms: C_2  and  C_3
REMARK    3  A    between atoms: C_2  and  N_4
REMARK    4  A    between atoms: N_4  and  C_5
REMARK    5  A    between atoms: C_5  and  C_6
REMARK    6  A    between atoms: C_9  and  C_10
REMARK    7  A    between atoms: C_17  and  C_19
REMARK                            x       y       z     vdW  Elec       q    Type
REMARK                         _______ _______ _______ _____ _____    ______ ____
ROOT
ATOM      1  N   UNL     1       2.807   3.630  19.516  0.00  0.00    +0.000 N 
ATOM      2  C   UNL     1       3.218   3.001  18.328  0.00  0.00    +0.000 C 
ATOM      3  O   UNL     1       2.651   2.003  17.885  0.00  0.00    +0.000 OA
ENDROOT
BRANCH   2   4
ATOM      4  C   UNL     1       4.361   3.529  17.500  0.00  0.00    +0.000 A 
ATOM      5  C   UNL     1       5.583   3.849  18.076  0.00  0.00    +0.000 A 
ATOM      6  C   UNL     1       6.478   4.654  17.405  0.00  0.00    +0.000 A 
ATOM      7  C   UNL     1       6.325   4.854  16.032  0.00  0.00    +0.000 A 
ATOM      8  C   UNL     1       7.232   5.623  15.321  0.00  0.00    +0.000 A 
ATOM      9  C   UNL     1       7.593   5.230  14.054  0.00  0.00    +0.000 A 
ATOM     10  C   UNL     1       6.716   4.391  13.353  0.00  0.00    +0.000 A 
ATOM     11  C   UNL     1       5.525   3.989  13.948  0.00  0.00    +0.000 A 
ATOM     12  C   UNL     1       5.322   4.144  15.333  0.00  0.00    +0.000 A 
ATOM     13  C   UNL     1       4.248   3.628  16.097  0.00  0.00    +0.000 A 
ENDBRANCH   2   4
BRANCH   1  15
ATOM     14  C   UNL     1       1.941   2.944  21.832  0.00  0.00    +0.000 C 
ATOM     15  C   UNL     1       1.772   2.905  20.300  0.00  0.00    +0.000 C 
ATOM     16  C   UNL     1       0.368   3.395  19.925  0.00  0.00    +0.000 C 
ENDBRANCH   1  15
BRANCH   1  17
ATOM     17  C   UNL     1       3.308   4.896  20.120  0.00  0.00    +0.000 C 
BRANCH  17  18
ATOM     18  C   UNL     1       2.625   6.179  19.732  0.00  0.00    +0.000 A 
ATOM     19  N   UNL     1       2.830   6.888  18.675  0.00  0.00    +0.000 NA
ATOM     20  N   UNL     1       2.148   8.076  18.852  0.00  0.00    +0.000 NA
ATOM     21  C   UNL     1       1.565   7.984  20.063  0.00  0.00    +0.000 A 
ATOM     22  O   UNL     1       1.834   6.794  20.656  0.00  0.00    +0.000 OA
BRANCH  21  23
ATOM     23  C   UNL     1       0.829   8.977  20.794  0.00  0.00    +0.000 A 
ATOM     24  C   UNL     1       0.640   8.860  22.184  0.00  0.00    +0.000 A 
ATOM     25  C   UNL     1      -0.117   9.795  22.890  0.00  0.00    +0.000 A 
ATOM     26  C   UNL     1      -0.692  10.867  22.219  0.00  0.00    +0.000 A 
ATOM     27  C   UNL     1      -0.510  11.020  20.845  0.00  0.00    +0.000 A 
ATOM     28  C   UNL     1       0.246  10.077  20.137  0.00  0.00    +0.000 A 
ENDBRANCH  21  23
ENDBRANCH  17  18
ENDBRANCH   1  17
TORSDOF 5
ENDMDL
MODEL 9
REMARK VINA RESULT:      -8.5      1.862      8.218
REMARK  Name = 
REMARK  7 active torsions:
REMARK  status: ('A' for Active; 'I' for Inactive)
REMARK    1  A    between atoms: C_1  and  C_2
REMARK    2  A    between atoms: C_2  and  C_3
REMARK    3  A    between atoms: C_2  and  N_4
REMARK    4  A    between atoms: N_4  and  C_5
REMARK    5  A    between atoms: C_5  and  C_6
REMARK    6  A    between atoms: C_9  and  C_10
REMARK    7  A    between atoms: C_17  and  C_19
REMARK                            x       y       z     vdW  Elec       q    Type
REMARK                         _______ _______ _______ _____ _____    ______ ____
ROOT
ATOM      1  N   UNL     1       3.577   4.536  18.733  0.00  0.00    +0.000 N 
ATOM      2  C   UNL     1       3.969   3.601  17.759  0.00  0.00    +0.000 C 
ATOM      3  O   UNL     1       3.470   2.477  17.692  0.00  0.00    +0.000 OA
ENDROOT
BRANCH   2   4
ATOM      4  C   UNL     1       5.002   3.925  16.711  0.00  0.00    +0.000 A 
ATOM      5  C   UNL     1       6.296   4.288  17.061  0.00  0.00    +0.000 A 
ATOM      6  C   UNL     1       7.110   4.922  16.149  0.00  0.00    +0.000 A 
ATOM      7  C   UNL     1       6.780   4.883  14.792  0.00  0.00    +0.000 A 
ATOM      8  C   UNL     1       7.600   5.476  13.845  0.00  0.00    +0.000 A 
ATOM      9  C   UNL     1       7.782   4.850  12.635  0.00  0.00    +0.000 A 
ATOM     10  C   UNL     1       6.804   3.939  12.213  0.00  0.00    +0.000 A 
ATOM     11  C   UNL     1       5.695   3.700  13.017  0.00  0.00    +0.000 A 
ATOM     12  C   UNL     1       5.680   4.106  14.366  0.00  0.00    +0.000 A 
ATOM     13  C   UNL     1       4.707   3.779  15.339  0.00  0.00    +0.000 A 
ENDBRANCH   2   4
BRANCH   1  15
ATOM     14  C   UNL     1       1.225   3.708  19.339  0.00  0.00    +0.000 C 
ATOM     15  C   UNL     1       2.667   4.019  19.789  0.00  0.00    +0.000 C 
ATOM     16  C   UNL     1       3.270   2.783  20.466  0.00  0.00    +0.000 C 
ENDBRANCH   1  15
BRANCH   1  17
ATOM     17  C   UNL     1       3.995   5.958  18.879  0.00  0.00    +0.000 C 
BRANCH  17  18
ATOM     18  C   UNL     1       2.926   7.015  18.826  0.00  0.00    +0.000 A 
ATOM     19  N   UNL     1       2.627   7.781  17.833  0.00  0.00    +0.000 NA
ATOM     20  N   UNL     1       1.747   8.731  18.311  0.00  0.00    +0.000 NA
ATOM     21  C   UNL     1       1.583   8.451  19.618  0.00  0.00    +0.000 A 
ATOM     22  O   UNL     1       2.307   7.365  19.989  0.00  0.00    +0.000 OA
BRANCH  21  23
ATOM     23  C   UNL     1       0.863   9.184  20.622  0.00  0.00    +0.000 A 
ATOM     24  C   UNL     1       0.908   8.796  21.974  0.00  0.00    +0.000 A 
ATOM     25  C   UNL     1       0.170   9.475  22.944  0.00  0.00    +0.000 A 
ATOM     26  C   UNL     1      -0.620  10.558  22.579  0.00  0.00    +0.000 A 
ATOM     27  C   UNL     1      -0.673  10.976  21.249  0.00  0.00    +0.000 A 
ATOM     28  C   UNL     1       0.064  10.291  20.277  0.00  0.00    +0.000 A 
ENDBRANCH  21  23
ENDBRANCH  17  18
ENDBRANCH   1  17
TORSDOF 5
ENDMDL
