MODEL 1
REMARK VINA RESULT:      -9.1      0.000      0.000
REMARK  Name = 
REMARK  2 active torsions:
REMARK  status: ('A' for Active; 'I' for Inactive)
REMARK    1  A    between atoms: C_2  and  C_3
REMARK    2  A    between atoms: C_16  and  C_17
REMARK                            x       y       z     vdW  Elec       q    Type
REMARK                         _______ _______ _______ _____ _____    ______ ____
ROOT
ATOM      1  O   UNL     1       4.163   3.343  19.488  0.00  0.00    +0.000 OA
ATOM      2  C   UNL     1       4.017   4.300  18.730  0.00  0.00    +0.000 C 
ATOM      3  N   UNL     1       2.983   5.236  18.884  0.00  0.00    +0.000 N 
ATOM      4  C   UNL     1       2.775   6.409  18.035  0.00  0.00    +0.000 C 
ATOM      5  C   UNL     1       2.148   7.543  18.767  0.00  0.00    +0.000 C 
ATOM      6  C   UNL     1       1.719   7.479  20.037  0.00  0.00    +0.000 C 
ATOM      7  C   UNL     1       1.781   6.198  20.824  0.00  0.00    +0.000 C 
ATOM      8  C   UNL     1       1.957   4.989  19.898  0.00  0.00    +0.000 C 
ENDROOT
BRANCH   2   9
ATOM      9  C   UNL     1       5.022   4.465  17.643  0.00  0.00    +0.000 A 
ATOM     10  C   UNL     1       6.256   5.057  17.959  0.00  0.00    +0.000 A 
ATOM     11  C   UNL     1       7.214   5.270  16.962  0.00  0.00    +0.000 A 
ATOM     12  C   UNL     1       6.933   4.916  15.643  0.00  0.00    +0.000 A 
ATOM     13  C   UNL     1       5.724   4.291  15.334  0.00  0.00    +0.000 A 
ATOM     14  C   UNL     1       4.794   4.028  16.336  0.00  0.00    +0.000 A 
ATOM     15  O   UNL     1       5.360   3.927  14.065  0.00  0.00    +0.000 OA
ATOM     16  C   UNL     1       6.489   3.894  13.189  0.00  0.00    +0.000 C 
ATOM     17  C   UNL     1       7.370   5.119  13.374  0.00  0.00    +0.000 C 
ATOM     18  O   UNL     1       7.893   5.193  14.705  0.00  0.00    +0.000 OA
ENDBRANCH   2   9
BRANCH   6  19
ATOM     19  C   UNL     1       1.176   8.598  20.719  0.00  0.00    +0.000 A 
ATOM     20  C   UNL     1       1.334   8.832  22.066  0.00  0.00    +0.000 A 
ATOM     21  N   UNL     1       0.699  10.009  22.356  0.00  0.00    +0.000 N 
ATOM     22  C   UNL     1       0.132  10.540  21.218  0.00  0.00    +0.000 A 
ATOM     23  C   UNL     1      -0.612  11.712  21.043  0.00  0.00    +0.000 A 
ATOM     24  C   UNL     1      -1.061  12.007  19.752  0.00  0.00    +0.000 A 
ATOM     25  C   UNL     1      -0.763  11.172  18.677  0.00  0.00    +0.000 A 
ATOM     26  C   UNL     1      -0.014  10.006  18.868  0.00  0.00    +0.000 A 
ATOM     27  C   UNL     1       0.433   9.676  20.163  0.00  0.00    +0.000 A 
ATOM     28  H   UNL     1       0.652  10.434  23.271  0.00  0.00    +0.000 HD
ENDBRANCH   6  19
TORSDOF 2
ENDMDL
MODEL 2
REMARK VINA RESULT:      -9.1      1.217      1.838
REMARK  Name = 
REMARK  2 active torsions:
REMARK  status: ('A' for Active; 'I' for Inactive)
REMARK    1  A    between atoms: C_2  and  C_3
REMARK    2  A    between atoms: C_16  and  C_17
REMARK                            x       y       z     vdW  Elec       q    Type
REMARK                         _______ _______ _______ _____ _____    ______ ____
ROOT
ATOM      1  O   UNL     1       4.400   4.784  19.967  0.00  0.00    +0.000 OA
ATOM      2  C   UNL     1       4.135   5.460  18.974  0.00  0.00    +0.000 C 
ATOM      3  N   UNL     1       3.022   6.311  18.914  0.00  0.00    +0.000 N 
ATOM      4  C   UNL     1       2.671   7.160  17.776  0.00  0.00    +0.000 C 
ATOM      5  C   UNL     1       1.963   8.404  18.184  0.00  0.00    +0.000 C 
ATOM      6  C   UNL     1       1.588   8.682  19.443  0.00  0.00    +0.000 C 
ATOM      7  C   UNL     1       1.801   7.700  20.562  0.00  0.00    +0.000 C 
ATOM      8  C   UNL     1       2.062   6.290  20.018  0.00  0.00    +0.000 C 
ENDROOT
BRANCH   2   9
ATOM      9  C   UNL     1       5.081   5.378  17.826  0.00  0.00    +0.000 A 
ATOM     10  C   UNL     1       6.328   6.015  17.942  0.00  0.00    +0.000 A 
ATOM     11  C   UNL     1       7.231   6.000  16.873  0.00  0.00    +0.000 A 
ATOM     12  C   UNL     1       6.881   5.373  15.678  0.00  0.00    +0.000 A 
ATOM     13  C   UNL     1       5.659   4.706  15.575  0.00  0.00    +0.000 A 
ATOM     14  C   UNL     1       4.785   4.672  16.658  0.00  0.00    +0.000 A 
ATOM     15  O   UNL     1       5.229   4.081  14.435  0.00  0.00    +0.000 OA
ATOM     16  C   UNL     1       6.310   3.851  13.528  0.00  0.00    +0.000 C 
ATOM     17  C   UNL     1       7.195   5.080  13.398  0.00  0.00    +0.000 C 
ATOM     18  O   UNL     1       7.788   5.434  14.652  0.00  0.00    +0.000 OA
ENDBRANCH   2   9
BRANCH   6  19
ATOM     19  C   UNL     1       0.963   9.904  19.802  0.00  0.00    +0.000 A 
ATOM     20  C   UNL     1       0.940  11.023  19.002  0.00  0.00    +0.000 A 
ATOM     21  N   UNL     1       0.231  11.988  19.664  0.00  0.00    +0.000 N 
ATOM     22  C   UNL     1      -0.205  11.511  20.881  0.00  0.00    +0.000 A 
ATOM     23  C   UNL     1      -0.949  12.142  21.884  0.00  0.00    +0.000 A 
ATOM     24  C   UNL     1      -1.255  11.398  23.028  0.00  0.00    +0.000 A 
ATOM     25  C   UNL     1      -0.848  10.072  23.155  0.00  0.00    +0.000 A 
ATOM     26  C   UNL     1      -0.109   9.453  22.141  0.00  0.00    +0.000 A 
ATOM     27  C   UNL     1       0.230  10.188  20.988  0.00  0.00    +0.000 A 
ATOM     28  H   UNL     1       0.047  12.918  19.315  0.00  0.00    +0.000 HD
ENDBRANCH   6  19
TORSDOF 2
ENDMDL
MODEL 3
REMARK VINA RESULT:      -8.9      1.155      1.448
REMARK  Name = 
REMARK  2 active torsions:
REMARK  status: ('A' for Active; 'I' for Inactive)
REMARK    1  A    between atoms: C_2  and  C_3
REMARK    2  A    between atoms: C_16  and  C_17
REMARK                            x       y       z     vdW  Elec       q    Type
REMARK                         _______ _______ _______ _____ _____    ______ ____
ROOT
ATOM      1  O   UNL     1       4.306   4.924  20.176  0.00  0.00    +0.000 OA
ATOM      2  C   UNL     1       4.045   5.558  19.154  0.00  0.00    +0.000 C 
ATOM      3  N   UNL     1       2.914   6.380  19.043  0.00  0.00    +0.000 N 
ATOM      4  C   UNL     1       2.566   7.180  17.869  0.00  0.00    +0.000 C 
ATOM      5  C   UNL     1       1.823   8.421  18.218  0.00  0.00    +0.000 C 
ATOM      6  C   UNL     1       1.418   8.735  19.459  0.00  0.00    +0.000 C 
ATOM      7  C   UNL     1       1.632   7.800  20.617  0.00  0.00    +0.000 C 
ATOM      8  C   UNL     1       1.934   6.377  20.129  0.00  0.00    +0.000 C 
ENDROOT
BRANCH   2   9
ATOM      9  C   UNL     1       5.014   5.457  18.027  0.00  0.00    +0.000 A 
ATOM     10  C   UNL     1       6.259   6.094  18.158  0.00  0.00    +0.000 A 
ATOM     11  C   UNL     1       7.184   6.062  17.109  0.00  0.00    +0.000 A 
ATOM     12  C   UNL     1       6.858   5.416  15.917  0.00  0.00    +0.000 A 
ATOM     13  C   UNL     1       5.638   4.748  15.800  0.00  0.00    +0.000 A 
ATOM     14  C   UNL     1       4.741   4.732  16.865  0.00  0.00    +0.000 A 
ATOM     15  O   UNL     1       5.231   4.105  14.661  0.00  0.00    +0.000 OA
ATOM     16  C   UNL     1       6.330   3.860  13.780  0.00  0.00    +0.000 C 
ATOM     17  C   UNL     1       7.219   5.086  13.649  0.00  0.00    +0.000 C 
ATOM     18  O   UNL     1       7.786   5.460  14.910  0.00  0.00    +0.000 OA
ENDBRANCH   2   9
BRANCH   6  19
ATOM     19  C   UNL     1       0.759   9.954  19.763  0.00  0.00    +0.000 A 
ATOM     20  C   UNL     1       1.231  10.882  20.663  0.00  0.00    +0.000 A 
ATOM     21  N   UNL     1       0.352  11.931  20.671  0.00  0.00    +0.000 N 
ATOM     22  C   UNL     1      -0.682  11.696  19.791  0.00  0.00    +0.000 A 
ATOM     23  C   UNL     1      -1.799  12.479  19.481  0.00  0.00    +0.000 A 
ATOM     24  C   UNL     1      -2.694  11.982  18.529  0.00  0.00    +0.000 A 
ATOM     25  C   UNL     1      -2.471  10.758  17.900  0.00  0.00    +0.000 A 
ATOM     26  C   UNL     1      -1.347   9.989  18.218  0.00  0.00    +0.000 A 
ATOM     27  C   UNL     1      -0.441  10.459  19.189  0.00  0.00    +0.000 A 
ATOM     28  H   UNL     1       0.443  12.763  21.237  0.00  0.00    +0.000 HD
ENDBRANCH   6  19
TORSDOF 2
ENDMDL
MODEL 4
REMARK VINA RESULT:      -8.8      1.677      1.903
REMARK  Name = 
REMARK  2 active torsions:
REMARK  status: ('A' for Active; 'I' for Inactive)
REMARK    1  A    between atoms: C_2  and  C_3
REMARK    2  A    between atoms: C_16  and  C_17
REMARK                            x       y       z     vdW  Elec       q    Type
REMARK                         _______ _______ _______ _____ _____    ______ ____
ROOT
ATOM      1  O   UNL     1       4.238   5.038  20.082  0.00  0.00    +0.000 OA
ATOM      2  C   UNL     1       4.005   5.668  19.051  0.00  0.00    +0.000 C 
ATOM      3  N   UNL     1       2.901   6.523  18.922  0.00  0.00    +0.000 N 
ATOM      4  C   UNL     1       2.587   7.320  17.735  0.00  0.00    +0.000 C 
ATOM      5  C   UNL     1       1.880   8.587  18.065  0.00  0.00    +0.000 C 
ATOM      6  C   UNL     1       1.474   8.927  19.299  0.00  0.00    +0.000 C 
ATOM      7  C   UNL     1       1.650   7.998  20.469  0.00  0.00    +0.000 C 
ATOM      8  C   UNL     1       1.912   6.562  19.999  0.00  0.00    +0.000 C 
ENDROOT
BRANCH   2   9
ATOM      9  C   UNL     1       4.980   5.525  17.934  0.00  0.00    +0.000 A 
ATOM     10  C   UNL     1       6.236   6.141  18.061  0.00  0.00    +0.000 A 
ATOM     11  C   UNL     1       7.167   6.070  17.019  0.00  0.00    +0.000 A 
ATOM     12  C   UNL     1       6.837   5.404  15.839  0.00  0.00    +0.000 A 
ATOM     13  C   UNL     1       5.606   4.758  15.726  0.00  0.00    +0.000 A 
ATOM     14  C   UNL     1       4.702   4.781  16.785  0.00  0.00    +0.000 A 
ATOM     15  O   UNL     1       5.195   4.098  14.599  0.00  0.00    +0.000 OA
ATOM     16  C   UNL     1       6.295   3.814  13.732  0.00  0.00    +0.000 C 
ATOM     17  C   UNL     1       7.208   5.020  13.581  0.00  0.00    +0.000 C 
ATOM     18  O   UNL     1       7.774   5.410  14.838  0.00  0.00    +0.000 OA
ENDBRANCH   2   9
BRANCH   6  19
ATOM     19  C   UNL     1       0.851  10.169  19.584  0.00  0.00    +0.000 A 
ATOM     20  C   UNL     1      -0.257  10.310  20.388  0.00  0.00    +0.000 A 
ATOM     21  N   UNL     1      -0.553  11.644  20.451  0.00  0.00    +0.000 N 
ATOM     22  C   UNL     1       0.345  12.370  19.698  0.00  0.00    +0.000 A 
ATOM     23  C   UNL     1       0.423  13.747  19.467  0.00  0.00    +0.000 A 
ATOM     24  C   UNL     1       1.462  14.209  18.654  0.00  0.00    +0.000 A 
ATOM     25  C   UNL     1       2.395  13.330  18.108  0.00  0.00    +0.000 A 
ATOM     26  C   UNL     1       2.306  11.955  18.352  0.00  0.00    +0.000 A 
ATOM     27  C   UNL     1       1.256  11.463  19.152  0.00  0.00    +0.000 A 
ATOM     28  H   UNL     1      -1.318  12.046  20.974  0.00  0.00    +0.000 HD
ENDBRANCH   6  19
TORSDOF 2
ENDMDL
MODEL 5
REMARK VINA RESULT:      -8.0      3.305      4.772
REMARK  Name = 
REMARK  2 active torsions:
REMARK  status: ('A' for Active; 'I' for Inactive)
REMARK    1  A    between atoms: C_2  and  C_3
REMARK    2  A    between atoms: C_16  and  C_17
REMARK                            x       y       z     vdW  Elec       q    Type
REMARK                         _______ _______ _______ _____ _____    ______ ____
ROOT
ATOM      1  O   UNL     1       3.264   8.192  16.782  0.00  0.00    +0.000 OA
ATOM      2  C   UNL     1       2.751   7.912  17.865  0.00  0.00    +0.000 C 
ATOM      3  N   UNL     1       2.033   8.847  18.625  0.00  0.00    +0.000 N 
ATOM      4  C   UNL     1       1.376   8.568  19.902  0.00  0.00    +0.000 C 
ATOM      5  C   UNL     1       0.170   9.411  20.124  0.00  0.00    +0.000 C 
ATOM      6  C   UNL     1      -0.226  10.395  19.301  0.00  0.00    +0.000 C 
ATOM      7  C   UNL     1       0.577  10.778  18.089  0.00  0.00    +0.000 C 
ATOM      8  C   UNL     1       2.011  10.242  18.185  0.00  0.00    +0.000 C 
ENDROOT
BRANCH   2   9
ATOM      9  C   UNL     1       2.880   6.504  18.333  0.00  0.00    +0.000 A 
ATOM     10  C   UNL     1       3.978   6.168  19.143  0.00  0.00    +0.000 A 
ATOM     11  C   UNL     1       4.163   4.849  19.571  0.00  0.00    +0.000 A 
ATOM     12  C   UNL     1       3.268   3.858  19.170  0.00  0.00    +0.000 A 
ATOM     13  C   UNL     1       2.156   4.196  18.399  0.00  0.00    +0.000 A 
ATOM     14  C   UNL     1       1.940   5.519  18.020  0.00  0.00    +0.000 A 
ATOM     15  O   UNL     1       1.239   3.285  17.947  0.00  0.00    +0.000 OA
ATOM     16  C   UNL     1       1.328   2.055  18.670  0.00  0.00    +0.000 C 
ATOM     17  C   UNL     1       2.773   1.615  18.840  0.00  0.00    +0.000 C 
ATOM     18  O   UNL     1       3.530   2.577  19.583  0.00  0.00    +0.000 OA
ENDBRANCH   2   9
BRANCH   6  19
ATOM     19  C   UNL     1      -1.413  11.141  19.517  0.00  0.00    +0.000 A 
ATOM     20  C   UNL     1      -1.604  11.997  20.577  0.00  0.00    +0.000 A 
ATOM     21  N   UNL     1      -2.847  12.553  20.439  0.00  0.00    +0.000 N 
ATOM     22  C   UNL     1      -3.464  12.069  19.306  0.00  0.00    +0.000 A 
ATOM     23  C   UNL     1      -4.730  12.348  18.780  0.00  0.00    +0.000 A 
ATOM     24  C   UNL     1      -5.093  11.703  17.593  0.00  0.00    +0.000 A 
ATOM     25  C   UNL     1      -4.219  10.829  16.951  0.00  0.00    +0.000 A 
ATOM     26  C   UNL     1      -2.954  10.565  17.488  0.00  0.00    +0.000 A 
ATOM     27  C   UNL     1      -2.573  11.186  18.694  0.00  0.00    +0.000 A 
ATOM     28  H   UNL     1      -3.257  13.225  21.072  0.00  0.00    +0.000 HD
ENDBRANCH   6  19
TORSDOF 2
ENDMDL
MODEL 6
REMARK VINA RESULT:      -7.9      3.893      8.928
REMARK  Name = 
REMARK  2 active torsions:
REMARK  status: ('A' for Active; 'I' for Inactive)
REMARK    1  A    between atoms: C_2  and  C_3
REMARK    2  A    between atoms: C_16  and  C_17
REMARK                            x       y       z     vdW  Elec       q    Type
REMARK                         _______ _______ _______ _____ _____    ______ ____
ROOT
ATOM      1  O   UNL     1      -0.319   9.212  21.584  0.00  0.00    +0.000 OA
ATOM      2  C   UNL     1      -0.103   9.411  20.390  0.00  0.00    +0.000 C 
ATOM      3  N   UNL     1       1.029   8.906  19.733  0.00  0.00    +0.000 N 
ATOM      4  C   UNL     1       1.327   9.083  18.311  0.00  0.00    +0.000 C 
ATOM      5  C   UNL     1       2.098   7.946  17.740  0.00  0.00    +0.000 C 
ATOM      6  C   UNL     1       2.567   6.914  18.460  0.00  0.00    +0.000 C 
ATOM      7  C   UNL     1       2.401   6.856  19.953  0.00  0.00    +0.000 C 
ATOM      8  C   UNL     1       2.062   8.238  20.525  0.00  0.00    +0.000 C 
ENDROOT
BRANCH   2   9
ATOM      9  C   UNL     1      -1.127  10.185  19.634  0.00  0.00    +0.000 A 
ATOM     10  C   UNL     1      -1.533  11.430  20.144  0.00  0.00    +0.000 A 
ATOM     11  C   UNL     1      -2.523  12.172  19.491  0.00  0.00    +0.000 A 
ATOM     12  C   UNL     1      -3.128  11.662  18.343  0.00  0.00    +0.000 A 
ATOM     13  C   UNL     1      -2.698  10.445  17.813  0.00  0.00    +0.000 A 
ATOM     14  C   UNL     1      -1.673   9.733  18.431  0.00  0.00    +0.000 A 
ATOM     15  O   UNL     1      -3.249   9.863  16.702  0.00  0.00    +0.000 OA
ATOM     16  C   UNL     1      -4.009  10.806  15.943  0.00  0.00    +0.000 C 
ATOM     17  C   UNL     1      -4.897  11.652  16.841  0.00  0.00    +0.000 C 
ATOM     18  O   UNL     1      -4.124  12.414  17.776  0.00  0.00    +0.000 OA
ENDBRANCH   2   9
BRANCH   6  19
ATOM     19  C   UNL     1       3.252   5.820  17.871  0.00  0.00    +0.000 A 
ATOM     20  C   UNL     1       2.682   4.589  17.637  0.00  0.00    +0.000 A 
ATOM     21  N   UNL     1       3.630   3.804  17.038  0.00  0.00    +0.000 N 
ATOM     22  C   UNL     1       4.804   4.508  16.881  0.00  0.00    +0.000 A 
ATOM     23  C   UNL     1       6.028   4.110  16.332  0.00  0.00    +0.000 A 
ATOM     24  C   UNL     1       7.059   5.054  16.298  0.00  0.00    +0.000 A 
ATOM     25  C   UNL     1       6.868   6.348  16.778  0.00  0.00    +0.000 A 
ATOM     26  C   UNL     1       5.637   6.732  17.319  0.00  0.00    +0.000 A 
ATOM     27  C   UNL     1       4.588   5.793  17.384  0.00  0.00    +0.000 A 
ATOM     28  H   UNL     1       3.493   2.847  16.747  0.00  0.00    +0.000 HD
ENDBRANCH   6  19
TORSDOF 2
ENDMDL
MODEL 7
REMARK VINA RESULT:      -7.9      4.109      8.553
REMARK  Name = 
REMARK  2 active torsions:
REMARK  status: ('A' for Active; 'I' for Inactive)
REMARK    1  A    between atoms: C_2  and  C_3
REMARK    2  A    between atoms: C_16  and  C_17
REMARK                            x       y       z     vdW  Elec       q    Type
REMARK                         _______ _______ _______ _____ _____    ______ ____
ROOT
ATOM      1  O   UNL     1      -0.662   9.903  21.266  0.00  0.00    +0.000 OA
ATOM      2  C   UNL     1      -0.298   9.783  20.097  0.00  0.00    +0.000 C 
ATOM      3  N   UNL     1       0.895   9.137  19.740  0.00  0.00    +0.000 N 
ATOM      4  C   UNL     1       1.368   8.937  18.369  0.00  0.00    +0.000 C 
ATOM      5  C   UNL     1       2.179   7.700  18.216  0.00  0.00    +0.000 C 
ATOM      6  C   UNL     1       2.536   6.899  19.233  0.00  0.00    +0.000 C 
ATOM      7  C   UNL     1       2.188   7.234  20.657  0.00  0.00    +0.000 C 
ATOM      8  C   UNL     1       1.810   8.714  20.800  0.00  0.00    +0.000 C 
ENDROOT
BRANCH   2   9
ATOM      9  C   UNL     1      -1.206  10.318  19.045  0.00  0.00    +0.000 A 
ATOM     10  C   UNL     1      -1.969  11.460  19.340  0.00  0.00    +0.000 A 
ATOM     11  C   UNL     1      -2.867  11.973  18.398  0.00  0.00    +0.000 A 
ATOM     12  C   UNL     1      -3.025  11.332  17.170  0.00  0.00    +0.000 A 
ATOM     13  C   UNL     1      -2.239  10.221  16.859  0.00  0.00    +0.000 A 
ATOM     14  C   UNL     1      -1.305   9.745  17.775  0.00  0.00    +0.000 A 
ATOM     15  O   UNL     1      -2.341   9.523  15.686  0.00  0.00    +0.000 OA
ATOM     16  C   UNL     1      -3.034  10.278  14.689  0.00  0.00    +0.000 C 
ATOM     17  C   UNL     1      -4.280  10.937  15.259  0.00  0.00    +0.000 C 
ATOM     18  O   UNL     1      -3.954  11.855  16.308  0.00  0.00    +0.000 OA
ENDBRANCH   2   9
BRANCH   6  19
ATOM     19  C   UNL     1       3.264   5.697  19.041  0.00  0.00    +0.000 A 
ATOM     20  C   UNL     1       4.638   5.620  19.041  0.00  0.00    +0.000 A 
ATOM     21  N   UNL     1       4.977   4.307  18.854  0.00  0.00    +0.000 N 
ATOM     22  C   UNL     1       3.843   3.533  18.733  0.00  0.00    +0.000 A 
ATOM     23  C   UNL     1       3.708   2.157  18.524  0.00  0.00    +0.000 A 
ATOM     24  C   UNL     1       2.412   1.637  18.448  0.00  0.00    +0.000 A 
ATOM     25  C   UNL     1       1.296   2.460  18.591  0.00  0.00    +0.000 A 
ATOM     26  C   UNL     1       1.448   3.835  18.803  0.00  0.00    +0.000 A 
ATOM     27  C   UNL     1       2.744   4.385  18.864  0.00  0.00    +0.000 A 
ATOM     28  H   UNL     1       5.921   3.950  18.813  0.00  0.00    +0.000 HD
ENDBRANCH   6  19
TORSDOF 2
ENDMDL
MODEL 8
REMARK VINA RESULT:      -7.9      3.421      4.969
REMARK  Name = 
REMARK  2 active torsions:
REMARK  status: ('A' for Active; 'I' for Inactive)
REMARK    1  A    between atoms: C_2  and  C_3
REMARK    2  A    between atoms: C_16  and  C_17
REMARK                            x       y       z     vdW  Elec       q    Type
REMARK                         _______ _______ _______ _____ _____    ______ ____
ROOT
ATOM      1  O   UNL     1       3.024   8.269  16.825  0.00  0.00    +0.000 OA
ATOM      2  C   UNL     1       2.549   8.014  17.931  0.00  0.00    +0.000 C 
ATOM      3  N   UNL     1       1.908   8.982  18.719  0.00  0.00    +0.000 N 
ATOM      4  C   UNL     1       1.299   8.735  20.026  0.00  0.00    +0.000 C 
ATOM      5  C   UNL     1       0.142   9.630  20.298  0.00  0.00    +0.000 C 
ATOM      6  C   UNL     1      -0.249  10.628  19.490  0.00  0.00    +0.000 C 
ATOM      7  C   UNL     1       0.515  10.973  18.241  0.00  0.00    +0.000 C 
ATOM      8  C   UNL     1       1.927  10.375  18.274  0.00  0.00    +0.000 C 
ENDROOT
BRANCH   2   9
ATOM      9  C   UNL     1       2.639   6.603  18.399  0.00  0.00    +0.000 A 
ATOM     10  C   UNL     1       3.709   6.244  19.236  0.00  0.00    +0.000 A 
ATOM     11  C   UNL     1       3.857   4.921  19.666  0.00  0.00    +0.000 A 
ATOM     12  C   UNL     1       2.953   3.948  19.240  0.00  0.00    +0.000 A 
ATOM     13  C   UNL     1       1.868   4.310  18.442  0.00  0.00    +0.000 A 
ATOM     14  C   UNL     1       1.688   5.638  18.061  0.00  0.00    +0.000 A 
ATOM     15  O   UNL     1       0.945   3.418  17.965  0.00  0.00    +0.000 OA
ATOM     16  C   UNL     1       0.991   2.185  18.687  0.00  0.00    +0.000 C 
ATOM     17  C   UNL     1       2.422   1.717  18.893  0.00  0.00    +0.000 C 
ATOM     18  O   UNL     1       3.179   2.662  19.657  0.00  0.00    +0.000 OA
ENDBRANCH   2   9
BRANCH   6  19
ATOM     19  C   UNL     1      -1.391  11.425  19.757  0.00  0.00    +0.000 A 
ATOM     20  C   UNL     1      -2.311  11.798  18.804  0.00  0.00    +0.000 A 
ATOM     21  N   UNL     1      -3.280  12.533  19.432  0.00  0.00    +0.000 N 
ATOM     22  C   UNL     1      -3.000  12.643  20.777  0.00  0.00    +0.000 A 
ATOM     23  C   UNL     1      -3.699  13.303  21.793  0.00  0.00    +0.000 A 
ATOM     24  C   UNL     1      -3.174  13.239  23.087  0.00  0.00    +0.000 A 
ATOM     25  C   UNL     1      -2.006  12.529  23.356  0.00  0.00    +0.000 A 
ATOM     26  C   UNL     1      -1.321  11.870  22.330  0.00  0.00    +0.000 A 
ATOM     27  C   UNL     1      -1.819  11.937  21.013  0.00  0.00    +0.000 A 
ATOM     28  H   UNL     1      -4.088  12.937  18.980  0.00  0.00    +0.000 HD
ENDBRANCH   6  19
TORSDOF 2
ENDMDL
MODEL 9
REMARK VINA RESULT:      -7.8      4.090      8.987
REMARK  Name = 
REMARK  2 active torsions:
REMARK  status: ('A' for Active; 'I' for Inactive)
REMARK    1  A    between atoms: C_2  and  C_3
REMARK    2  A    between atoms: C_16  and  C_17
REMARK                            x       y       z     vdW  Elec       q    Type
REMARK                         _______ _______ _______ _____ _____    ______ ____
ROOT
ATOM      1  O   UNL     1      -0.422   9.757  21.573  0.00  0.00    +0.000 OA
ATOM      2  C   UNL     1      -0.267   9.864  20.357  0.00  0.00    +0.000 C 
ATOM      3  N   UNL     1       0.861   9.361  19.692  0.00  0.00    +0.000 N 
ATOM      4  C   UNL     1       1.089   9.430  18.249  0.00  0.00    +0.000 C 
ATOM      5  C   UNL     1       1.895   8.288  17.739  0.00  0.00    +0.000 C 
ATOM      6  C   UNL     1       2.447   7.345  18.518  0.00  0.00    +0.000 C 
ATOM      7  C   UNL     1       2.348   7.407  20.018  0.00  0.00    +0.000 C 
ATOM      8  C   UNL     1       1.960   8.814  20.488  0.00  0.00    +0.000 C 
ENDROOT
BRANCH   2   9
ATOM      9  C   UNL     1      -1.362  10.520  19.589  0.00  0.00    +0.000 A 
ATOM     10  C   UNL     1      -1.978  11.654  20.141  0.00  0.00    +0.000 A 
ATOM     11  C   UNL     1      -3.038  12.278  19.475  0.00  0.00    +0.000 A 
ATOM     12  C   UNL     1      -3.503  11.755  18.269  0.00  0.00    +0.000 A 
ATOM     13  C   UNL     1      -2.866  10.652  17.699  0.00  0.00    +0.000 A 
ATOM     14  C   UNL     1      -1.774  10.066  18.334  0.00  0.00    +0.000 A 
ATOM     15  O   UNL     1      -3.267  10.064  16.529  0.00  0.00    +0.000 OA
ATOM     16  C   UNL     1      -4.128  10.927  15.781  0.00  0.00    +0.000 C 
ATOM     17  C   UNL     1      -5.177  11.571  16.673  0.00  0.00    +0.000 C 
ATOM     18  O   UNL     1      -4.575  12.381  17.689  0.00  0.00    +0.000 OA
ENDBRANCH   2   9
BRANCH   6  19
ATOM     19  C   UNL     1       3.163   6.240  17.991  0.00  0.00    +0.000 A 
ATOM     20  C   UNL     1       4.405   6.334  17.405  0.00  0.00    +0.000 A 
ATOM     21  N   UNL     1       4.787   5.070  17.044  0.00  0.00    +0.000 N 
ATOM     22  C   UNL     1       3.810   4.160  17.387  0.00  0.00    +0.000 A 
ATOM     23  C   UNL     1       3.766   2.773  17.204  0.00  0.00    +0.000 A 
ATOM     24  C   UNL     1       2.632   2.096  17.665  0.00  0.00    +0.000 A 
ATOM     25  C   UNL     1       1.594   2.776  18.298  0.00  0.00    +0.000 A 
ATOM     26  C   UNL     1       1.656   4.162  18.477  0.00  0.00    +0.000 A 
ATOM     27  C   UNL     1       2.778   4.870  18.003  0.00  0.00    +0.000 A 
ATOM     28  H   UNL     1       5.659   4.832  16.594  0.00  0.00    +0.000 HD
ENDBRANCH   6  19
TORSDOF 2
ENDMDL
