MODEL 1
REMARK VINA RESULT:      -8.3      0.000      0.000
REMARK  Name = 
REMARK  5 active torsions:
REMARK  status: ('A' for Active; 'I' for Inactive)
REMARK    1  A    between atoms: C_1  and  C_2
REMARK    2  A    between atoms: C_4  and  C_5
REMARK    3  A    between atoms: N_7  and  C_8
REMARK    4  A    between atoms: C_12  and  C_14
REMARK    5  A    between atoms: C_27  and  C_28
REMARK                            x       y       z     vdW  Elec       q    Type
REMARK                         _______ _______ _______ _____ _____    ______ ____
ROOT
ATOM      1  C   UNL     1      -0.148  10.174  19.007  0.00  0.00    +0.000 C 
ATOM      2  C   UNL     1      -0.044   9.356  20.295  0.00  0.00    +0.000 C 
ATOM      3  C   UNL     1       1.397   9.008  20.610  0.00  0.00    +0.000 C 
ATOM      4  N   UNL     1       1.924   8.180  19.531  0.00  0.00    +0.000 N 
ATOM      5  C   UNL     1       2.118   6.814  19.809  0.00  0.00    +0.000 C 
ATOM      6  O   UNL     1       1.844   6.366  20.925  0.00  0.00    +0.000 OA
ATOM      7  C   UNL     1       2.009   8.885  18.251  0.00  0.00    +0.000 C 
ATOM      8  C   UNL     1       0.706   9.591  17.857  0.00  0.00    +0.000 C 
ENDROOT
BRANCH   5   9
ATOM      9  C   UNL     1       2.720   5.871  18.813  0.00  0.00    +0.000 A 
ATOM     10  C   UNL     1       3.860   6.280  18.101  0.00  0.00    +0.000 A 
ATOM     11  C   UNL     1       4.444   5.424  17.185  0.00  0.00    +0.000 A 
ATOM     12  F   UNL     1       5.492   5.848  16.464  0.00  0.00    +0.000 F 
ATOM     13  C   UNL     1       3.979   4.133  17.022  0.00  0.00    +0.000 A 
ATOM     14  C   UNL     1       2.913   3.673  17.805  0.00  0.00    +0.000 A 
ATOM     15  C   UNL     1       2.520   2.331  17.717  0.00  0.00    +0.000 A 
ATOM     16  C   UNL     1       1.504   1.846  18.523  0.00  0.00    +0.000 A 
ATOM     17  C   UNL     1       0.874   2.743  19.354  0.00  0.00    +0.000 A 
ATOM     18  N   UNL     1       1.202   4.051  19.431  0.00  0.00    +0.000 NA
ATOM     19  C   UNL     1       2.241   4.542  18.708  0.00  0.00    +0.000 A 
ENDBRANCH   5   9
BRANCH   1  22
ATOM     20  C   UNL     1      -0.787  12.528  18.683  0.00  0.00    +0.000 C 
ATOM     21  O   UNL     1      -1.609  12.191  17.835  0.00  0.00    +0.000 OA
ATOM     22  N   UNL     1       0.086  11.605  19.241  0.00  0.00    +0.000 N 
ATOM     23  H   UNL     1       0.622  11.890  20.049  0.00  0.00    +0.000 HD
BRANCH  20  27
ATOM     24  C   UNL     1      -0.167  17.586  19.361  0.00  0.00    +0.000 C 
ATOM     25  C   UNL     1      -0.389  16.127  19.427  0.00  0.00    +0.000 A 
ATOM     26  C   UNL     1      -0.026  15.053  18.637  0.00  0.00    +0.000 A 
ATOM     27  C   UNL     1      -0.696  13.903  19.165  0.00  0.00    +0.000 A 
ATOM     28  C   UNL     1      -1.338  14.363  20.310  0.00  0.00    +0.000 A 
ATOM     29  C   UNL     1      -2.175  13.731  21.355  0.00  0.00    +0.000 C 
ATOM     30  O   UNL     1      -1.155  15.701  20.461  0.00  0.00    +0.000 OA
ENDBRANCH  20  27
ENDBRANCH   1  22
TORSDOF 3
ENDMDL
MODEL 2
REMARK VINA RESULT:      -8.1      0.723      1.241
REMARK  Name = 
REMARK  5 active torsions:
REMARK  status: ('A' for Active; 'I' for Inactive)
REMARK    1  A    between atoms: C_1  and  C_2
REMARK    2  A    between atoms: C_4  and  C_5
REMARK    3  A    between atoms: N_7  and  C_8
REMARK    4  A    between atoms: C_12  and  C_14
REMARK    5  A    between atoms: C_27  and  C_28
REMARK                            x       y       z     vdW  Elec       q    Type
REMARK                         _______ _______ _______ _____ _____    ______ ____
ROOT
ATOM      1  C   UNL     1      -0.154  10.220  19.255  0.00  0.00    +0.000 C 
ATOM      2  C   UNL     1      -0.055   9.347  20.508  0.00  0.00    +0.000 C 
ATOM      3  C   UNL     1       1.383   8.964  20.797  0.00  0.00    +0.000 C 
ATOM      4  N   UNL     1       1.889   8.173  19.681  0.00  0.00    +0.000 N 
ATOM      5  C   UNL     1       2.062   6.793  19.901  0.00  0.00    +0.000 C 
ATOM      6  O   UNL     1       1.789   6.305  21.000  0.00  0.00    +0.000 OA
ATOM      7  C   UNL     1       1.976   8.929  18.431  0.00  0.00    +0.000 C 
ATOM      8  C   UNL     1       0.682   9.672  18.077  0.00  0.00    +0.000 C 
ENDROOT
BRANCH   5   9
ATOM      9  C   UNL     1       2.643   5.883  18.863  0.00  0.00    +0.000 A 
ATOM     10  C   UNL     1       3.751   6.326  18.122  0.00  0.00    +0.000 A 
ATOM     11  C   UNL     1       4.315   5.500  17.166  0.00  0.00    +0.000 A 
ATOM     12  F   UNL     1       5.332   5.957  16.420  0.00  0.00    +0.000 F 
ATOM     13  C   UNL     1       3.863   4.207  16.988  0.00  0.00    +0.000 A 
ATOM     14  C   UNL     1       2.831   3.713  17.796  0.00  0.00    +0.000 A 
ATOM     15  C   UNL     1       2.454   2.368  17.689  0.00  0.00    +0.000 A 
ATOM     16  C   UNL     1       1.474   1.849  18.518  0.00  0.00    +0.000 A 
ATOM     17  C   UNL     1       0.860   2.717  19.392  0.00  0.00    +0.000 A 
ATOM     18  N   UNL     1       1.172   4.028  19.488  0.00  0.00    +0.000 NA
ATOM     19  C   UNL     1       2.179   4.550  18.742  0.00  0.00    +0.000 A 
ENDBRANCH   5   9
BRANCH   1  22
ATOM     20  C   UNL     1      -0.710  12.599  18.969  0.00  0.00    +0.000 C 
ATOM     21  O   UNL     1      -1.490  12.311  18.065  0.00  0.00    +0.000 OA
ATOM     22  N   UNL     1       0.104  11.635  19.547  0.00  0.00    +0.000 N 
ATOM     23  H   UNL     1       0.600  11.882  20.392  0.00  0.00    +0.000 HD
BRANCH  20  27
ATOM     24  C   UNL     1      -1.137  17.048  21.510  0.00  0.00    +0.000 C 
ATOM     25  C   UNL     1      -0.846  15.902  20.624  0.00  0.00    +0.000 A 
ATOM     26  C   UNL     1      -1.506  14.731  20.301  0.00  0.00    +0.000 A 
ATOM     27  C   UNL     1      -0.610  13.956  19.497  0.00  0.00    +0.000 A 
ATOM     28  C   UNL     1       0.498  14.777  19.312  0.00  0.00    +0.000 A 
ATOM     29  C   UNL     1       1.774  14.645  18.573  0.00  0.00    +0.000 C 
ATOM     30  O   UNL     1       0.355  15.942  19.995  0.00  0.00    +0.000 OA
ENDBRANCH  20  27
ENDBRANCH   1  22
TORSDOF 3
ENDMDL
MODEL 3
REMARK VINA RESULT:      -7.8      2.517      2.992
REMARK  Name = 
REMARK  5 active torsions:
REMARK  status: ('A' for Active; 'I' for Inactive)
REMARK    1  A    between atoms: C_1  and  C_2
REMARK    2  A    between atoms: C_4  and  C_5
REMARK    3  A    between atoms: N_7  and  C_8
REMARK    4  A    between atoms: C_12  and  C_14
REMARK    5  A    between atoms: C_27  and  C_28
REMARK                            x       y       z     vdW  Elec       q    Type
REMARK                         _______ _______ _______ _____ _____    ______ ____
ROOT
ATOM      1  C   UNL     1       1.149  10.144  20.292  0.00  0.00    +0.000 C 
ATOM      2  C   UNL     1       1.619  10.301  18.845  0.00  0.00    +0.000 C 
ATOM      3  C   UNL     1       1.263   9.082  18.017  0.00  0.00    +0.000 C 
ATOM      4  N   UNL     1       1.955   7.923  18.571  0.00  0.00    +0.000 N 
ATOM      5  C   UNL     1       3.042   7.416  17.834  0.00  0.00    +0.000 C 
ATOM      6  O   UNL     1       3.371   7.949  16.772  0.00  0.00    +0.000 OA
ATOM      7  C   UNL     1       1.504   7.572  19.918  0.00  0.00    +0.000 C 
ATOM      8  C   UNL     1       1.496   8.760  20.887  0.00  0.00    +0.000 C 
ENDROOT
BRANCH   5   9
ATOM      9  C   UNL     1       3.790   6.188  18.254  0.00  0.00    +0.000 A 
ATOM     10  C   UNL     1       5.078   6.335  18.795  0.00  0.00    +0.000 A 
ATOM     11  C   UNL     1       5.786   5.218  19.203  0.00  0.00    +0.000 A 
ATOM     12  F   UNL     1       7.039   5.364  19.657  0.00  0.00    +0.000 F 
ATOM     13  C   UNL     1       5.211   3.963  19.172  0.00  0.00    +0.000 A 
ATOM     14  C   UNL     1       3.887   3.813  18.740  0.00  0.00    +0.000 A 
ATOM     15  C   UNL     1       3.272   2.556  18.819  0.00  0.00    +0.000 A 
ATOM     16  C   UNL     1       1.947   2.402  18.448  0.00  0.00    +0.000 A 
ATOM     17  C   UNL     1       1.297   3.509  17.952  0.00  0.00    +0.000 A 
ATOM     18  N   UNL     1       1.875   4.723  17.825  0.00  0.00    +0.000 NA
ATOM     19  C   UNL     1       3.149   4.925  18.248  0.00  0.00    +0.000 A 
ENDBRANCH   5   9
BRANCH   1  22
ATOM     20  C   UNL     1      -0.573  11.693  21.121  0.00  0.00    +0.000 C 
ATOM     21  O   UNL     1       0.282  12.312  21.750  0.00  0.00    +0.000 OA
ATOM     22  N   UNL     1      -0.262  10.514  20.458  0.00  0.00    +0.000 N 
ATOM     23  H   UNL     1      -0.949  10.136  19.820  0.00  0.00    +0.000 HD
BRANCH  20  27
ATOM     24  C   UNL     1      -5.331  13.048  19.724  0.00  0.00    +0.000 C 
ATOM     25  C   UNL     1      -4.025  12.773  20.356  0.00  0.00    +0.000 A 
ATOM     26  C   UNL     1      -2.752  12.516  19.883  0.00  0.00    +0.000 A 
ATOM     27  C   UNL     1      -1.949  12.170  21.017  0.00  0.00    +0.000 A 
ATOM     28  C   UNL     1      -2.789  12.346  22.112  0.00  0.00    +0.000 A 
ATOM     29  C   UNL     1      -2.626  12.207  23.577  0.00  0.00    +0.000 C 
ATOM     30  O   UNL     1      -4.037  12.703  21.710  0.00  0.00    +0.000 OA
ENDBRANCH  20  27
ENDBRANCH   1  22
TORSDOF 3
ENDMDL
MODEL 4
REMARK VINA RESULT:      -7.8      2.485      3.190
REMARK  Name = 
REMARK  5 active torsions:
REMARK  status: ('A' for Active; 'I' for Inactive)
REMARK    1  A    between atoms: C_1  and  C_2
REMARK    2  A    between atoms: C_4  and  C_5
REMARK    3  A    between atoms: N_7  and  C_8
REMARK    4  A    between atoms: C_12  and  C_14
REMARK    5  A    between atoms: C_27  and  C_28
REMARK                            x       y       z     vdW  Elec       q    Type
REMARK                         _______ _______ _______ _____ _____    ______ ____
ROOT
ATOM      1  C   UNL     1       1.143  10.072  20.947  0.00  0.00    +0.000 C 
ATOM      2  C   UNL     1       1.439  10.304  19.464  0.00  0.00    +0.000 C 
ATOM      3  C   UNL     1       1.003   9.119  18.626  0.00  0.00    +0.000 C 
ATOM      4  N   UNL     1       1.768   7.948  19.039  0.00  0.00    +0.000 N 
ATOM      5  C   UNL     1       2.767   7.493  18.157  0.00  0.00    +0.000 C 
ATOM      6  O   UNL     1       2.963   8.081  17.090  0.00  0.00    +0.000 OA
ATOM      7  C   UNL     1       1.482   7.526  20.410  0.00  0.00    +0.000 C 
ATOM      8  C   UNL     1       1.573   8.668  21.430  0.00  0.00    +0.000 C 
ENDROOT
BRANCH   5   9
ATOM      9  C   UNL     1       3.573   6.260  18.427  0.00  0.00    +0.000 A 
ATOM     10  C   UNL     1       4.876   6.404  18.933  0.00  0.00    +0.000 A 
ATOM     11  C   UNL     1       5.637   5.281  19.203  0.00  0.00    +0.000 A 
ATOM     12  F   UNL     1       6.902   5.430  19.624  0.00  0.00    +0.000 F 
ATOM     13  C   UNL     1       5.106   4.013  19.071  0.00  0.00    +0.000 A 
ATOM     14  C   UNL     1       3.772   3.856  18.675  0.00  0.00    +0.000 A 
ATOM     15  C   UNL     1       3.204   2.574  18.653  0.00  0.00    +0.000 A 
ATOM     16  C   UNL     1       1.872   2.406  18.316  0.00  0.00    +0.000 A 
ATOM     17  C   UNL     1       1.164   3.530  17.955  0.00  0.00    +0.000 A 
ATOM     18  N   UNL     1       1.694   4.772  17.926  0.00  0.00    +0.000 NA
ATOM     19  C   UNL     1       2.977   4.980  18.321  0.00  0.00    +0.000 A 
ENDBRANCH   5   9
BRANCH   1  22
ATOM     20  C   UNL     1      -0.535  11.702  21.705  0.00  0.00    +0.000 C 
ATOM     21  O   UNL     1       0.359  12.496  21.989  0.00  0.00    +0.000 OA
ATOM     22  N   UNL     1      -0.242  10.410  21.293  0.00  0.00    +0.000 N 
ATOM     23  H   UNL     1      -0.995   9.855  20.911  0.00  0.00    +0.000 HD
BRANCH  20  27
ATOM     24  C   UNL     1      -5.261  13.314  22.927  0.00  0.00    +0.000 C 
ATOM     25  C   UNL     1      -4.015  12.774  22.348  0.00  0.00    +0.000 A 
ATOM     26  C   UNL     1      -2.820  12.314  22.871  0.00  0.00    +0.000 A 
ATOM     27  C   UNL     1      -1.945  12.077  21.763  0.00  0.00    +0.000 A 
ATOM     28  C   UNL     1      -2.726  12.318  20.638  0.00  0.00    +0.000 A 
ATOM     29  C   UNL     1      -2.493  12.241  19.178  0.00  0.00    +0.000 C 
ATOM     30  O   UNL     1      -3.967  12.742  20.994  0.00  0.00    +0.000 OA
ENDBRANCH  20  27
ENDBRANCH   1  22
TORSDOF 3
ENDMDL
MODEL 5
REMARK VINA RESULT:      -7.8      1.871      2.672
REMARK  Name = 
REMARK  5 active torsions:
REMARK  status: ('A' for Active; 'I' for Inactive)
REMARK    1  A    between atoms: C_1  and  C_2
REMARK    2  A    between atoms: C_4  and  C_5
REMARK    3  A    between atoms: N_7  and  C_8
REMARK    4  A    between atoms: C_12  and  C_14
REMARK    5  A    between atoms: C_27  and  C_28
REMARK                            x       y       z     vdW  Elec       q    Type
REMARK                         _______ _______ _______ _____ _____    ______ ____
ROOT
ATOM      1  C   UNL     1       0.511   9.852  18.760  0.00  0.00    +0.000 C 
ATOM      2  C   UNL     1       0.573   9.270  20.174  0.00  0.00    +0.000 C 
ATOM      3  C   UNL     1       1.927   8.647  20.452  0.00  0.00    +0.000 C 
ATOM      4  N   UNL     1       2.133   7.542  19.522  0.00  0.00    +0.000 N 
ATOM      5  C   UNL     1       2.047   6.239  20.049  0.00  0.00    +0.000 C 
ATOM      6  O   UNL     1       1.807   6.072  21.247  0.00  0.00    +0.000 OA
ATOM      7  C   UNL     1       2.229   7.972  18.127  0.00  0.00    +0.000 C 
ATOM      8  C   UNL     1       1.080   8.890  17.692  0.00  0.00    +0.000 C 
ENDROOT
BRANCH   5   9
ATOM      9  C   UNL     1       2.310   5.021  19.218  0.00  0.00    +0.000 A 
ATOM     10  C   UNL     1       1.298   4.054  19.100  0.00  0.00    +0.000 A 
ATOM     11  C   UNL     1       1.509   2.925  18.328  0.00  0.00    +0.000 A 
ATOM     12  F   UNL     1       0.561   1.978  18.275  0.00  0.00    +0.000 F 
ATOM     13  C   UNL     1       2.669   2.774  17.594  0.00  0.00    +0.000 A 
ATOM     14  C   UNL     1       3.641   3.782  17.613  0.00  0.00    +0.000 A 
ATOM     15  C   UNL     1       4.763   3.677  16.778  0.00  0.00    +0.000 A 
ATOM     16  C   UNL     1       5.706   4.690  16.744  0.00  0.00    +0.000 A 
ATOM     17  C   UNL     1       5.521   5.755  17.595  0.00  0.00    +0.000 A 
ATOM     18  N   UNL     1       4.473   5.865  18.441  0.00  0.00    +0.000 NA
ATOM     19  C   UNL     1       3.494   4.925  18.446  0.00  0.00    +0.000 A 
ENDBRANCH   5   9
BRANCH   1  22
ATOM     20  C   UNL     1       0.227  12.286  18.550  0.00  0.00    +0.000 C 
ATOM     21  O   UNL     1      -0.957  12.127  18.264  0.00  0.00    +0.000 OA
ATOM     22  N   UNL     1       1.082  11.202  18.694  0.00  0.00    +0.000 N 
ATOM     23  H   UNL     1       1.995  11.371  19.093  0.00  0.00    +0.000 HD
BRANCH  20  27
ATOM     24  C   UNL     1       2.849  16.708  18.489  0.00  0.00    +0.000 C 
ATOM     25  C   UNL     1       1.986  15.533  18.728  0.00  0.00    +0.000 A 
ATOM     26  C   UNL     1       2.024  14.206  18.343  0.00  0.00    +0.000 A 
ATOM     27  C   UNL     1       0.794  13.613  18.774  0.00  0.00    +0.000 A 
ATOM     28  C   UNL     1       0.147  14.618  19.484  0.00  0.00    +0.000 A 
ATOM     29  C   UNL     1      -1.131  14.706  20.226  0.00  0.00    +0.000 C 
ATOM     30  O   UNL     1       0.863  15.772  19.450  0.00  0.00    +0.000 OA
ENDBRANCH  20  27
ENDBRANCH   1  22
TORSDOF 3
ENDMDL
MODEL 6
REMARK VINA RESULT:      -7.7      1.814      2.728
REMARK  Name = 
REMARK  5 active torsions:
REMARK  status: ('A' for Active; 'I' for Inactive)
REMARK    1  A    between atoms: C_1  and  C_2
REMARK    2  A    between atoms: C_4  and  C_5
REMARK    3  A    between atoms: N_7  and  C_8
REMARK    4  A    between atoms: C_12  and  C_14
REMARK    5  A    between atoms: C_27  and  C_28
REMARK                            x       y       z     vdW  Elec       q    Type
REMARK                         _______ _______ _______ _____ _____    ______ ____
ROOT
ATOM      1  C   UNL     1       0.036  10.127  18.690  0.00  0.00    +0.000 C 
ATOM      2  C   UNL     1       0.342   9.600  20.093  0.00  0.00    +0.000 C 
ATOM      3  C   UNL     1       1.779   9.128  20.200  0.00  0.00    +0.000 C 
ATOM      4  N   UNL     1       1.977   8.021  19.272  0.00  0.00    +0.000 N 
ATOM      5  C   UNL     1       2.098   6.733  19.830  0.00  0.00    +0.000 C 
ATOM      6  O   UNL     1       2.035   6.581  21.052  0.00  0.00    +0.000 OA
ATOM      7  C   UNL     1       1.844   8.413  17.869  0.00  0.00    +0.000 C 
ATOM      8  C   UNL     1       0.558   9.194  17.573  0.00  0.00    +0.000 C 
ENDROOT
BRANCH   5   9
ATOM      9  C   UNL     1       2.377   5.522  18.994  0.00  0.00    +0.000 A 
ATOM     10  C   UNL     1       1.429   4.486  18.970  0.00  0.00    +0.000 A 
ATOM     11  C   UNL     1       1.655   3.362  18.196  0.00  0.00    +0.000 A 
ATOM     12  F   UNL     1       0.774   2.351  18.232  0.00  0.00    +0.000 F 
ATOM     13  C   UNL     1       2.760   3.278  17.372  0.00  0.00    +0.000 A 
ATOM     14  C   UNL     1       3.658   4.350  17.300  0.00  0.00    +0.000 A 
ATOM     15  C   UNL     1       4.713   4.308  16.378  0.00  0.00    +0.000 A 
ATOM     16  C   UNL     1       5.577   5.382  16.255  0.00  0.00    +0.000 A 
ATOM     17  C   UNL     1       5.388   6.446  17.107  0.00  0.00    +0.000 A 
ATOM     18  N   UNL     1       4.407   6.499  18.033  0.00  0.00    +0.000 NA
ATOM     19  C   UNL     1       3.498   5.494  18.129  0.00  0.00    +0.000 A 
ENDBRANCH   5   9
BRANCH   1  22
ATOM     20  C   UNL     1      -0.317  12.525  19.109  0.00  0.00    +0.000 C 
ATOM     21  O   UNL     1      -1.429  12.285  19.572  0.00  0.00    +0.000 OA
ATOM     22  N   UNL     1       0.448  11.526  18.523  0.00  0.00    +0.000 N 
ATOM     23  H   UNL     1       1.414  11.733  18.313  0.00  0.00    +0.000 HD
BRANCH  20  27
ATOM     24  C   UNL     1       0.760  17.551  19.000  0.00  0.00    +0.000 C 
ATOM     25  C   UNL     1       0.709  16.078  19.084  0.00  0.00    +0.000 A 
ATOM     26  C   UNL     1      -0.143  15.106  18.591  0.00  0.00    +0.000 A 
ATOM     27  C   UNL     1       0.269  13.861  19.167  0.00  0.00    +0.000 A 
ATOM     28  C   UNL     1       1.416  14.170  19.892  0.00  0.00    +0.000 A 
ATOM     29  C   UNL     1       2.373  13.384  20.703  0.00  0.00    +0.000 C 
ATOM     30  O   UNL     1       1.673  15.503  19.844  0.00  0.00    +0.000 OA
ENDBRANCH  20  27
ENDBRANCH   1  22
TORSDOF 3
ENDMDL
MODEL 7
REMARK VINA RESULT:      -7.6      2.398      3.090
REMARK  Name = 
REMARK  5 active torsions:
REMARK  status: ('A' for Active; 'I' for Inactive)
REMARK    1  A    between atoms: C_1  and  C_2
REMARK    2  A    between atoms: C_4  and  C_5
REMARK    3  A    between atoms: N_7  and  C_8
REMARK    4  A    between atoms: C_12  and  C_14
REMARK    5  A    between atoms: C_27  and  C_28
REMARK                            x       y       z     vdW  Elec       q    Type
REMARK                         _______ _______ _______ _____ _____    ______ ____
ROOT
ATOM      1  C   UNL     1       1.123  10.076  20.056  0.00  0.00    +0.000 C 
ATOM      2  C   UNL     1       1.632  10.212  18.619  0.00  0.00    +0.000 C 
ATOM      3  C   UNL     1       1.328   8.966  17.810  0.00  0.00    +0.000 C 
ATOM      4  N   UNL     1       2.028   7.837  18.411  0.00  0.00    +0.000 N 
ATOM      5  C   UNL     1       3.148   7.337  17.718  0.00  0.00    +0.000 C 
ATOM      6  O   UNL     1       3.496   7.854  16.654  0.00  0.00    +0.000 OA
ATOM      7  C   UNL     1       1.546   7.505  19.752  0.00  0.00    +0.000 C 
ATOM      8  C   UNL     1       1.482   8.715  20.692  0.00  0.00    +0.000 C 
ENDROOT
BRANCH   5   9
ATOM      9  C   UNL     1       3.910   6.137  18.188  0.00  0.00    +0.000 A 
ATOM     10  C   UNL     1       5.180   6.324  18.758  0.00  0.00    +0.000 A 
ATOM     11  C   UNL     1       5.900   5.234  19.212  0.00  0.00    +0.000 A 
ATOM     12  F   UNL     1       7.138   5.418  19.694  0.00  0.00    +0.000 F 
ATOM     13  C   UNL     1       5.353   3.966  19.199  0.00  0.00    +0.000 A 
ATOM     14  C   UNL     1       4.044   3.778  18.737  0.00  0.00    +0.000 A 
ATOM     15  C   UNL     1       3.453   2.510  18.832  0.00  0.00    +0.000 A 
ATOM     16  C   UNL     1       2.142   2.319  18.431  0.00  0.00    +0.000 A 
ATOM     17  C   UNL     1       1.482   3.398  17.891  0.00  0.00    +0.000 A 
ATOM     18  N   UNL     1       2.038   4.621  17.747  0.00  0.00    +0.000 NA
ATOM     19  C   UNL     1       3.296   4.860  18.198  0.00  0.00    +0.000 A 
ENDBRANCH   5   9
BRANCH   1  22
ATOM     20  C   UNL     1      -0.689  11.740  20.003  0.00  0.00    +0.000 C 
ATOM     21  O   UNL     1       0.139  12.646  19.975  0.00  0.00    +0.000 OA
ATOM     22  N   UNL     1      -0.300  10.418  20.171  0.00  0.00    +0.000 N 
ATOM     23  H   UNL     1      -0.994   9.699  20.018  0.00  0.00    +0.000 HD
BRANCH  20  27
ATOM     24  C   UNL     1      -5.560  13.370  20.217  0.00  0.00    +0.000 C 
ATOM     25  C   UNL     1      -4.253  12.724  19.982  0.00  0.00    +0.000 A 
ATOM     26  C   UNL     1      -3.072  12.633  20.696  0.00  0.00    +0.000 A 
ATOM     27  C   UNL     1      -2.117  11.996  19.840  0.00  0.00    +0.000 A 
ATOM     28  C   UNL     1      -2.836  11.656  18.699  0.00  0.00    +0.000 A 
ATOM     29  C   UNL     1      -2.508  10.958  17.436  0.00  0.00    +0.000 C 
ATOM     30  O   UNL     1      -4.117  12.100  18.786  0.00  0.00    +0.000 OA
ENDBRANCH  20  27
ENDBRANCH   1  22
TORSDOF 3
ENDMDL
MODEL 8
REMARK VINA RESULT:      -7.5      3.422      9.886
REMARK  Name = 
REMARK  5 active torsions:
REMARK  status: ('A' for Active; 'I' for Inactive)
REMARK    1  A    between atoms: C_1  and  C_2
REMARK    2  A    between atoms: C_4  and  C_5
REMARK    3  A    between atoms: N_7  and  C_8
REMARK    4  A    between atoms: C_12  and  C_14
REMARK    5  A    between atoms: C_27  and  C_28
REMARK                            x       y       z     vdW  Elec       q    Type
REMARK                         _______ _______ _______ _____ _____    ______ ____
ROOT
ATOM      1  C   UNL     1       1.781   8.881  20.247  0.00  0.00    +0.000 C 
ATOM      2  C   UNL     1       1.595   9.079  21.753  0.00  0.00    +0.000 C 
ATOM      3  C   UNL     1       0.128   9.041  22.135  0.00  0.00    +0.000 C 
ATOM      4  N   UNL     1      -0.557  10.142  21.469  0.00  0.00    +0.000 N 
ATOM      5  C   UNL     1      -0.950  11.230  22.272  0.00  0.00    +0.000 C 
ATOM      6  O   UNL     1      -0.712  11.221  23.482  0.00  0.00    +0.000 OA
ATOM      7  C   UNL     1      -0.574  10.014  20.011  0.00  0.00    +0.000 C 
ATOM      8  C   UNL     1       0.809   9.741  19.407  0.00  0.00    +0.000 C 
ENDROOT
BRANCH   5   9
ATOM      9  C   UNL     1      -1.725  12.390  21.726  0.00  0.00    +0.000 A 
ATOM     10  C   UNL     1      -3.101  12.468  21.995  0.00  0.00    +0.000 A 
ATOM     11  C   UNL     1      -3.838  13.535  21.514  0.00  0.00    +0.000 A 
ATOM     12  F   UNL     1      -5.163  13.566  21.721  0.00  0.00    +0.000 F 
ATOM     13  C   UNL     1      -3.225  14.578  20.847  0.00  0.00    +0.000 A 
ATOM     14  C   UNL     1      -1.836  14.570  20.669  0.00  0.00    +0.000 A 
ATOM     15  C   UNL     1      -1.206  15.683  20.095  0.00  0.00    +0.000 A 
ATOM     16  C   UNL     1       0.171  15.714  19.960  0.00  0.00    +0.000 A 
ATOM     17  C   UNL     1       0.870  14.597  20.357  0.00  0.00    +0.000 A 
ATOM     18  N   UNL     1       0.289  13.493  20.875  0.00  0.00    +0.000 NA
ATOM     19  C   UNL     1      -1.052  13.460  21.087  0.00  0.00    +0.000 A 
ENDBRANCH   5   9
BRANCH   1  22
ATOM     20  C   UNL     1       2.575   7.047  18.814  0.00  0.00    +0.000 C 
ATOM     21  O   UNL     1       3.104   7.860  18.060  0.00  0.00    +0.000 OA
ATOM     22  N   UNL     1       1.779   7.462  19.873  0.00  0.00    +0.000 N 
ATOM     23  H   UNL     1       1.509   6.772  20.559  0.00  0.00    +0.000 HD
BRANCH  20  27
ATOM     24  C   UNL     1       2.339   2.038  17.679  0.00  0.00    +0.000 C 
ATOM     25  C   UNL     1       2.616   3.409  18.154  0.00  0.00    +0.000 A 
ATOM     26  C   UNL     1       1.865   4.563  18.279  0.00  0.00    +0.000 A 
ATOM     27  C   UNL     1       2.769   5.609  18.655  0.00  0.00    +0.000 A 
ATOM     28  C   UNL     1       3.993   4.971  18.827  0.00  0.00    +0.000 A 
ATOM     29  C   UNL     1       5.345   5.416  19.237  0.00  0.00    +0.000 C 
ATOM     30  O   UNL     1       3.898   3.651  18.520  0.00  0.00    +0.000 OA
ENDBRANCH  20  27
ENDBRANCH   1  22
TORSDOF 3
ENDMDL
MODEL 9
REMARK VINA RESULT:      -7.5      2.833      4.128
REMARK  Name = 
REMARK  5 active torsions:
REMARK  status: ('A' for Active; 'I' for Inactive)
REMARK    1  A    between atoms: C_1  and  C_2
REMARK    2  A    between atoms: C_4  and  C_5
REMARK    3  A    between atoms: N_7  and  C_8
REMARK    4  A    between atoms: C_12  and  C_14
REMARK    5  A    between atoms: C_27  and  C_28
REMARK                            x       y       z     vdW  Elec       q    Type
REMARK                         _______ _______ _______ _____ _____    ______ ____
ROOT
ATOM      1  C   UNL     1       1.013  10.211  21.326  0.00  0.00    +0.000 C 
ATOM      2  C   UNL     1       1.241  10.465  19.834  0.00  0.00    +0.000 C 
ATOM      3  C   UNL     1       0.737   9.305  18.997  0.00  0.00    +0.000 C 
ATOM      4  N   UNL     1       1.494   8.110  19.351  0.00  0.00    +0.000 N 
ATOM      5  C   UNL     1       2.439   7.651  18.413  0.00  0.00    +0.000 C 
ATOM      6  O   UNL     1       2.596   8.254  17.349  0.00  0.00    +0.000 OA
ATOM      7  C   UNL     1       1.267   7.669  20.727  0.00  0.00    +0.000 C 
ATOM      8  C   UNL     1       1.434   8.789  21.762  0.00  0.00    +0.000 C 
ENDROOT
BRANCH   5   9
ATOM      9  C   UNL     1       3.229   6.395  18.621  0.00  0.00    +0.000 A 
ATOM     10  C   UNL     1       2.567   5.254  19.104  0.00  0.00    +0.000 A 
ATOM     11  C   UNL     1       3.270   4.078  19.292  0.00  0.00    +0.000 A 
ATOM     12  F   UNL     1       2.643   3.014  19.815  0.00  0.00    +0.000 F 
ATOM     13  C   UNL     1       4.599   3.978  18.928  0.00  0.00    +0.000 A 
ATOM     14  C   UNL     1       5.244   5.074  18.341  0.00  0.00    +0.000 A 
ATOM     15  C   UNL     1       6.556   4.932  17.869  0.00  0.00    +0.000 A 
ATOM     16  C   UNL     1       7.189   5.989  17.237  0.00  0.00    +0.000 A 
ATOM     17  C   UNL     1       6.502   7.178  17.152  0.00  0.00    +0.000 A 
ATOM     18  N   UNL     1       5.253   7.358  17.634  0.00  0.00    +0.000 NA
ATOM     19  C   UNL     1       4.577   6.321  18.193  0.00  0.00    +0.000 A 
ENDBRANCH   5   9
BRANCH   1  22
ATOM     20  C   UNL     1      -0.632  11.903  22.020  0.00  0.00    +0.000 C 
ATOM     21  O   UNL     1       0.264  12.736  22.127  0.00  0.00    +0.000 OA
ATOM     22  N   UNL     1      -0.346  10.573  21.746  0.00  0.00    +0.000 N 
ATOM     23  H   UNL     1      -1.116   9.965  21.501  0.00  0.00    +0.000 HD
BRANCH  20  27
ATOM     24  C   UNL     1      -5.300  13.475  23.491  0.00  0.00    +0.000 C 
ATOM     25  C   UNL     1      -4.082  12.945  22.847  0.00  0.00    +0.000 A 
ATOM     26  C   UNL     1      -2.857  12.497  23.306  0.00  0.00    +0.000 A 
ATOM     27  C   UNL     1      -2.040  12.265  22.153  0.00  0.00    +0.000 A 
ATOM     28  C   UNL     1      -2.883  12.496  21.071  0.00  0.00    +0.000 A 
ATOM     29  C   UNL     1      -2.728  12.417  19.601  0.00  0.00    +0.000 C 
ATOM     30  O   UNL     1      -4.106  12.910  21.492  0.00  0.00    +0.000 OA
ENDBRANCH  20  27
ENDBRANCH   1  22
TORSDOF 3
ENDMDL
