MODEL 1
REMARK VINA RESULT:      -8.1      0.000      0.000
REMARK  Name = 
REMARK  3 active torsions:
REMARK  status: ('A' for Active; 'I' for Inactive)
REMARK    1  A    between atoms: C_6  and  C_7
REMARK    2  A    between atoms: C_7  and  N_8
REMARK    3  A    between atoms: C_9  and  C_11
REMARK                            x       y       z     vdW  Elec       q    Type
REMARK                         _______ _______ _______ _____ _____    ______ ____
ROOT
ATOM      1  N   UNL     1       3.277   6.117  19.805  0.00  0.00    +0.000 N 
ATOM      2  C   UNL     1       2.022   6.185  20.361  0.00  0.00    +0.000 C 
ATOM      3  O   UNL     1       1.396   5.167  20.650  0.00  0.00    +0.000 OA
ATOM      4  H   UNL     1       3.748   6.992  19.593  0.00  0.00    +0.000 HD
ENDROOT
BRANCH   2   5
ATOM      5  C   UNL     1       1.477   7.511  20.578  0.00  0.00    +0.000 A 
ATOM      6  C   UNL     1       0.794   7.921  21.720  0.00  0.00    +0.000 A 
ATOM      7  C   UNL     1       0.420   9.271  21.565  0.00  0.00    +0.000 A 
ATOM      8  C   UNL     1       0.863   9.668  20.325  0.00  0.00    +0.000 A 
ATOM      9  C   UNL     1       0.768  10.886  19.615  0.00  0.00    +0.000 A 
ATOM     10  C   UNL     1       1.302  10.968  18.393  0.00  0.00    +0.000 A 
ATOM     11  C   UNL     1       1.975   9.756  17.875  0.00  0.00    +0.000 A 
ATOM     12  N   UNL     1       2.094   8.614  18.479  0.00  0.00    +0.000 NA
ATOM     13  N   UNL     1       1.513   8.599  19.725  0.00  0.00    +0.000 N 
ENDBRANCH   2   5
BRANCH   1  14
ATOM     14  C   UNL     1       3.937   4.862  19.536  0.00  0.00    +0.000 C 
BRANCH  14  20
ATOM     15  O   UNL     1       7.306   4.736  13.017  0.00  0.00    +0.000 OA
ATOM     16  C   UNL     1       6.888   4.809  14.160  0.00  0.00    +0.000 C 
ATOM     17  C   UNL     1       5.483   4.436  14.652  0.00  0.00    +0.000 C 
ATOM     18  C   UNL     1       5.574   4.734  16.119  0.00  0.00    +0.000 A 
ATOM     19  C   UNL     1       4.620   4.601  17.115  0.00  0.00    +0.000 A 
ATOM     20  C   UNL     1       4.963   4.970  18.430  0.00  0.00    +0.000 A 
ATOM     21  C   UNL     1       6.268   5.443  18.705  0.00  0.00    +0.000 A 
ATOM     22  C   UNL     1       7.224   5.572  17.690  0.00  0.00    +0.000 A 
ATOM     23  C   UNL     1       6.847   5.213  16.415  0.00  0.00    +0.000 A 
ATOM     24  N   UNL     1       7.612   5.255  15.262  0.00  0.00    +0.000 N 
ATOM     25  H   UNL     1       8.570   5.560  15.195  0.00  0.00    +0.000 HD
ENDBRANCH  14  20
ENDBRANCH   1  14
TORSDOF 3
ENDMDL
MODEL 2
REMARK VINA RESULT:      -8.0      2.685      3.660
REMARK  Name = 
REMARK  3 active torsions:
REMARK  status: ('A' for Active; 'I' for Inactive)
REMARK    1  A    between atoms: C_6  and  C_7
REMARK    2  A    between atoms: C_7  and  N_8
REMARK    3  A    between atoms: C_9  and  C_11
REMARK                            x       y       z     vdW  Elec       q    Type
REMARK                         _______ _______ _______ _____ _____    ______ ____
ROOT
ATOM      1  N   UNL     1       1.584   8.437  19.320  0.00  0.00    +0.000 N 
ATOM      2  C   UNL     1       1.018   9.663  19.575  0.00  0.00    +0.000 C 
ATOM      3  O   UNL     1       1.017  10.554  18.726  0.00  0.00    +0.000 OA
ATOM      4  H   UNL     1       1.549   7.738  20.057  0.00  0.00    +0.000 HD
ENDROOT
BRANCH   2   5
ATOM      5  C   UNL     1       0.436   9.851  20.889  0.00  0.00    +0.000 A 
ATOM      6  C   UNL     1       0.758   9.112  22.023  0.00  0.00    +0.000 A 
ATOM      7  C   UNL     1      -0.010   9.584  23.107  0.00  0.00    +0.000 A 
ATOM      8  C   UNL     1      -0.804  10.596  22.621  0.00  0.00    +0.000 A 
ATOM      9  C   UNL     1      -1.782  11.422  23.220  0.00  0.00    +0.000 A 
ATOM     10  C   UNL     1      -2.409  12.333  22.471  0.00  0.00    +0.000 A 
ATOM     11  C   UNL     1      -2.013  12.415  21.047  0.00  0.00    +0.000 A 
ATOM     12  N   UNL     1      -1.126  11.686  20.444  0.00  0.00    +0.000 NA
ATOM     13  N   UNL     1      -0.530  10.764  21.271  0.00  0.00    +0.000 N 
ENDBRANCH   2   5
BRANCH   1  14
ATOM     14  C   UNL     1       2.198   8.116  18.054  0.00  0.00    +0.000 C 
BRANCH  14  20
ATOM     15  O   UNL     1       8.290   4.114  17.192  0.00  0.00    +0.000 OA
ATOM     16  C   UNL     1       7.235   4.670  17.448  0.00  0.00    +0.000 C 
ATOM     17  C   UNL     1       6.673   5.931  16.778  0.00  0.00    +0.000 C 
ATOM     18  C   UNL     1       5.373   6.120  17.503  0.00  0.00    +0.000 A 
ATOM     19  C   UNL     1       4.402   7.095  17.349  0.00  0.00    +0.000 A 
ATOM     20  C   UNL     1       3.265   7.051  18.178  0.00  0.00    +0.000 A 
ATOM     21  C   UNL     1       3.132   6.009  19.126  0.00  0.00    +0.000 A 
ATOM     22  C   UNL     1       4.120   5.028  19.272  0.00  0.00    +0.000 A 
ATOM     23  C   UNL     1       5.223   5.112  18.452  0.00  0.00    +0.000 A 
ATOM     24  N   UNL     1       6.318   4.266  18.414  0.00  0.00    +0.000 N 
ATOM     25  H   UNL     1       6.462   3.454  18.994  0.00  0.00    +0.000 HD
ENDBRANCH  14  20
ENDBRANCH   1  14
TORSDOF 3
ENDMDL
MODEL 3
REMARK VINA RESULT:      -7.8      2.892      8.028
REMARK  Name = 
REMARK  3 active torsions:
REMARK  status: ('A' for Active; 'I' for Inactive)
REMARK    1  A    between atoms: C_6  and  C_7
REMARK    2  A    between atoms: C_7  and  N_8
REMARK    3  A    between atoms: C_9  and  C_11
REMARK                            x       y       z     vdW  Elec       q    Type
REMARK                         _______ _______ _______ _____ _____    ______ ____
ROOT
ATOM      1  N   UNL     1       2.510   7.017  18.027  0.00  0.00    +0.000 N 
ATOM      2  C   UNL     1       3.506   6.161  17.623  0.00  0.00    +0.000 C 
ATOM      3  O   UNL     1       4.501   6.575  17.030  0.00  0.00    +0.000 OA
ATOM      4  H   UNL     1       1.715   6.619  18.518  0.00  0.00    +0.000 HD
ENDROOT
BRANCH   2   5
ATOM      5  C   UNL     1       3.319   4.756  17.924  0.00  0.00    +0.000 A 
ATOM      6  C   UNL     1       3.850   3.700  17.188  0.00  0.00    +0.000 A 
ATOM      7  C   UNL     1       3.453   2.486  17.785  0.00  0.00    +0.000 A 
ATOM      8  C   UNL     1       2.672   2.811  18.869  0.00  0.00    +0.000 A 
ATOM      9  C   UNL     1       1.984   2.032  19.826  0.00  0.00    +0.000 A 
ATOM     10  C   UNL     1       1.282   2.648  20.781  0.00  0.00    +0.000 A 
ATOM     11  C   UNL     1       1.292   4.127  20.768  0.00  0.00    +0.000 A 
ATOM     12  N   UNL     1       1.902   4.893  19.918  0.00  0.00    +0.000 NA
ATOM     13  N   UNL     1       2.594   4.193  18.959  0.00  0.00    +0.000 N 
ENDBRANCH   2   5
BRANCH   1  14
ATOM     14  C   UNL     1       2.569   8.440  17.792  0.00  0.00    +0.000 C 
BRANCH  14  20
ATOM     15  O   UNL     1      -1.450  10.846  23.442  0.00  0.00    +0.000 OA
ATOM     16  C   UNL     1      -0.852  10.564  22.416  0.00  0.00    +0.000 C 
ATOM     17  C   UNL     1       0.139   9.410  22.216  0.00  0.00    +0.000 C 
ATOM     18  C   UNL     1       0.529   9.577  20.777  0.00  0.00    +0.000 A 
ATOM     19  C   UNL     1       1.401   8.833  20.000  0.00  0.00    +0.000 A 
ATOM     20  C   UNL     1       1.603   9.214  18.660  0.00  0.00    +0.000 A 
ATOM     21  C   UNL     1       0.899  10.325  18.137  0.00  0.00    +0.000 A 
ATOM     22  C   UNL     1       0.019  11.068  18.932  0.00  0.00    +0.000 A 
ATOM     23  C   UNL     1      -0.142  10.672  20.241  0.00  0.00    +0.000 A 
ATOM     24  N   UNL     1      -0.950  11.247  21.208  0.00  0.00    +0.000 N 
ATOM     25  H   UNL     1      -1.544  12.051  21.084  0.00  0.00    +0.000 HD
ENDBRANCH  14  20
ENDBRANCH   1  14
TORSDOF 3
ENDMDL
MODEL 4
REMARK VINA RESULT:      -7.7      1.074      2.039
REMARK  Name = 
REMARK  3 active torsions:
REMARK  status: ('A' for Active; 'I' for Inactive)
REMARK    1  A    between atoms: C_6  and  C_7
REMARK    2  A    between atoms: C_7  and  N_8
REMARK    3  A    between atoms: C_9  and  C_11
REMARK                            x       y       z     vdW  Elec       q    Type
REMARK                         _______ _______ _______ _____ _____    ______ ____
ROOT
ATOM      1  N   UNL     1       3.571   6.698  19.453  0.00  0.00    +0.000 N 
ATOM      2  C   UNL     1       2.424   7.002  18.758  0.00  0.00    +0.000 C 
ATOM      3  O   UNL     1       1.911   6.193  17.988  0.00  0.00    +0.000 OA
ATOM      4  H   UNL     1       3.946   7.404  20.079  0.00  0.00    +0.000 HD
ENDROOT
BRANCH   2   5
ATOM      5  C   UNL     1       1.864   8.322  18.974  0.00  0.00    +0.000 A 
ATOM      6  C   UNL     1       1.820   9.341  18.027  0.00  0.00    +0.000 A 
ATOM      7  C   UNL     1       1.202  10.470  18.602  0.00  0.00    +0.000 A 
ATOM      8  C   UNL     1       0.888  10.135  19.898  0.00  0.00    +0.000 A 
ATOM      9  C   UNL     1       0.284  10.851  20.956  0.00  0.00    +0.000 A 
ATOM     10  C   UNL     1       0.116  10.247  22.136  0.00  0.00    +0.000 A 
ATOM     11  C   UNL     1       0.574   8.844  22.239  0.00  0.00    +0.000 A 
ATOM     12  N   UNL     1       1.134   8.138  21.306  0.00  0.00    +0.000 NA
ATOM     13  N   UNL     1       1.285   8.825  20.125  0.00  0.00    +0.000 N 
ENDBRANCH   2   5
BRANCH   1  14
ATOM     14  C   UNL     1       4.233   5.421  19.331  0.00  0.00    +0.000 C 
BRANCH  14  20
ATOM     15  O   UNL     1       7.150   4.265  12.696  0.00  0.00    +0.000 OA
ATOM     16  C   UNL     1       6.808   4.523  13.838  0.00  0.00    +0.000 C 
ATOM     17  C   UNL     1       5.456   4.201  14.489  0.00  0.00    +0.000 C 
ATOM     18  C   UNL     1       5.636   4.751  15.874  0.00  0.00    +0.000 A 
ATOM     19  C   UNL     1       4.759   4.765  16.946  0.00  0.00    +0.000 A 
ATOM     20  C   UNL     1       5.175   5.365  18.149  0.00  0.00    +0.000 A 
ATOM     21  C   UNL     1       6.476   5.914  18.242  0.00  0.00    +0.000 A 
ATOM     22  C   UNL     1       7.354   5.893  17.152  0.00  0.00    +0.000 A 
ATOM     23  C   UNL     1       6.906   5.309  15.988  0.00  0.00    +0.000 A 
ATOM     24  N   UNL     1       7.588   5.173  14.791  0.00  0.00    +0.000 N 
ATOM     25  H   UNL     1       8.526   5.488  14.602  0.00  0.00    +0.000 HD
ENDBRANCH  14  20
ENDBRANCH   1  14
TORSDOF 3
ENDMDL
MODEL 5
REMARK VINA RESULT:      -7.6      2.813      4.057
REMARK  Name = 
REMARK  3 active torsions:
REMARK  status: ('A' for Active; 'I' for Inactive)
REMARK    1  A    between atoms: C_6  and  C_7
REMARK    2  A    between atoms: C_7  and  N_8
REMARK    3  A    between atoms: C_9  and  C_11
REMARK                            x       y       z     vdW  Elec       q    Type
REMARK                         _______ _______ _______ _____ _____    ______ ____
ROOT
ATOM      1  N   UNL     1       1.849   8.722  19.091  0.00  0.00    +0.000 N 
ATOM      2  C   UNL     1       0.725   9.507  19.195  0.00  0.00    +0.000 C 
ATOM      3  O   UNL     1       0.209  10.017  18.201  0.00  0.00    +0.000 OA
ATOM      4  H   UNL     1       2.227   8.322  19.945  0.00  0.00    +0.000 HD
ENDROOT
BRANCH   2   5
ATOM      5  C   UNL     1       0.192   9.707  20.527  0.00  0.00    +0.000 A 
ATOM      6  C   UNL     1       0.070   8.719  21.501  0.00  0.00    +0.000 A 
ATOM      7  C   UNL     1      -0.488   9.291  22.662  0.00  0.00    +0.000 A 
ATOM      8  C   UNL     1      -0.716  10.618  22.382  0.00  0.00    +0.000 A 
ATOM      9  C   UNL     1      -1.269  11.678  23.136  0.00  0.00    +0.000 A 
ATOM     10  C   UNL     1      -1.373  12.886  22.577  0.00  0.00    +0.000 A 
ATOM     11  C   UNL     1      -0.878  13.025  21.189  0.00  0.00    +0.000 A 
ATOM     12  N   UNL     1      -0.363  12.092  20.451  0.00  0.00    +0.000 NA
ATOM     13  N   UNL     1      -0.297  10.875  21.085  0.00  0.00    +0.000 N 
ENDBRANCH   2   5
BRANCH   1  14
ATOM     14  C   UNL     1       2.482   8.441  17.825  0.00  0.00    +0.000 C 
BRANCH  14  20
ATOM     15  O   UNL     1       3.621   1.210  18.347  0.00  0.00    +0.000 OA
ATOM     16  C   UNL     1       3.583   2.420  18.202  0.00  0.00    +0.000 C 
ATOM     17  C   UNL     1       2.421   3.355  18.565  0.00  0.00    +0.000 C 
ATOM     18  C   UNL     1       2.959   4.696  18.162  0.00  0.00    +0.000 A 
ATOM     19  C   UNL     1       2.375   5.949  18.242  0.00  0.00    +0.000 A 
ATOM     20  C   UNL     1       3.101   7.062  17.776  0.00  0.00    +0.000 A 
ATOM     21  C   UNL     1       4.407   6.879  17.263  0.00  0.00    +0.000 A 
ATOM     22  C   UNL     1       4.987   5.607  17.188  0.00  0.00    +0.000 A 
ATOM     23  C   UNL     1       4.241   4.542  17.642  0.00  0.00    +0.000 A 
ATOM     24  N   UNL     1       4.600   3.205  17.667  0.00  0.00    +0.000 N 
ATOM     25  H   UNL     1       5.475   2.819  17.351  0.00  0.00    +0.000 HD
ENDBRANCH  14  20
ENDBRANCH   1  14
TORSDOF 3
ENDMDL
MODEL 6
REMARK VINA RESULT:      -7.6      2.820      4.373
REMARK  Name = 
REMARK  3 active torsions:
REMARK  status: ('A' for Active; 'I' for Inactive)
REMARK    1  A    between atoms: C_6  and  C_7
REMARK    2  A    between atoms: C_7  and  N_8
REMARK    3  A    between atoms: C_9  and  C_11
REMARK                            x       y       z     vdW  Elec       q    Type
REMARK                         _______ _______ _______ _____ _____    ______ ____
ROOT
ATOM      1  N   UNL     1       1.475   8.582  19.423  0.00  0.00    +0.000 N 
ATOM      2  C   UNL     1       1.047   9.854  19.721  0.00  0.00    +0.000 C 
ATOM      3  O   UNL     1       1.227  10.787  18.939  0.00  0.00    +0.000 OA
ATOM      4  H   UNL     1       1.293   7.851  20.105  0.00  0.00    +0.000 HD
ENDROOT
BRANCH   2   5
ATOM      5  C   UNL     1       0.387  10.037  20.998  0.00  0.00    +0.000 A 
ATOM      6  C   UNL     1       0.653   9.304  22.152  0.00  0.00    +0.000 A 
ATOM      7  C   UNL     1      -0.183   9.769  23.187  0.00  0.00    +0.000 A 
ATOM      8  C   UNL     1      -0.961  10.769  22.654  0.00  0.00    +0.000 A 
ATOM      9  C   UNL     1      -1.983  11.583  23.192  0.00  0.00    +0.000 A 
ATOM     10  C   UNL     1      -2.578  12.484  22.405  0.00  0.00    +0.000 A 
ATOM     11  C   UNL     1      -2.101  12.568  21.007  0.00  0.00    +0.000 A 
ATOM     12  N   UNL     1      -1.171  11.850  20.459  0.00  0.00    +0.000 NA
ATOM     13  N   UNL     1      -0.611  10.938  21.322  0.00  0.00    +0.000 N 
ENDBRANCH   2   5
BRANCH   1  14
ATOM     14  C   UNL     1       2.146   8.261  18.186  0.00  0.00    +0.000 C 
BRANCH  14  20
ATOM     15  O   UNL     1       4.895   1.730  20.097  0.00  0.00    +0.000 OA
ATOM     16  C   UNL     1       4.566   2.828  19.680  0.00  0.00    +0.000 C 
ATOM     17  C   UNL     1       3.349   3.653  20.121  0.00  0.00    +0.000 C 
ATOM     18  C   UNL     1       3.478   4.882  19.270  0.00  0.00    +0.000 A 
ATOM     19  C   UNL     1       2.675   6.008  19.207  0.00  0.00    +0.000 A 
ATOM     20  C   UNL     1       3.016   7.029  18.300  0.00  0.00    +0.000 A 
ATOM     21  C   UNL     1       4.174   6.892  17.497  0.00  0.00    +0.000 A 
ATOM     22  C   UNL     1       4.978   5.749  17.571  0.00  0.00    +0.000 A 
ATOM     23  C   UNL     1       4.605   4.767  18.461  0.00  0.00    +0.000 A 
ATOM     24  N   UNL     1       5.237   3.560  18.706  0.00  0.00    +0.000 N 
ATOM     25  H   UNL     1       6.076   3.227  18.258  0.00  0.00    +0.000 HD
ENDBRANCH  14  20
ENDBRANCH   1  14
TORSDOF 3
ENDMDL
MODEL 7
REMARK VINA RESULT:      -7.6      3.245      5.102
REMARK  Name = 
REMARK  3 active torsions:
REMARK  status: ('A' for Active; 'I' for Inactive)
REMARK    1  A    between atoms: C_6  and  C_7
REMARK    2  A    between atoms: C_7  and  N_8
REMARK    3  A    between atoms: C_9  and  C_11
REMARK                            x       y       z     vdW  Elec       q    Type
REMARK                         _______ _______ _______ _____ _____    ______ ____
ROOT
ATOM      1  N   UNL     1       1.754   9.001  18.596  0.00  0.00    +0.000 N 
ATOM      2  C   UNL     1       1.696  10.370  18.489  0.00  0.00    +0.000 C 
ATOM      3  O   UNL     1       2.345  10.971  17.635  0.00  0.00    +0.000 OA
ATOM      4  H   UNL     1       1.192   8.559  19.318  0.00  0.00    +0.000 HD
ENDROOT
BRANCH   2   5
ATOM      5  C   UNL     1       0.844  11.062  19.436  0.00  0.00    +0.000 A 
ATOM      6  C   UNL     1       0.334  12.346  19.268  0.00  0.00    +0.000 A 
ATOM      7  C   UNL     1      -0.449  12.675  20.394  0.00  0.00    +0.000 A 
ATOM      8  C   UNL     1      -0.396  11.596  21.245  0.00  0.00    +0.000 A 
ATOM      9  C   UNL     1      -0.957  11.349  22.518  0.00  0.00    +0.000 A 
ATOM     10  C   UNL     1      -0.715  10.179  23.117  0.00  0.00    +0.000 A 
ATOM     11  C   UNL     1       0.127   9.212  22.379  0.00  0.00    +0.000 A 
ATOM     12  N   UNL     1       0.667   9.383  21.212  0.00  0.00    +0.000 NA
ATOM     13  N   UNL     1       0.386  10.610  20.661  0.00  0.00    +0.000 N 
ENDBRANCH   2   5
BRANCH   1  14
ATOM     14  C   UNL     1       2.563   8.190  17.718  0.00  0.00    +0.000 C 
BRANCH  14  20
ATOM     15  O   UNL     1       2.700   2.238  22.011  0.00  0.00    +0.000 OA
ATOM     16  C   UNL     1       2.773   3.144  21.197  0.00  0.00    +0.000 C 
ATOM     17  C   UNL     1       2.143   4.538  21.312  0.00  0.00    +0.000 C 
ATOM     18  C   UNL     1       2.577   5.186  20.030  0.00  0.00    +0.000 A 
ATOM     19  C   UNL     1       2.322   6.458  19.546  0.00  0.00    +0.000 A 
ATOM     20  C   UNL     1       2.843   6.817  18.288  0.00  0.00    +0.000 A 
ATOM     21  C   UNL     1       3.626   5.886  17.564  0.00  0.00    +0.000 A 
ATOM     22  C   UNL     1       3.876   4.603  18.065  0.00  0.00    +0.000 A 
ATOM     23  C   UNL     1       3.339   4.285  19.292  0.00  0.00    +0.000 A 
ATOM     24  N   UNL     1       3.450   3.089  19.982  0.00  0.00    +0.000 N 
ATOM     25  H   UNL     1       3.950   2.270  19.675  0.00  0.00    +0.000 HD
ENDBRANCH  14  20
ENDBRANCH   1  14
TORSDOF 3
ENDMDL
MODEL 8
REMARK VINA RESULT:      -7.6      3.379      5.197
REMARK  Name = 
REMARK  3 active torsions:
REMARK  status: ('A' for Active; 'I' for Inactive)
REMARK    1  A    between atoms: C_6  and  C_7
REMARK    2  A    between atoms: C_7  and  N_8
REMARK    3  A    between atoms: C_9  and  C_11
REMARK                            x       y       z     vdW  Elec       q    Type
REMARK                         _______ _______ _______ _____ _____    ______ ____
ROOT
ATOM      1  N   UNL     1       1.604   8.952  18.189  0.00  0.00    +0.000 N 
ATOM      2  C   UNL     1       1.493  10.319  18.271  0.00  0.00    +0.000 C 
ATOM      3  O   UNL     1       2.429  11.056  17.964  0.00  0.00    +0.000 OA
ATOM      4  H   UNL     1       0.795   8.395  18.451  0.00  0.00    +0.000 HD
ENDROOT
BRANCH   2   5
ATOM      5  C   UNL     1       0.226  10.842  18.744  0.00  0.00    +0.000 A 
ATOM      6  C   UNL     1       0.059  11.649  19.866  0.00  0.00    +0.000 A 
ATOM      7  C   UNL     1      -1.309  11.957  20.006  0.00  0.00    +0.000 A 
ATOM      8  C   UNL     1      -1.967  11.323  18.977  0.00  0.00    +0.000 A 
ATOM      9  C   UNL     1      -3.329  11.245  18.611  0.00  0.00    +0.000 A 
ATOM     10  C   UNL     1      -3.673  10.526  17.539  0.00  0.00    +0.000 A 
ATOM     11  C   UNL     1      -2.576   9.866  16.798  0.00  0.00    +0.000 A 
ATOM     12  N   UNL     1      -1.312   9.901  17.085  0.00  0.00    +0.000 NA
ATOM     13  N   UNL     1      -1.032  10.649  18.204  0.00  0.00    +0.000 N 
ENDBRANCH   2   5
BRANCH   1  14
ATOM     14  C   UNL     1       2.809   8.300  17.735  0.00  0.00    +0.000 C 
BRANCH  14  20
ATOM     15  O   UNL     1       2.288   2.324  21.964  0.00  0.00    +0.000 OA
ATOM     16  C   UNL     1       2.474   3.229  21.168  0.00  0.00    +0.000 C 
ATOM     17  C   UNL     1       1.905   4.652  21.242  0.00  0.00    +0.000 C 
ATOM     18  C   UNL     1       2.478   5.285  20.009  0.00  0.00    +0.000 A 
ATOM     19  C   UNL     1       2.329   6.571  19.518  0.00  0.00    +0.000 A 
ATOM     20  C   UNL     1       2.972   6.912  18.313  0.00  0.00    +0.000 A 
ATOM     21  C   UNL     1       3.768   5.947  17.649  0.00  0.00    +0.000 A 
ATOM     22  C   UNL     1       3.912   4.650  18.156  0.00  0.00    +0.000 A 
ATOM     23  C   UNL     1       3.256   4.352  19.330  0.00  0.00    +0.000 A 
ATOM     24  N   UNL     1       3.249   3.148  20.015  0.00  0.00    +0.000 N 
ATOM     25  H   UNL     1       3.733   2.307  19.743  0.00  0.00    +0.000 HD
ENDBRANCH  14  20
ENDBRANCH   1  14
TORSDOF 3
ENDMDL
MODEL 9
REMARK VINA RESULT:      -7.5      3.256      7.981
REMARK  Name = 
REMARK  3 active torsions:
REMARK  status: ('A' for Active; 'I' for Inactive)
REMARK    1  A    between atoms: C_6  and  C_7
REMARK    2  A    between atoms: C_7  and  N_8
REMARK    3  A    between atoms: C_9  and  C_11
REMARK                            x       y       z     vdW  Elec       q    Type
REMARK                         _______ _______ _______ _____ _____    ______ ____
ROOT
ATOM      1  N   UNL     1       2.251   7.255  18.215  0.00  0.00    +0.000 N 
ATOM      2  C   UNL     1       3.190   6.319  17.853  0.00  0.00    +0.000 C 
ATOM      3  O   UNL     1       4.261   6.652  17.345  0.00  0.00    +0.000 OA
ATOM      4  H   UNL     1       1.389   6.921  18.634  0.00  0.00    +0.000 HD
ENDROOT
BRANCH   2   5
ATOM      5  C   UNL     1       2.851   4.930  18.090  0.00  0.00    +0.000 A 
ATOM      6  C   UNL     1       2.799   3.938  17.114  0.00  0.00    +0.000 A 
ATOM      7  C   UNL     1       2.436   2.720  17.724  0.00  0.00    +0.000 A 
ATOM      8  C   UNL     1       2.254   2.982  19.061  0.00  0.00    +0.000 A 
ATOM      9  C   UNL     1       1.871   2.175  20.156  0.00  0.00    +0.000 A 
ATOM     10  C   UNL     1       1.768   2.729  21.367  0.00  0.00    +0.000 A 
ATOM     11  C   UNL     1       2.082   4.171  21.470  0.00  0.00    +0.000 A 
ATOM     12  N   UNL     1       2.438   4.961  20.505  0.00  0.00    +0.000 NA
ATOM     13  N   UNL     1       2.513   4.327  19.288  0.00  0.00    +0.000 N 
ENDBRANCH   2   5
BRANCH   1  14
ATOM     14  C   UNL     1       2.461   8.672  18.034  0.00  0.00    +0.000 C 
BRANCH  14  20
ATOM     15  O   UNL     1      -4.244  11.656  18.045  0.00  0.00    +0.000 OA
ATOM     16  C   UNL     1      -3.102  11.250  18.175  0.00  0.00    +0.000 C 
ATOM     17  C   UNL     1      -2.364  10.265  17.258  0.00  0.00    +0.000 C 
ATOM     18  C   UNL     1      -1.023  10.161  17.922  0.00  0.00    +0.000 A 
ATOM     19  C   UNL     1       0.090   9.419  17.565  0.00  0.00    +0.000 A 
ATOM     20  C   UNL     1       1.237   9.489  18.379  0.00  0.00    +0.000 A 
ATOM     21  C   UNL     1       1.232  10.327  19.521  0.00  0.00    +0.000 A 
ATOM     22  C   UNL     1       0.100  11.073  19.870  0.00  0.00    +0.000 A 
ATOM     23  C   UNL     1      -1.005  10.967  19.056  0.00  0.00    +0.000 A 
ATOM     24  N   UNL     1      -2.227  11.602  19.199  0.00  0.00    +0.000 N 
ATOM     25  H   UNL     1      -2.481  12.244  19.934  0.00  0.00    +0.000 HD
ENDBRANCH  14  20
ENDBRANCH   1  14
TORSDOF 3
ENDMDL
