MODEL 1
REMARK VINA RESULT:      -8.6      0.000      0.000
REMARK  Name = 
REMARK  5 active torsions:
REMARK  status: ('A' for Active; 'I' for Inactive)
REMARK    1  A    between atoms: C_2  and  C_3
REMARK    2  A    between atoms: C_3  and  N_4
REMARK    3  A    between atoms: C_5  and  C_7
REMARK    4  A    between atoms: C_12  and  N_13
REMARK    5  A    between atoms: C_14  and  C_16
REMARK                            x       y       z     vdW  Elec       q    Type
REMARK                         _______ _______ _______ _____ _____    ______ ____
ROOT
ATOM      1  N   UNL     1       1.761   9.099  17.926  0.00  0.00    +0.000 N 
ATOM      2  C   UNL     1       2.095   8.088  18.807  0.00  0.00    +0.000 C 
ATOM      3  O   UNL     1       2.300   8.258  20.003  0.00  0.00    +0.000 OA
ATOM      4  H   UNL     1       1.660   8.845  16.956  0.00  0.00    +0.000 HD
ENDROOT
BRANCH   2   5
ATOM      5  C   UNL     1       2.167   6.678  18.220  0.00  0.00    +0.000 C 
ATOM      6  C   UNL     1       1.782   5.481  19.112  0.00  0.00    +0.000 A 
ATOM      7  C   UNL     1       1.896   5.291  20.486  0.00  0.00    +0.000 A 
ATOM      8  C   UNL     1       1.618   4.028  21.044  0.00  0.00    +0.000 A 
ATOM      9  C   UNL     1       1.105   2.979  20.259  0.00  0.00    +0.000 A 
ATOM     10  C   UNL     1       1.086   3.127  18.890  0.00  0.00    +0.000 A 
ATOM     11  C   UNL     1       1.633   4.294  18.377  0.00  0.00    +0.000 A 
ATOM     12  O   UNL     1       2.535   4.093  17.327  0.00  0.00    +0.000 OA
ATOM     13  C   UNL     1       3.659   4.904  17.405  0.00  0.00    +0.000 A 
ATOM     14  C   UNL     1       4.934   4.363  17.421  0.00  0.00    +0.000 A 
ATOM     15  C   UNL     1       6.020   5.223  17.314  0.00  0.00    +0.000 A 
ATOM     16  C   UNL     1       5.809   6.588  17.091  0.00  0.00    +0.000 A 
ATOM     17  C   UNL     1       4.532   7.132  17.225  0.00  0.00    +0.000 A 
ATOM     18  C   UNL     1       3.480   6.288  17.556  0.00  0.00    +0.000 A 
ENDBRANCH   2   5
BRANCH   1  24
ATOM     19  C   UNL     1       0.307  10.966  18.590  0.00  0.00    +0.000 A 
ATOM     20  C   UNL     1       0.047  12.345  18.637  0.00  0.00    +0.000 A 
ATOM     21  C   UNL     1       1.086  13.257  18.484  0.00  0.00    +0.000 A 
ATOM     22  C   UNL     1       2.383  12.787  18.316  0.00  0.00    +0.000 A 
ATOM     23  C   UNL     1       2.625  11.418  18.163  0.00  0.00    +0.000 A 
ATOM     24  C   UNL     1       1.578  10.490  18.216  0.00  0.00    +0.000 A 
BRANCH  19  26
ATOM     25  N   UNL     1      -1.906   9.910  18.204  0.00  0.00    +0.000 N 
ATOM     26  C   UNL     1      -0.808  10.086  19.011  0.00  0.00    +0.000 C 
ATOM     27  O   UNL     1      -0.712   9.437  20.077  0.00  0.00    +0.000 OA
ATOM     28  H   UNL     1      -2.562   9.239  18.575  0.00  0.00    +0.000 HD
BRANCH  25  29
ATOM     29  C   UNL     1      -2.299  10.613  17.001  0.00  0.00    +0.000 C 
BRANCH  29  31
ATOM     30  C   UNL     1      -3.062  10.095  14.698  0.00  0.00    +0.000 C 
ATOM     31  C   UNL     1      -2.791   9.691  15.944  0.00  0.00    +0.000 C 
ENDBRANCH  29  31
ENDBRANCH  25  29
ENDBRANCH  19  26
ENDBRANCH   1  24
TORSDOF 5
ENDMDL
MODEL 2
REMARK VINA RESULT:      -8.6      1.977      3.843
REMARK  Name = 
REMARK  5 active torsions:
REMARK  status: ('A' for Active; 'I' for Inactive)
REMARK    1  A    between atoms: C_2  and  C_3
REMARK    2  A    between atoms: C_3  and  N_4
REMARK    3  A    between atoms: C_5  and  C_7
REMARK    4  A    between atoms: C_12  and  N_13
REMARK    5  A    between atoms: C_14  and  C_16
REMARK                            x       y       z     vdW  Elec       q    Type
REMARK                         _______ _______ _______ _____ _____    ______ ____
ROOT
ATOM      1  N   UNL     1       1.916   7.942  20.782  0.00  0.00    +0.000 N 
ATOM      2  C   UNL     1       1.621   6.604  20.600  0.00  0.00    +0.000 C 
ATOM      3  O   UNL     1       0.500   6.125  20.719  0.00  0.00    +0.000 OA
ATOM      4  H   UNL     1       2.884   8.211  20.701  0.00  0.00    +0.000 HD
ENDROOT
BRANCH   2   5
ATOM      5  C   UNL     1       2.788   5.705  20.189  0.00  0.00    +0.000 C 
ATOM      6  C   UNL     1       3.698   6.153  19.029  0.00  0.00    +0.000 A 
ATOM      7  C   UNL     1       3.426   6.908  17.892  0.00  0.00    +0.000 A 
ATOM      8  C   UNL     1       4.405   7.043  16.889  0.00  0.00    +0.000 A 
ATOM      9  C   UNL     1       5.706   6.535  17.064  0.00  0.00    +0.000 A 
ATOM     10  C   UNL     1       5.951   5.705  18.135  0.00  0.00    +0.000 A 
ATOM     11  C   UNL     1       4.869   5.383  18.941  0.00  0.00    +0.000 A 
ATOM     12  O   UNL     1       4.739   4.017  19.211  0.00  0.00    +0.000 OA
ATOM     13  C   UNL     1       3.426   3.569  19.157  0.00  0.00    +0.000 A 
ATOM     14  C   UNL     1       3.057   2.529  18.319  0.00  0.00    +0.000 A 
ATOM     15  C   UNL     1       1.776   2.003  18.442  0.00  0.00    +0.000 A 
ATOM     16  C   UNL     1       0.932   2.454  19.463  0.00  0.00    +0.000 A 
ATOM     17  C   UNL     1       1.262   3.593  20.195  0.00  0.00    +0.000 A 
ATOM     18  C   UNL     1       2.454   4.247  19.908  0.00  0.00    +0.000 A 
ENDBRANCH   2   5
BRANCH   1  24
ATOM     19  C   UNL     1       0.694   9.980  20.157  0.00  0.00    +0.000 A 
ATOM     20  C   UNL     1       0.016  11.152  20.531  0.00  0.00    +0.000 A 
ATOM     21  C   UNL     1      -0.500  11.280  21.816  0.00  0.00    +0.000 A 
ATOM     22  C   UNL     1      -0.363  10.227  22.712  0.00  0.00    +0.000 A 
ATOM     23  C   UNL     1       0.402   9.106  22.373  0.00  0.00    +0.000 A 
ATOM     24  C   UNL     1       1.013   9.001  21.118  0.00  0.00    +0.000 A 
BRANCH  19  26
ATOM     25  N   UNL     1      -0.037   9.861  17.788  0.00  0.00    +0.000 N 
ATOM     26  C   UNL     1       0.981   9.835  18.711  0.00  0.00    +0.000 C 
ATOM     27  O   UNL     1       2.168   9.764  18.322  0.00  0.00    +0.000 OA
ATOM     28  H   UNL     1       0.295   9.817  16.836  0.00  0.00    +0.000 HD
BRANCH  25  29
ATOM     29  C   UNL     1      -1.472   9.824  17.984  0.00  0.00    +0.000 C 
BRANCH  29  31
ATOM     30  C   UNL     1      -2.767   9.971  15.873  0.00  0.00    +0.000 C 
ATOM     31  C   UNL     1      -2.204  10.571  16.928  0.00  0.00    +0.000 C 
ENDBRANCH  29  31
ENDBRANCH  25  29
ENDBRANCH  19  26
ENDBRANCH   1  24
TORSDOF 5
ENDMDL
MODEL 3
REMARK VINA RESULT:      -8.4      1.448      2.353
REMARK  Name = 
REMARK  5 active torsions:
REMARK  status: ('A' for Active; 'I' for Inactive)
REMARK    1  A    between atoms: C_2  and  C_3
REMARK    2  A    between atoms: C_3  and  N_4
REMARK    3  A    between atoms: C_5  and  C_7
REMARK    4  A    between atoms: C_12  and  N_13
REMARK    5  A    between atoms: C_14  and  C_16
REMARK                            x       y       z     vdW  Elec       q    Type
REMARK                         _______ _______ _______ _____ _____    ______ ____
ROOT
ATOM      1  N   UNL     1       1.802   9.083  17.914  0.00  0.00    +0.000 N 
ATOM      2  C   UNL     1       2.099   8.056  18.790  0.00  0.00    +0.000 C 
ATOM      3  O   UNL     1       2.241   8.202  19.998  0.00  0.00    +0.000 OA
ATOM      4  H   UNL     1       1.753   8.849  16.936  0.00  0.00    +0.000 HD
ENDROOT
BRANCH   2   5
ATOM      5  C   UNL     1       2.216   6.660  18.178  0.00  0.00    +0.000 C 
ATOM      6  C   UNL     1       1.765   5.443  19.010  0.00  0.00    +0.000 A 
ATOM      7  C   UNL     1       1.776   5.221  20.384  0.00  0.00    +0.000 A 
ATOM      8  C   UNL     1       1.458   3.947  20.891  0.00  0.00    +0.000 A 
ATOM      9  C   UNL     1       1.005   2.916  20.045  0.00  0.00    +0.000 A 
ATOM     10  C   UNL     1       1.088   3.096  18.683  0.00  0.00    +0.000 A 
ATOM     11  C   UNL     1       1.672   4.274  18.239  0.00  0.00    +0.000 A 
ATOM     12  O   UNL     1       2.650   4.096  17.255  0.00  0.00    +0.000 OA
ATOM     13  C   UNL     1       3.764   4.903  17.436  0.00  0.00    +0.000 A 
ATOM     14  C   UNL     1       5.035   4.359  17.534  0.00  0.00    +0.000 A 
ATOM     15  C   UNL     1       6.126   5.221  17.528  0.00  0.00    +0.000 A 
ATOM     16  C   UNL     1       5.932   6.591  17.321  0.00  0.00    +0.000 A 
ATOM     17  C   UNL     1       4.648   7.133  17.373  0.00  0.00    +0.000 A 
ATOM     18  C   UNL     1       3.574   6.283  17.605  0.00  0.00    +0.000 A 
ENDBRANCH   2   5
BRANCH   1  24
ATOM     19  C   UNL     1       0.344  10.889  18.721  0.00  0.00    +0.000 A 
ATOM     20  C   UNL     1       0.033  12.257  18.797  0.00  0.00    +0.000 A 
ATOM     21  C   UNL     1       1.013  13.210  18.545  0.00  0.00    +0.000 A 
ATOM     22  C   UNL     1       2.306  12.795  18.250  0.00  0.00    +0.000 A 
ATOM     23  C   UNL     1       2.588  11.436  18.071  0.00  0.00    +0.000 A 
ATOM     24  C   UNL     1       1.591  10.465  18.224  0.00  0.00    +0.000 A 
BRANCH  19  26
ATOM     25  N   UNL     1      -0.756   9.683  20.591  0.00  0.00    +0.000 N 
ATOM     26  C   UNL     1      -0.687   9.964  19.247  0.00  0.00    +0.000 C 
ATOM     27  O   UNL     1      -1.549   9.496  18.471  0.00  0.00    +0.000 OA
ATOM     28  H   UNL     1      -1.539   9.092  20.829  0.00  0.00    +0.000 HD
BRANCH  25  29
ATOM     29  C   UNL     1       0.169  10.004  21.658  0.00  0.00    +0.000 C 
BRANCH  29  31
ATOM     30  C   UNL     1      -1.473  11.568  22.664  0.00  0.00    +0.000 C 
ATOM     31  C   UNL     1      -0.505  10.657  22.811  0.00  0.00    +0.000 C 
ENDBRANCH  29  31
ENDBRANCH  25  29
ENDBRANCH  19  26
ENDBRANCH   1  24
TORSDOF 5
ENDMDL
MODEL 4
REMARK VINA RESULT:      -8.3      2.337      4.382
REMARK  Name = 
REMARK  5 active torsions:
REMARK  status: ('A' for Active; 'I' for Inactive)
REMARK    1  A    between atoms: C_2  and  C_3
REMARK    2  A    between atoms: C_3  and  N_4
REMARK    3  A    between atoms: C_5  and  C_7
REMARK    4  A    between atoms: C_12  and  N_13
REMARK    5  A    between atoms: C_14  and  C_16
REMARK                            x       y       z     vdW  Elec       q    Type
REMARK                         _______ _______ _______ _____ _____    ______ ____
ROOT
ATOM      1  N   UNL     1       2.039   8.246  19.757  0.00  0.00    +0.000 N 
ATOM      2  C   UNL     1       2.317   7.274  18.815  0.00  0.00    +0.000 C 
ATOM      3  O   UNL     1       1.839   7.252  17.688  0.00  0.00    +0.000 OA
ATOM      4  H   UNL     1       2.458   8.134  20.666  0.00  0.00    +0.000 HD
ENDROOT
BRANCH   2   5
ATOM      5  C   UNL     1       3.317   6.195  19.233  0.00  0.00    +0.000 C 
ATOM      6  C   UNL     1       4.451   5.817  18.260  0.00  0.00    +0.000 A 
ATOM      7  C   UNL     1       4.500   5.814  16.869  0.00  0.00    +0.000 A 
ATOM      8  C   UNL     1       5.614   5.262  16.208  0.00  0.00    +0.000 A 
ATOM      9  C   UNL     1       6.744   4.822  16.923  0.00  0.00    +0.000 A 
ATOM     10  C   UNL     1       6.663   4.728  18.294  0.00  0.00    +0.000 A 
ATOM     11  C   UNL     1       5.437   5.026  18.872  0.00  0.00    +0.000 A 
ATOM     12  O   UNL     1       4.990   4.074  19.795  0.00  0.00    +0.000 OA
ATOM     13  C   UNL     1       3.634   3.802  19.689  0.00  0.00    +0.000 A 
ATOM     14  C   UNL     1       3.175   2.511  19.482  0.00  0.00    +0.000 A 
ATOM     15  C   UNL     1       1.808   2.272  19.570  0.00  0.00    +0.000 A 
ATOM     16  C   UNL     1       0.944   3.300  19.962  0.00  0.00    +0.000 A 
ATOM     17  C   UNL     1       1.400   4.616  20.021  0.00  0.00    +0.000 A 
ATOM     18  C   UNL     1       2.729   4.876  19.710  0.00  0.00    +0.000 A 
ENDBRANCH   2   5
BRANCH   1  24
ATOM     19  C   UNL     1      -0.021   9.454  20.337  0.00  0.00    +0.000 A 
ATOM     20  C   UNL     1      -0.982  10.431  20.032  0.00  0.00    +0.000 A 
ATOM     21  C   UNL     1      -0.683  11.447  19.131  0.00  0.00    +0.000 A 
ATOM     22  C   UNL     1       0.584  11.502  18.564  0.00  0.00    +0.000 A 
ATOM     23  C   UNL     1       1.503  10.472  18.787  0.00  0.00    +0.000 A 
ATOM     24  C   UNL     1       1.185   9.387  19.614  0.00  0.00    +0.000 A 
BRANCH  19  26
ATOM     25  N   UNL     1      -0.591   9.101  22.727  0.00  0.00    +0.000 N 
ATOM     26  C   UNL     1      -0.340   8.572  21.484  0.00  0.00    +0.000 C 
ATOM     27  O   UNL     1      -0.457   7.340  21.300  0.00  0.00    +0.000 OA
ATOM     28  H   UNL     1      -0.858   8.402  23.405  0.00  0.00    +0.000 HD
BRANCH  25  29
ATOM     29  C   UNL     1      -0.419  10.454  23.215  0.00  0.00    +0.000 C 
BRANCH  29  31
ATOM     30  C   UNL     1      -1.735  12.550  23.060  0.00  0.00    +0.000 C 
ATOM     31  C   UNL     1      -1.691  11.222  23.209  0.00  0.00    +0.000 C 
ENDBRANCH  29  31
ENDBRANCH  25  29
ENDBRANCH  19  26
ENDBRANCH   1  24
TORSDOF 5
ENDMDL
MODEL 5
REMARK VINA RESULT:      -8.1      2.341      4.519
REMARK  Name = 
REMARK  5 active torsions:
REMARK  status: ('A' for Active; 'I' for Inactive)
REMARK    1  A    between atoms: C_2  and  C_3
REMARK    2  A    between atoms: C_3  and  N_4
REMARK    3  A    between atoms: C_5  and  C_7
REMARK    4  A    between atoms: C_12  and  N_13
REMARK    5  A    between atoms: C_14  and  C_16
REMARK                            x       y       z     vdW  Elec       q    Type
REMARK                         _______ _______ _______ _____ _____    ______ ____
ROOT
ATOM      1  N   UNL     1       2.167   7.611  20.624  0.00  0.00    +0.000 N 
ATOM      2  C   UNL     1       1.993   6.259  20.393  0.00  0.00    +0.000 C 
ATOM      3  O   UNL     1       0.912   5.686  20.442  0.00  0.00    +0.000 OA
ATOM      4  H   UNL     1       3.112   7.960  20.599  0.00  0.00    +0.000 HD
ENDROOT
BRANCH   2   5
ATOM      5  C   UNL     1       3.250   5.470  20.022  0.00  0.00    +0.000 C 
ATOM      6  C   UNL     1       4.130   5.978  18.862  0.00  0.00    +0.000 A 
ATOM      7  C   UNL     1       3.801   6.674  17.703  0.00  0.00    +0.000 A 
ATOM      8  C   UNL     1       4.778   6.881  16.710  0.00  0.00    +0.000 A 
ATOM      9  C   UNL     1       6.120   6.509  16.915  0.00  0.00    +0.000 A 
ATOM     10  C   UNL     1       6.430   5.733  18.010  0.00  0.00    +0.000 A 
ATOM     11  C   UNL     1       5.372   5.326  18.810  0.00  0.00    +0.000 A 
ATOM     12  O   UNL     1       5.373   3.960  19.113  0.00  0.00    +0.000 OA
ATOM     13  C   UNL     1       4.112   3.384  19.054  0.00  0.00    +0.000 A 
ATOM     14  C   UNL     1       3.860   2.292  18.238  0.00  0.00    +0.000 A 
ATOM     15  C   UNL     1       2.636   1.645  18.358  0.00  0.00    +0.000 A 
ATOM     16  C   UNL     1       1.736   2.034  19.355  0.00  0.00    +0.000 A 
ATOM     17  C   UNL     1       1.940   3.218  20.062  0.00  0.00    +0.000 A 
ATOM     18  C   UNL     1       3.065   3.980  19.774  0.00  0.00    +0.000 A 
ENDBRANCH   2   5
BRANCH   1  24
ATOM     19  C   UNL     1       0.884   9.620  20.029  0.00  0.00    +0.000 A 
ATOM     20  C   UNL     1       0.092  10.714  20.415  0.00  0.00    +0.000 A 
ATOM     21  C   UNL     1      -0.566  10.701  21.639  0.00  0.00    +0.000 A 
ATOM     22  C   UNL     1      -0.456   9.584  22.459  0.00  0.00    +0.000 A 
ATOM     23  C   UNL     1       0.415   8.543  22.121  0.00  0.00    +0.000 A 
ATOM     24  C   UNL     1       1.163   8.582  20.938  0.00  0.00    +0.000 A 
BRANCH  19  26
ATOM     25  N   UNL     1       1.845  10.755  18.041  0.00  0.00    +0.000 N 
ATOM     26  C   UNL     1       1.334   9.617  18.617  0.00  0.00    +0.000 C 
ATOM     27  O   UNL     1       1.319   8.547  17.967  0.00  0.00    +0.000 OA
ATOM     28  H   UNL     1       2.174  10.605  17.099  0.00  0.00    +0.000 HD
BRANCH  25  29
ATOM     29  C   UNL     1       1.870  12.117  18.534  0.00  0.00    +0.000 C 
BRANCH  29  31
ATOM     30  C   UNL     1       3.363  14.095  18.436  0.00  0.00    +0.000 C 
ATOM     31  C   UNL     1       2.984  12.908  17.950  0.00  0.00    +0.000 C 
ENDBRANCH  29  31
ENDBRANCH  25  29
ENDBRANCH  19  26
ENDBRANCH   1  24
TORSDOF 5
ENDMDL
MODEL 6
REMARK VINA RESULT:      -8.0      1.798      2.361
REMARK  Name = 
REMARK  5 active torsions:
REMARK  status: ('A' for Active; 'I' for Inactive)
REMARK    1  A    between atoms: C_2  and  C_3
REMARK    2  A    between atoms: C_3  and  N_4
REMARK    3  A    between atoms: C_5  and  C_7
REMARK    4  A    between atoms: C_12  and  N_13
REMARK    5  A    between atoms: C_14  and  C_16
REMARK                            x       y       z     vdW  Elec       q    Type
REMARK                         _______ _______ _______ _____ _____    ______ ____
ROOT
ATOM      1  N   UNL     1       0.310   8.402  20.156  0.00  0.00    +0.000 N 
ATOM      2  C   UNL     1       1.463   7.645  20.255  0.00  0.00    +0.000 C 
ATOM      3  O   UNL     1       2.402   7.918  20.992  0.00  0.00    +0.000 OA
ATOM      4  H   UNL     1      -0.376   8.101  19.482  0.00  0.00    +0.000 HD
ENDROOT
BRANCH   2   5
ATOM      5  C   UNL     1       1.514   6.377  19.403  0.00  0.00    +0.000 C 
ATOM      6  C   UNL     1       1.603   5.010  20.110  0.00  0.00    +0.000 A 
ATOM      7  C   UNL     1       2.193   4.641  21.316  0.00  0.00    +0.000 A 
ATOM      8  C   UNL     1       2.280   3.280  21.666  0.00  0.00    +0.000 A 
ATOM      9  C   UNL     1       1.671   2.283  20.880  0.00  0.00    +0.000 A 
ATOM     10  C   UNL     1       1.178   2.627  19.642  0.00  0.00    +0.000 A 
ATOM     11  C   UNL     1       1.370   3.939  19.232  0.00  0.00    +0.000 A 
ATOM     12  O   UNL     1       1.887   4.068  17.939  0.00  0.00    +0.000 OA
ATOM     13  C   UNL     1       2.859   5.052  17.832  0.00  0.00    +0.000 A 
ATOM     14  C   UNL     1       4.124   4.760  17.348  0.00  0.00    +0.000 A 
ATOM     15  C   UNL     1       4.994   5.814  17.090  0.00  0.00    +0.000 A 
ATOM     16  C   UNL     1       4.548   7.133  17.221  0.00  0.00    +0.000 A 
ATOM     17  C   UNL     1       3.332   7.405  17.846  0.00  0.00    +0.000 A 
ATOM     18  C   UNL     1       2.567   6.340  18.306  0.00  0.00    +0.000 A 
ENDBRANCH   2   5
BRANCH   1  24
ATOM     19  C   UNL     1       0.247  10.854  20.292  0.00  0.00    +0.000 A 
ATOM     20  C   UNL     1       0.166  12.026  21.062  0.00  0.00    +0.000 A 
ATOM     21  C   UNL     1      -0.342  11.977  22.356  0.00  0.00    +0.000 A 
ATOM     22  C   UNL     1      -0.796  10.765  22.863  0.00  0.00    +0.000 A 
ATOM     23  C   UNL     1      -0.618   9.584  22.136  0.00  0.00    +0.000 A 
ATOM     24  C   UNL     1      -0.018   9.598  20.871  0.00  0.00    +0.000 A 
BRANCH  19  26
ATOM     25  N   UNL     1      -0.397  11.510  17.986  0.00  0.00    +0.000 N 
ATOM     26  C   UNL     1       0.560  11.047  18.857  0.00  0.00    +0.000 C 
ATOM     27  O   UNL     1       1.728  10.859  18.450  0.00  0.00    +0.000 OA
ATOM     28  H   UNL     1      -0.041  11.659  17.054  0.00  0.00    +0.000 HD
BRANCH  25  29
ATOM     29  C   UNL     1      -1.820  11.695  18.180  0.00  0.00    +0.000 C 
BRANCH  29  31
ATOM     30  C   UNL     1      -2.560   9.832  16.720  0.00  0.00    +0.000 C 
ATOM     31  C   UNL     1      -2.593  10.457  17.902  0.00  0.00    +0.000 C 
ENDBRANCH  29  31
ENDBRANCH  25  29
ENDBRANCH  19  26
ENDBRANCH   1  24
TORSDOF 5
ENDMDL
MODEL 7
REMARK VINA RESULT:      -8.0      1.935      7.381
REMARK  Name = 
REMARK  5 active torsions:
REMARK  status: ('A' for Active; 'I' for Inactive)
REMARK    1  A    between atoms: C_2  and  C_3
REMARK    2  A    between atoms: C_3  and  N_4
REMARK    3  A    between atoms: C_5  and  C_7
REMARK    4  A    between atoms: C_12  and  N_13
REMARK    5  A    between atoms: C_14  and  C_16
REMARK                            x       y       z     vdW  Elec       q    Type
REMARK                         _______ _______ _______ _____ _____    ______ ____
ROOT
ATOM      1  N   UNL     1       2.242   7.508  18.328  0.00  0.00    +0.000 N 
ATOM      2  C   UNL     1       2.111   8.858  18.057  0.00  0.00    +0.000 C 
ATOM      3  O   UNL     1       2.893   9.500  17.368  0.00  0.00    +0.000 OA
ATOM      4  H   UNL     1       1.560   7.098  18.945  0.00  0.00    +0.000 HD
ENDROOT
BRANCH   2   5
ATOM      5  C   UNL     1       0.878   9.547  18.644  0.00  0.00    +0.000 C 
ATOM      6  C   UNL     1       0.743  11.075  18.500  0.00  0.00    +0.000 A 
ATOM      7  C   UNL     1       1.707  12.078  18.445  0.00  0.00    +0.000 A 
ATOM      8  C   UNL     1       1.316  13.430  18.476  0.00  0.00    +0.000 A 
ATOM      9  C   UNL     1      -0.042  13.798  18.435  0.00  0.00    +0.000 A 
ATOM     10  C   UNL     1      -0.997  12.819  18.592  0.00  0.00    +0.000 A 
ATOM     11  C   UNL     1      -0.542  11.531  18.836  0.00  0.00    +0.000 A 
ATOM     12  O   UNL     1      -1.169  10.894  19.912  0.00  0.00    +0.000 OA
ATOM     13  C   UNL     1      -0.291  10.175  20.711  0.00  0.00    +0.000 A 
ATOM     14  C   UNL     1      -0.192  10.423  22.071  0.00  0.00    +0.000 A 
ATOM     15  C   UNL     1       0.563   9.553  22.849  0.00  0.00    +0.000 A 
ATOM     16  C   UNL     1       1.114   8.402  22.275  0.00  0.00    +0.000 A 
ATOM     17  C   UNL     1       1.129   8.248  20.889  0.00  0.00    +0.000 A 
ATOM     18  C   UNL     1       0.563   9.243  20.102  0.00  0.00    +0.000 A 
ENDBRANCH   2   5
BRANCH   1  24
ATOM     19  C   UNL     1       3.091   5.226  17.997  0.00  0.00    +0.000 A 
ATOM     20  C   UNL     1       4.168   4.350  17.784  0.00  0.00    +0.000 A 
ATOM     21  C   UNL     1       5.370   4.832  17.277  0.00  0.00    +0.000 A 
ATOM     22  C   UNL     1       5.481   6.179  16.955  0.00  0.00    +0.000 A 
ATOM     23  C   UNL     1       4.446   7.067  17.265  0.00  0.00    +0.000 A 
ATOM     24  C   UNL     1       3.264   6.617  17.867  0.00  0.00    +0.000 A 
BRANCH  19  26
ATOM     25  N   UNL     1       1.323   4.513  19.587  0.00  0.00    +0.000 N 
ATOM     26  C   UNL     1       1.789   4.586  18.296  0.00  0.00    +0.000 C 
ATOM     27  O   UNL     1       1.073   4.176  17.355  0.00  0.00    +0.000 OA
ATOM     28  H   UNL     1       0.399   4.113  19.649  0.00  0.00    +0.000 HD
BRANCH  25  29
ATOM     29  C   UNL     1       1.994   4.809  20.836  0.00  0.00    +0.000 C 
BRANCH  29  31
ATOM     30  C   UNL     1       1.467   2.511  21.609  0.00  0.00    +0.000 C 
ATOM     31  C   UNL     1       2.264   3.585  21.634  0.00  0.00    +0.000 C 
ENDBRANCH  29  31
ENDBRANCH  25  29
ENDBRANCH  19  26
ENDBRANCH   1  24
TORSDOF 5
ENDMDL
MODEL 8
REMARK VINA RESULT:      -7.8      1.807      3.050
REMARK  Name = 
REMARK  5 active torsions:
REMARK  status: ('A' for Active; 'I' for Inactive)
REMARK    1  A    between atoms: C_2  and  C_3
REMARK    2  A    between atoms: C_3  and  N_4
REMARK    3  A    between atoms: C_5  and  C_7
REMARK    4  A    between atoms: C_12  and  N_13
REMARK    5  A    between atoms: C_14  and  C_16
REMARK                            x       y       z     vdW  Elec       q    Type
REMARK                         _______ _______ _______ _____ _____    ______ ____
ROOT
ATOM      1  N   UNL     1       0.107   8.132  20.329  0.00  0.00    +0.000 N 
ATOM      2  C   UNL     1       1.372   7.593  20.185  0.00  0.00    +0.000 C 
ATOM      3  O   UNL     1       2.381   8.061  20.698  0.00  0.00    +0.000 OA
ATOM      4  H   UNL     1      -0.640   7.685  19.822  0.00  0.00    +0.000 HD
ENDROOT
BRANCH   2   5
ATOM      5  C   UNL     1       1.469   6.313  19.354  0.00  0.00    +0.000 C 
ATOM      6  C   UNL     1       1.596   4.961  20.085  0.00  0.00    +0.000 A 
ATOM      7  C   UNL     1       2.186   4.631  21.301  0.00  0.00    +0.000 A 
ATOM      8  C   UNL     1       2.313   3.279  21.674  0.00  0.00    +0.000 A 
ATOM      9  C   UNL     1       1.742   2.251  20.901  0.00  0.00    +0.000 A 
ATOM     10  C   UNL     1       1.249   2.559  19.653  0.00  0.00    +0.000 A 
ATOM     11  C   UNL     1       1.403   3.869  19.223  0.00  0.00    +0.000 A 
ATOM     12  O   UNL     1       1.926   3.993  17.932  0.00  0.00    +0.000 OA
ATOM     13  C   UNL     1       2.868   5.005  17.816  0.00  0.00    +0.000 A 
ATOM     14  C   UNL     1       4.146   4.745  17.346  0.00  0.00    +0.000 A 
ATOM     15  C   UNL     1       4.984   5.821  17.078  0.00  0.00    +0.000 A 
ATOM     16  C   UNL     1       4.497   7.128  17.184  0.00  0.00    +0.000 A 
ATOM     17  C   UNL     1       3.268   7.372  17.795  0.00  0.00    +0.000 A 
ATOM     18  C   UNL     1       2.532   6.291  18.266  0.00  0.00    +0.000 A 
ENDBRANCH   2   5
BRANCH   1  24
ATOM     19  C   UNL     1      -0.475  10.517  20.432  0.00  0.00    +0.000 A 
ATOM     20  C   UNL     1      -0.604  11.705  21.171  0.00  0.00    +0.000 A 
ATOM     21  C   UNL     1      -0.704  11.657  22.557  0.00  0.00    +0.000 A 
ATOM     22  C   UNL     1      -0.708  10.424  23.197  0.00  0.00    +0.000 A 
ATOM     23  C   UNL     1      -0.475   9.251  22.471  0.00  0.00    +0.000 A 
ATOM     24  C   UNL     1      -0.273   9.287  21.086  0.00  0.00    +0.000 A 
BRANCH  19  26
ATOM     25  N   UNL     1       0.473  10.779  18.153  0.00  0.00    +0.000 N 
ATOM     26  C   UNL     1      -0.629  10.651  18.965  0.00  0.00    +0.000 C 
ATOM     27  O   UNL     1      -1.768  10.569  18.454  0.00  0.00    +0.000 OA
ATOM     28  H   UNL     1       0.238  10.797  17.172  0.00  0.00    +0.000 HD
BRANCH  25  29
ATOM     29  C   UNL     1       1.862  11.004  18.498  0.00  0.00    +0.000 C 
BRANCH  29  31
ATOM     30  C   UNL     1       1.707  13.470  18.721  0.00  0.00    +0.000 C 
ATOM     31  C   UNL     1       2.300  12.391  18.197  0.00  0.00    +0.000 C 
ENDBRANCH  29  31
ENDBRANCH  25  29
ENDBRANCH  19  26
ENDBRANCH   1  24
TORSDOF 5
ENDMDL
MODEL 9
REMARK VINA RESULT:      -7.8      2.197      7.217
REMARK  Name = 
REMARK  5 active torsions:
REMARK  status: ('A' for Active; 'I' for Inactive)
REMARK    1  A    between atoms: C_2  and  C_3
REMARK    2  A    between atoms: C_3  and  N_4
REMARK    3  A    between atoms: C_5  and  C_7
REMARK    4  A    between atoms: C_12  and  N_13
REMARK    5  A    between atoms: C_14  and  C_16
REMARK                            x       y       z     vdW  Elec       q    Type
REMARK                         _______ _______ _______ _____ _____    ______ ____
ROOT
ATOM      1  N   UNL     1       1.564   8.608  19.046  0.00  0.00    +0.000 N 
ATOM      2  C   UNL     1       1.452   9.857  18.464  0.00  0.00    +0.000 C 
ATOM      3  O   UNL     1       2.168  10.259  17.556  0.00  0.00    +0.000 OA
ATOM      4  H   UNL     1       0.947   8.406  19.817  0.00  0.00    +0.000 HD
ENDROOT
BRANCH   2   5
ATOM      5  C   UNL     1       0.327  10.749  18.992  0.00  0.00    +0.000 C 
ATOM      6  C   UNL     1      -0.056  10.657  20.483  0.00  0.00    +0.000 A 
ATOM      7  C   UNL     1      -0.013   9.589  21.374  0.00  0.00    +0.000 A 
ATOM      8  C   UNL     1      -0.579   9.723  22.656  0.00  0.00    +0.000 A 
ATOM      9  C   UNL     1      -1.080  10.958  23.108  0.00  0.00    +0.000 A 
ATOM     10  C   UNL     1      -1.218  11.986  22.203  0.00  0.00    +0.000 A 
ATOM     11  C   UNL     1      -0.899  11.707  20.882  0.00  0.00    +0.000 A 
ATOM     12  O   UNL     1      -1.866  12.117  19.958  0.00  0.00    +0.000 OA
ATOM     13  C   UNL     1      -2.089  11.190  18.949  0.00  0.00    +0.000 A 
ATOM     14  C   UNL     1      -3.356  10.686  18.706  0.00  0.00    +0.000 A 
ATOM     15  C   UNL     1      -3.553   9.907  17.572  0.00  0.00    +0.000 A 
ATOM     16  C   UNL     1      -2.510   9.736  16.654  0.00  0.00    +0.000 A 
ATOM     17  C   UNL     1      -1.213  10.123  16.986  0.00  0.00    +0.000 A 
ATOM     18  C   UNL     1      -0.988  10.704  18.228  0.00  0.00    +0.000 A 
ENDBRANCH   2   5
BRANCH   1  24
ATOM     19  C   UNL     1       2.596   6.435  19.544  0.00  0.00    +0.000 A 
ATOM     20  C   UNL     1       3.656   5.527  19.380  0.00  0.00    +0.000 A 
ATOM     21  C   UNL     1       4.510   5.642  18.289  0.00  0.00    +0.000 A 
ATOM     22  C   UNL     1       4.284   6.641  17.350  0.00  0.00    +0.000 A 
ATOM     23  C   UNL     1       3.295   7.606  17.570  0.00  0.00    +0.000 A 
ATOM     24  C   UNL     1       2.488   7.566  18.714  0.00  0.00    +0.000 A 
BRANCH  19  26
ATOM     25  N   UNL     1       1.051   4.824  20.632  0.00  0.00    +0.000 N 
ATOM     26  C   UNL     1       1.602   6.083  20.585  0.00  0.00    +0.000 C 
ATOM     27  O   UNL     1       1.320   6.916  21.475  0.00  0.00    +0.000 OA
ATOM     28  H   UNL     1       0.439   4.693  21.423  0.00  0.00    +0.000 HD
BRANCH  25  29
ATOM     29  C   UNL     1       1.129   3.738  19.676  0.00  0.00    +0.000 C 
BRANCH  29  31
ATOM     30  C   UNL     1       2.250   2.482  21.497  0.00  0.00    +0.000 C 
ATOM     31  C   UNL     1       1.753   2.521  20.256  0.00  0.00    +0.000 C 
ENDBRANCH  29  31
ENDBRANCH  25  29
ENDBRANCH  19  26
ENDBRANCH   1  24
TORSDOF 5
ENDMDL
