MODEL 1
REMARK VINA RESULT:      -8.0      0.000      0.000
REMARK  Name = 
REMARK  6 active torsions:
REMARK  status: ('A' for Active; 'I' for Inactive)
REMARK    1  A    between atoms: C_1  and  C_2
REMARK    2  A    between atoms: C_6  and  C_7
REMARK    3  A    between atoms: C_7  and  C_8
REMARK    4  A    between atoms: C_8  and  O_9
REMARK    5  A    between atoms: C_13  and  C_15
REMARK    6  A    between atoms: C_20  and  C_21
REMARK                            x       y       z     vdW  Elec       q    Type
REMARK                         _______ _______ _______ _____ _____    ______ ____
ROOT
ATOM      1  C   UNL     1      -3.348  11.190  17.889  0.00  0.00    +0.000 C 
ATOM      2  C   UNL     1      -2.608   9.853  17.706  0.00  0.00    +0.000 C 
ATOM      3  C   UNL     1      -1.144  10.062  17.336  0.00  0.00    +0.000 C 
ATOM      4  N   UNL     1      -0.467  10.879  18.332  0.00  0.00    +0.000 N 
ATOM      5  C   UNL     1       0.716  10.592  19.009  0.00  0.00    +0.000 C 
ATOM      6  O   UNL     1       1.210  11.442  19.754  0.00  0.00    +0.000 OA
ATOM      7  C   UNL     1      -1.104  12.181  18.566  0.00  0.00    +0.000 C 
ATOM      8  C   UNL     1      -2.586  12.025  18.938  0.00  0.00    +0.000 C 
ENDROOT
BRANCH   5   9
ATOM      9  C   UNL     1       1.354   9.281  18.974  0.00  0.00    +0.000 A 
ATOM     10  C   UNL     1       2.138   8.522  18.116  0.00  0.00    +0.000 A 
ATOM     11  C   UNL     1       2.376   7.240  18.717  0.00  0.00    +0.000 A 
ATOM     12  C   UNL     1       3.047   6.062  18.332  0.00  0.00    +0.000 A 
ATOM     13  C   UNL     1       3.025   4.946  19.193  0.00  0.00    +0.000 A 
ATOM     14  C   UNL     1       2.363   4.992  20.426  0.00  0.00    +0.000 A 
ATOM     15  C   UNL     1       2.275   3.790  21.321  0.00  0.00    +0.000 C 
ATOM     16  C   UNL     1       1.734   6.175  20.833  0.00  0.00    +0.000 A 
ATOM     17  C   UNL     1       1.758   7.265  19.961  0.00  0.00    +0.000 A 
ATOM     18  N   UNL     1       1.236   8.516  20.119  0.00  0.00    +0.000 N 
ATOM     19  H   UNL     1       0.767   8.852  20.948  0.00  0.00    +0.000 HD
ENDBRANCH   5   9
BRANCH   1  20
ATOM     20  O   UNL     1      -3.270  11.930  16.662  0.00  0.00    +0.000 OA
ATOM     21  H   UNL     1      -3.439  12.868  16.841  0.00  0.00    +0.000 HD
ENDBRANCH   1  20
BRANCH   1  22
ATOM     22  C   UNL     1      -4.830  10.977  18.325  0.00  0.00    +0.000 C 
BRANCH  22  28
ATOM     23  C   UNL     1      -7.525  14.691  16.194  0.00  0.00    +0.000 C 
ATOM     24  C   UNL     1      -6.910  14.072  17.416  0.00  0.00    +0.000 A 
ATOM     25  C   UNL     1      -7.001  14.709  18.658  0.00  0.00    +0.000 A 
ATOM     26  C   UNL     1      -6.451  14.114  19.792  0.00  0.00    +0.000 A 
ATOM     27  C   UNL     1      -5.790  12.890  19.693  0.00  0.00    +0.000 A 
ATOM     28  C   UNL     1      -5.645  12.254  18.452  0.00  0.00    +0.000 A 
ATOM     29  C   UNL     1      -6.234  12.846  17.323  0.00  0.00    +0.000 A 
ENDBRANCH  22  28
ENDBRANCH   1  22
TORSDOF 4
ENDMDL
MODEL 2
REMARK VINA RESULT:      -8.0      0.515      1.385
REMARK  Name = 
REMARK  6 active torsions:
REMARK  status: ('A' for Active; 'I' for Inactive)
REMARK    1  A    between atoms: C_1  and  C_2
REMARK    2  A    between atoms: C_6  and  C_7
REMARK    3  A    between atoms: C_7  and  C_8
REMARK    4  A    between atoms: C_8  and  O_9
REMARK    5  A    between atoms: C_13  and  C_15
REMARK    6  A    between atoms: C_20  and  C_21
REMARK                            x       y       z     vdW  Elec       q    Type
REMARK                         _______ _______ _______ _____ _____    ______ ____
ROOT
ATOM      1  C   UNL     1      -3.519  11.104  17.872  0.00  0.00    +0.000 C 
ATOM      2  C   UNL     1      -2.690   9.829  17.639  0.00  0.00    +0.000 C 
ATOM      3  C   UNL     1      -1.237  10.150  17.307  0.00  0.00    +0.000 C 
ATOM      4  N   UNL     1      -0.631  10.960  18.352  0.00  0.00    +0.000 N 
ATOM      5  C   UNL     1       0.559  10.719  19.036  0.00  0.00    +0.000 C 
ATOM      6  O   UNL     1       0.983  11.563  19.830  0.00  0.00    +0.000 OA
ATOM      7  C   UNL     1      -1.355  12.205  18.636  0.00  0.00    +0.000 C 
ATOM      8  C   UNL     1      -2.829  11.936  18.972  0.00  0.00    +0.000 C 
ENDROOT
BRANCH   5   9
ATOM      9  C   UNL     1       1.281   9.455  18.952  0.00  0.00    +0.000 A 
ATOM     10  C   UNL     1       2.163   8.809  18.095  0.00  0.00    +0.000 A 
ATOM     11  C   UNL     1       2.448   7.504  18.620  0.00  0.00    +0.000 A 
ATOM     12  C   UNL     1       3.216   6.401  18.199  0.00  0.00    +0.000 A 
ATOM     13  C   UNL     1       3.217   5.226  18.978  0.00  0.00    +0.000 A 
ATOM     14  C   UNL     1       2.482   5.142  20.166  0.00  0.00    +0.000 A 
ATOM     15  C   UNL     1       2.420   3.875  20.970  0.00  0.00    +0.000 C 
ATOM     16  C   UNL     1       1.754   6.251  20.613  0.00  0.00    +0.000 A 
ATOM     17  C   UNL     1       1.758   7.401  19.822  0.00  0.00    +0.000 A 
ATOM     18  N   UNL     1       1.147   8.604  20.032  0.00  0.00    +0.000 N 
ATOM     19  H   UNL     1       0.609   8.849  20.851  0.00  0.00    +0.000 HD
ENDBRANCH   5   9
BRANCH   1  20
ATOM     20  O   UNL     1      -3.471  11.906  16.682  0.00  0.00    +0.000 OA
ATOM     21  H   UNL     1      -3.267  12.823  16.921  0.00  0.00    +0.000 HD
ENDBRANCH   1  20
BRANCH   1  22
ATOM     22  C   UNL     1      -4.990  10.775  18.270  0.00  0.00    +0.000 C 
BRANCH  22  28
ATOM     23  C   UNL     1      -7.580  14.077  21.097  0.00  0.00    +0.000 C 
ATOM     24  C   UNL     1      -7.192  13.551  19.745  0.00  0.00    +0.000 A 
ATOM     25  C   UNL     1      -7.739  14.106  18.583  0.00  0.00    +0.000 A 
ATOM     26  C   UNL     1      -7.353  13.631  17.331  0.00  0.00    +0.000 A 
ATOM     27  C   UNL     1      -6.433  12.587  17.228  0.00  0.00    +0.000 A 
ATOM     28  C   UNL     1      -5.905  11.984  18.379  0.00  0.00    +0.000 A 
ATOM     29  C   UNL     1      -6.275  12.495  19.634  0.00  0.00    +0.000 A 
ENDBRANCH  22  28
ENDBRANCH   1  22
TORSDOF 4
ENDMDL
MODEL 3
REMARK VINA RESULT:      -7.9      0.895      1.678
REMARK  Name = 
REMARK  6 active torsions:
REMARK  status: ('A' for Active; 'I' for Inactive)
REMARK    1  A    between atoms: C_1  and  C_2
REMARK    2  A    between atoms: C_6  and  C_7
REMARK    3  A    between atoms: C_7  and  C_8
REMARK    4  A    between atoms: C_8  and  O_9
REMARK    5  A    between atoms: C_13  and  C_15
REMARK    6  A    between atoms: C_20  and  C_21
REMARK                            x       y       z     vdW  Elec       q    Type
REMARK                         _______ _______ _______ _____ _____    ______ ____
ROOT
ATOM      1  C   UNL     1      -3.507  11.132  17.826  0.00  0.00    +0.000 C 
ATOM      2  C   UNL     1      -2.703   9.826  17.712  0.00  0.00    +0.000 C 
ATOM      3  C   UNL     1      -1.223  10.093  17.458  0.00  0.00    +0.000 C 
ATOM      4  N   UNL     1      -0.661  10.941  18.498  0.00  0.00    +0.000 N 
ATOM      5  C   UNL     1       0.476  10.705  19.269  0.00  0.00    +0.000 C 
ATOM      6  O   UNL     1       0.874  11.578  20.044  0.00  0.00    +0.000 OA
ATOM      7  C   UNL     1      -1.366  12.217  18.671  0.00  0.00    +0.000 C 
ATOM      8  C   UNL     1      -2.865  12.003  18.925  0.00  0.00    +0.000 C 
ENDROOT
BRANCH   5   9
ATOM      9  C   UNL     1       1.166   9.420  19.295  0.00  0.00    +0.000 A 
ATOM     10  C   UNL     1       1.313   8.329  20.141  0.00  0.00    +0.000 A 
ATOM     11  C   UNL     1       2.220   7.394  19.538  0.00  0.00    +0.000 A 
ATOM     12  C   UNL     1       2.778   6.156  19.914  0.00  0.00    +0.000 A 
ATOM     13  C   UNL     1       3.706   5.531  19.055  0.00  0.00    +0.000 A 
ATOM     14  C   UNL     1       4.069   6.110  17.833  0.00  0.00    +0.000 A 
ATOM     15  C   UNL     1       5.105   5.490  16.942  0.00  0.00    +0.000 C 
ATOM     16  C   UNL     1       3.483   7.318  17.435  0.00  0.00    +0.000 A 
ATOM     17  C   UNL     1       2.575   7.925  18.304  0.00  0.00    +0.000 A 
ATOM     18  N   UNL     1       1.868   9.083  18.153  0.00  0.00    +0.000 N 
ATOM     19  H   UNL     1       1.879   9.670  17.332  0.00  0.00    +0.000 HD
ENDBRANCH   5   9
BRANCH   1  20
ATOM     20  O   UNL     1      -3.362  11.869  16.603  0.00  0.00    +0.000 OA
ATOM     21  H   UNL     1      -2.570  12.426  16.656  0.00  0.00    +0.000 HD
ENDBRANCH   1  20
BRANCH   1  22
ATOM     22  C   UNL     1      -5.009  10.861  18.145  0.00  0.00    +0.000 C 
BRANCH  22  28
ATOM     23  C   UNL     1      -7.416  14.881  16.235  0.00  0.00    +0.000 C 
ATOM     24  C   UNL     1      -6.978  14.077  17.424  0.00  0.00    +0.000 A 
ATOM     25  C   UNL     1      -7.259  14.517  18.722  0.00  0.00    +0.000 A 
ATOM     26  C   UNL     1      -6.872  13.751  19.820  0.00  0.00    +0.000 A 
ATOM     27  C   UNL     1      -6.186  12.550  19.634  0.00  0.00    +0.000 A 
ATOM     28  C   UNL     1      -5.853  12.111  18.344  0.00  0.00    +0.000 A 
ATOM     29  C   UNL     1      -6.279  12.874  17.245  0.00  0.00    +0.000 A 
ENDBRANCH  22  28
ENDBRANCH   1  22
TORSDOF 4
ENDMDL
MODEL 4
REMARK VINA RESULT:      -7.9      5.055     10.841
REMARK  Name = 
REMARK  6 active torsions:
REMARK  status: ('A' for Active; 'I' for Inactive)
REMARK    1  A    between atoms: C_1  and  C_2
REMARK    2  A    between atoms: C_6  and  C_7
REMARK    3  A    between atoms: C_7  and  C_8
REMARK    4  A    between atoms: C_8  and  O_9
REMARK    5  A    between atoms: C_13  and  C_15
REMARK    6  A    between atoms: C_20  and  C_21
REMARK                            x       y       z     vdW  Elec       q    Type
REMARK                         _______ _______ _______ _____ _____    ______ ____
ROOT
ATOM      1  C   UNL     1       5.381   4.515  16.867  0.00  0.00    +0.000 C 
ATOM      2  C   UNL     1       4.572   5.823  16.864  0.00  0.00    +0.000 C 
ATOM      3  C   UNL     1       3.191   5.638  17.482  0.00  0.00    +0.000 C 
ATOM      4  N   UNL     1       3.292   5.113  18.835  0.00  0.00    +0.000 N 
ATOM      5  C   UNL     1       2.712   5.624  19.994  0.00  0.00    +0.000 C 
ATOM      6  O   UNL     1       2.818   4.999  21.052  0.00  0.00    +0.000 OA
ATOM      7  C   UNL     1       4.045   3.856  18.931  0.00  0.00    +0.000 C 
ATOM      8  C   UNL     1       5.446   3.989  18.316  0.00  0.00    +0.000 C 
ENDROOT
BRANCH   5   9
ATOM      9  C   UNL     1       2.075   6.935  20.052  0.00  0.00    +0.000 A 
ATOM     10  C   UNL     1       1.991   8.092  19.288  0.00  0.00    +0.000 A 
ATOM     11  C   UNL     1       1.203   9.060  19.997  0.00  0.00    +0.000 A 
ATOM     12  C   UNL     1       0.805  10.391  19.765  0.00  0.00    +0.000 A 
ATOM     13  C   UNL     1       0.047  11.063  20.746  0.00  0.00    +0.000 A 
ATOM     14  C   UNL     1      -0.329  10.427  21.935  0.00  0.00    +0.000 A 
ATOM     15  C   UNL     1      -1.077  11.151  23.016  0.00  0.00    +0.000 C 
ATOM     16  C   UNL     1       0.025   9.089  22.150  0.00  0.00    +0.000 A 
ATOM     17  C   UNL     1       0.784   8.446  21.171  0.00  0.00    +0.000 A 
ATOM     18  N   UNL     1       1.246   7.161  21.133  0.00  0.00    +0.000 N 
ATOM     19  H   UNL     1       1.058   6.454  21.829  0.00  0.00    +0.000 HD
ENDBRANCH   5   9
BRANCH   1  20
ATOM     20  O   UNL     1       4.657   3.526  16.120  0.00  0.00    +0.000 OA
ATOM     21  H   UNL     1       5.173   2.705  16.089  0.00  0.00    +0.000 HD
ENDBRANCH   1  20
BRANCH   1  22
ATOM     22  C   UNL     1       6.815   4.718  16.290  0.00  0.00    +0.000 C 
BRANCH  22  28
ATOM     23  C   UNL     1       5.441   2.658  11.877  0.00  0.00    +0.000 C 
ATOM     24  C   UNL     1       6.272   3.645  12.644  0.00  0.00    +0.000 A 
ATOM     25  C   UNL     1       7.196   4.461  11.984  0.00  0.00    +0.000 A 
ATOM     26  C   UNL     1       7.944   5.395  12.699  0.00  0.00    +0.000 A 
ATOM     27  C   UNL     1       7.789   5.509  14.081  0.00  0.00    +0.000 A 
ATOM     28  C   UNL     1       6.902   4.671  14.772  0.00  0.00    +0.000 A 
ATOM     29  C   UNL     1       6.129   3.759  14.036  0.00  0.00    +0.000 A 
ENDBRANCH  22  28
ENDBRANCH   1  22
TORSDOF 4
ENDMDL
MODEL 5
REMARK VINA RESULT:      -7.9      1.069      2.199
REMARK  Name = 
REMARK  6 active torsions:
REMARK  status: ('A' for Active; 'I' for Inactive)
REMARK    1  A    between atoms: C_1  and  C_2
REMARK    2  A    between atoms: C_6  and  C_7
REMARK    3  A    between atoms: C_7  and  C_8
REMARK    4  A    between atoms: C_8  and  O_9
REMARK    5  A    between atoms: C_13  and  C_15
REMARK    6  A    between atoms: C_20  and  C_21
REMARK                            x       y       z     vdW  Elec       q    Type
REMARK                         _______ _______ _______ _____ _____    ______ ____
ROOT
ATOM      1  C   UNL     1      -3.650  11.064  17.799  0.00  0.00    +0.000 C 
ATOM      2  C   UNL     1      -2.791   9.796  17.658  0.00  0.00    +0.000 C 
ATOM      3  C   UNL     1      -1.315  10.129  17.469  0.00  0.00    +0.000 C 
ATOM      4  N   UNL     1      -0.823  10.952  18.562  0.00  0.00    +0.000 N 
ATOM      5  C   UNL     1       0.296  10.727  19.362  0.00  0.00    +0.000 C 
ATOM      6  O   UNL     1       0.632  11.579  20.188  0.00  0.00    +0.000 OA
ATOM      7  C   UNL     1      -1.583  12.192  18.765  0.00  0.00    +0.000 C 
ATOM      8  C   UNL     1      -3.080  11.910  18.956  0.00  0.00    +0.000 C 
ENDROOT
BRANCH   5   9
ATOM      9  C   UNL     1       1.035   9.469  19.359  0.00  0.00    +0.000 A 
ATOM     10  C   UNL     1       1.238   8.373  20.186  0.00  0.00    +0.000 A 
ATOM     11  C   UNL     1       2.171   7.482  19.556  0.00  0.00    +0.000 A 
ATOM     12  C   UNL     1       2.781   6.262  19.904  0.00  0.00    +0.000 A 
ATOM     13  C   UNL     1       3.718   5.685  19.021  0.00  0.00    +0.000 A 
ATOM     14  C   UNL     1       4.038   6.294  17.802  0.00  0.00    +0.000 A 
ATOM     15  C   UNL     1       5.082   5.727  16.885  0.00  0.00    +0.000 C 
ATOM     16  C   UNL     1       3.399   7.484  17.431  0.00  0.00    +0.000 A 
ATOM     17  C   UNL     1       2.483   8.044  18.324  0.00  0.00    +0.000 A 
ATOM     18  N   UNL     1       1.730   9.175  18.201  0.00  0.00    +0.000 N 
ATOM     19  H   UNL     1       1.705   9.773  17.388  0.00  0.00    +0.000 HD
ENDBRANCH   5   9
BRANCH   1  20
ATOM     20  O   UNL     1      -3.493  11.859  16.614  0.00  0.00    +0.000 OA
ATOM     21  H   UNL     1      -4.090  12.622  16.658  0.00  0.00    +0.000 HD
ENDBRANCH   1  20
BRANCH   1  22
ATOM     22  C   UNL     1      -5.150  10.722  18.053  0.00  0.00    +0.000 C 
BRANCH  22  28
ATOM     23  C   UNL     1      -7.916  13.707  21.060  0.00  0.00    +0.000 C 
ATOM     24  C   UNL     1      -7.427  13.345  19.687  0.00  0.00    +0.000 A 
ATOM     25  C   UNL     1      -7.869  14.054  18.566  0.00  0.00    +0.000 A 
ATOM     26  C   UNL     1      -7.388  13.730  17.298  0.00  0.00    +0.000 A 
ATOM     27  C   UNL     1      -6.478  12.685  17.137  0.00  0.00    +0.000 A 
ATOM     28  C   UNL     1      -6.055  11.931  18.241  0.00  0.00    +0.000 A 
ATOM     29  C   UNL     1      -6.519  12.289  19.517  0.00  0.00    +0.000 A 
ENDBRANCH  22  28
ENDBRANCH   1  22
TORSDOF 4
ENDMDL
MODEL 6
REMARK VINA RESULT:      -7.9      6.621      9.631
REMARK  Name = 
REMARK  6 active torsions:
REMARK  status: ('A' for Active; 'I' for Inactive)
REMARK    1  A    between atoms: C_1  and  C_2
REMARK    2  A    between atoms: C_6  and  C_7
REMARK    3  A    between atoms: C_7  and  C_8
REMARK    4  A    between atoms: C_8  and  O_9
REMARK    5  A    between atoms: C_13  and  C_15
REMARK    6  A    between atoms: C_20  and  C_21
REMARK                            x       y       z     vdW  Elec       q    Type
REMARK                         _______ _______ _______ _____ _____    ______ ____
ROOT
ATOM      1  C   UNL     1       4.359   4.287  18.874  0.00  0.00    +0.000 C 
ATOM      2  C   UNL     1       5.072   5.425  19.623  0.00  0.00    +0.000 C 
ATOM      3  C   UNL     1       6.557   5.485  19.282  0.00  0.00    +0.000 C 
ATOM      4  N   UNL     1       6.757   5.623  17.848  0.00  0.00    +0.000 N 
ATOM      5  C   UNL     1       7.525   6.576  17.182  0.00  0.00    +0.000 C 
ATOM      6  O   UNL     1       7.668   6.493  15.960  0.00  0.00    +0.000 OA
ATOM      7  C   UNL     1       6.113   4.570  17.053  0.00  0.00    +0.000 C 
ATOM      8  C   UNL     1       4.613   4.466  17.364  0.00  0.00    +0.000 C 
ENDROOT
BRANCH   5   9
ATOM      9  C   UNL     1       8.082   7.751  17.843  0.00  0.00    +0.000 A 
ATOM     10  C   UNL     1       8.781   8.066  19.000  0.00  0.00    +0.000 A 
ATOM     11  C   UNL     1       8.970   9.488  19.055  0.00  0.00    +0.000 A 
ATOM     12  C   UNL     1       9.554  10.386  19.971  0.00  0.00    +0.000 A 
ATOM     13  C   UNL     1       9.505  11.769  19.702  0.00  0.00    +0.000 A 
ATOM     14  C   UNL     1       8.903  12.263  18.538  0.00  0.00    +0.000 A 
ATOM     15  C   UNL     1       8.785  13.736  18.273  0.00  0.00    +0.000 C 
ATOM     16  C   UNL     1       8.363  11.372  17.604  0.00  0.00    +0.000 A 
ATOM     17  C   UNL     1       8.412  10.007  17.893  0.00  0.00    +0.000 A 
ATOM     18  N   UNL     1       7.971   8.945  17.157  0.00  0.00    +0.000 N 
ATOM     19  H   UNL     1       7.561   9.005  16.237  0.00  0.00    +0.000 HD
ENDBRANCH   5   9
BRANCH   1  20
ATOM     20  O   UNL     1       4.977   3.042  19.234  0.00  0.00    +0.000 OA
ATOM     21  H   UNL     1       5.909   3.058  18.967  0.00  0.00    +0.000 HD
ENDBRANCH   1  20
BRANCH   1  22
ATOM     22  C   UNL     1       2.829   4.263  19.176  0.00  0.00    +0.000 C 
BRANCH  22  28
ATOM     23  C   UNL     1       1.932   9.072  17.881  0.00  0.00    +0.000 C 
ATOM     24  C   UNL     1       1.828   7.958  18.882  0.00  0.00    +0.000 A 
ATOM     25  C   UNL     1       1.258   8.182  20.139  0.00  0.00    +0.000 A 
ATOM     26  C   UNL     1       1.140   7.136  21.052  0.00  0.00    +0.000 A 
ATOM     27  C   UNL     1       1.605   5.862  20.725  0.00  0.00    +0.000 A 
ATOM     28  C   UNL     1       2.222   5.622  19.489  0.00  0.00    +0.000 A 
ATOM     29  C   UNL     1       2.303   6.676  18.564  0.00  0.00    +0.000 A 
ENDBRANCH  22  28
ENDBRANCH   1  22
TORSDOF 4
ENDMDL
MODEL 7
REMARK VINA RESULT:      -7.7      1.216      1.595
REMARK  Name = 
REMARK  6 active torsions:
REMARK  status: ('A' for Active; 'I' for Inactive)
REMARK    1  A    between atoms: C_1  and  C_2
REMARK    2  A    between atoms: C_6  and  C_7
REMARK    3  A    between atoms: C_7  and  C_8
REMARK    4  A    between atoms: C_8  and  O_9
REMARK    5  A    between atoms: C_13  and  C_15
REMARK    6  A    between atoms: C_20  and  C_21
REMARK                            x       y       z     vdW  Elec       q    Type
REMARK                         _______ _______ _______ _____ _____    ______ ____
ROOT
ATOM      1  C   UNL     1      -4.233  11.252  18.010  0.00  0.00    +0.000 C 
ATOM      2  C   UNL     1      -3.240  10.145  17.617  0.00  0.00    +0.000 C 
ATOM      3  C   UNL     1      -1.855  10.706  17.318  0.00  0.00    +0.000 C 
ATOM      4  N   UNL     1      -1.343  11.461  18.451  0.00  0.00    +0.000 N 
ATOM      5  C   UNL     1      -0.116  11.309  19.093  0.00  0.00    +0.000 C 
ATOM      6  O   UNL     1       0.205  12.102  19.982  0.00  0.00    +0.000 OA
ATOM      7  C   UNL     1      -2.228  12.547  18.891  0.00  0.00    +0.000 C 
ATOM      8  C   UNL     1      -3.641  12.033  19.200  0.00  0.00    +0.000 C 
ENDROOT
BRANCH   5   9
ATOM      9  C   UNL     1       0.774  10.180  18.849  0.00  0.00    +0.000 A 
ATOM     10  C   UNL     1       1.624   9.714  17.854  0.00  0.00    +0.000 A 
ATOM     11  C   UNL     1       2.171   8.452  18.266  0.00  0.00    +0.000 A 
ATOM     12  C   UNL     1       3.038   7.502  17.691  0.00  0.00    +0.000 A 
ATOM     13  C   UNL     1       3.320   6.314  18.396  0.00  0.00    +0.000 A 
ATOM     14  C   UNL     1       2.768   6.070  19.659  0.00  0.00    +0.000 A 
ATOM     15  C   UNL     1       3.005   4.781  20.391  0.00  0.00    +0.000 C 
ATOM     16  C   UNL     1       1.944   7.033  20.255  0.00  0.00    +0.000 A 
ATOM     17  C   UNL     1       1.668   8.197  19.536  0.00  0.00    +0.000 A 
ATOM     18  N   UNL     1       0.913   9.279  19.887  0.00  0.00    +0.000 N 
ATOM     19  H   UNL     1       0.456   9.405  20.778  0.00  0.00    +0.000 HD
ENDBRANCH   5   9
BRANCH   1  20
ATOM     20  O   UNL     1      -4.326  12.191  16.929  0.00  0.00    +0.000 OA
ATOM     21  H   UNL     1      -3.453  12.578  16.763  0.00  0.00    +0.000 HD
ENDBRANCH   1  20
BRANCH   1  22
ATOM     22  C   UNL     1      -5.634  10.672  18.374  0.00  0.00    +0.000 C 
BRANCH  22  28
ATOM     23  C   UNL     1      -7.910  15.110  19.222  0.00  0.00    +0.000 C 
ATOM     24  C   UNL     1      -7.546  13.730  19.687  0.00  0.00    +0.000 A 
ATOM     25  C   UNL     1      -7.903  13.295  20.967  0.00  0.00    +0.000 A 
ATOM     26  C   UNL     1      -7.586  12.002  21.382  0.00  0.00    +0.000 A 
ATOM     27  C   UNL     1      -6.893  11.141  20.530  0.00  0.00    +0.000 A 
ATOM     28  C   UNL     1      -6.484  11.570  19.259  0.00  0.00    +0.000 A 
ATOM     29  C   UNL     1      -6.841  12.862  18.840  0.00  0.00    +0.000 A 
ENDBRANCH  22  28
ENDBRANCH   1  22
TORSDOF 4
ENDMDL
MODEL 8
REMARK VINA RESULT:      -7.6      1.774      2.080
REMARK  Name = 
REMARK  6 active torsions:
REMARK  status: ('A' for Active; 'I' for Inactive)
REMARK    1  A    between atoms: C_1  and  C_2
REMARK    2  A    between atoms: C_6  and  C_7
REMARK    3  A    between atoms: C_7  and  C_8
REMARK    4  A    between atoms: C_8  and  O_9
REMARK    5  A    between atoms: C_13  and  C_15
REMARK    6  A    between atoms: C_20  and  C_21
REMARK                            x       y       z     vdW  Elec       q    Type
REMARK                         _______ _______ _______ _____ _____    ______ ____
ROOT
ATOM      1  C   UNL     1      -2.098  11.482  18.120  0.00  0.00    +0.000 C 
ATOM      2  C   UNL     1      -1.348  10.229  17.637  0.00  0.00    +0.000 C 
ATOM      3  C   UNL     1       0.119  10.252  18.053  0.00  0.00    +0.000 C 
ATOM      4  N   UNL     1       0.249  10.391  19.495  0.00  0.00    +0.000 N 
ATOM      5  C   UNL     1       0.986   9.590  20.366  0.00  0.00    +0.000 C 
ATOM      6  O   UNL     1       1.070   9.906  21.555  0.00  0.00    +0.000 OA
ATOM      7  C   UNL     1      -0.433  11.569  20.043  0.00  0.00    +0.000 C 
ATOM      8  C   UNL     1      -1.917  11.596  19.648  0.00  0.00    +0.000 C 
ENDROOT
BRANCH   5   9
ATOM      9  C   UNL     1       1.576   8.317  19.968  0.00  0.00    +0.000 A 
ATOM     10  C   UNL     1       2.252   7.771  18.885  0.00  0.00    +0.000 A 
ATOM     11  C   UNL     1       2.506   6.383  19.148  0.00  0.00    +0.000 A 
ATOM     12  C   UNL     1       3.102   5.322  18.438  0.00  0.00    +0.000 A 
ATOM     13  C   UNL     1       3.127   4.037  19.017  0.00  0.00    +0.000 A 
ATOM     14  C   UNL     1       2.587   3.801  20.288  0.00  0.00    +0.000 A 
ATOM     15  C   UNL     1       2.547   2.426  20.887  0.00  0.00    +0.000 C 
ATOM     16  C   UNL     1       2.035   4.862  21.016  0.00  0.00    +0.000 A 
ATOM     17  C   UNL     1       2.010   6.125  20.420  0.00  0.00    +0.000 A 
ATOM     18  N   UNL     1       1.544   7.310  20.912  0.00  0.00    +0.000 N 
ATOM     19  H   UNL     1       1.167   7.448  21.838  0.00  0.00    +0.000 HD
ENDBRANCH   5   9
BRANCH   1  20
ATOM     20  O   UNL     1      -1.466  12.641  17.560  0.00  0.00    +0.000 OA
ATOM     21  H   UNL     1      -1.368  13.318  18.247  0.00  0.00    +0.000 HD
ENDBRANCH   1  20
BRANCH   1  22
ATOM     22  C   UNL     1      -3.612  11.431  17.748  0.00  0.00    +0.000 C 
BRANCH  22  28
ATOM     23  C   UNL     1      -7.712  10.452  20.547  0.00  0.00    +0.000 C 
ATOM     24  C   UNL     1      -6.565  11.356  20.200  0.00  0.00    +0.000 A 
ATOM     25  C   UNL     1      -6.410  12.587  20.844  0.00  0.00    +0.000 A 
ATOM     26  C   UNL     1      -5.327  13.409  20.536  0.00  0.00    +0.000 A 
ATOM     27  C   UNL     1      -4.400  13.016  19.570  0.00  0.00    +0.000 A 
ATOM     28  C   UNL     1      -4.558  11.807  18.878  0.00  0.00    +0.000 A 
ATOM     29  C   UNL     1      -5.634  10.973  19.222  0.00  0.00    +0.000 A 
ENDBRANCH  22  28
ENDBRANCH   1  22
TORSDOF 4
ENDMDL
MODEL 9
REMARK VINA RESULT:      -7.4      2.392      3.024
REMARK  Name = 
REMARK  6 active torsions:
REMARK  status: ('A' for Active; 'I' for Inactive)
REMARK    1  A    between atoms: C_1  and  C_2
REMARK    2  A    between atoms: C_6  and  C_7
REMARK    3  A    between atoms: C_7  and  C_8
REMARK    4  A    between atoms: C_8  and  O_9
REMARK    5  A    between atoms: C_13  and  C_15
REMARK    6  A    between atoms: C_20  and  C_21
REMARK                            x       y       z     vdW  Elec       q    Type
REMARK                         _______ _______ _______ _____ _____    ______ ____
ROOT
ATOM      1  C   UNL     1      -2.082  12.295  19.846  0.00  0.00    +0.000 C 
ATOM      2  C   UNL     1      -1.549  11.118  19.012  0.00  0.00    +0.000 C 
ATOM      3  C   UNL     1      -0.041  10.954  19.162  0.00  0.00    +0.000 C 
ATOM      4  N   UNL     1       0.328  10.787  20.560  0.00  0.00    +0.000 N 
ATOM      5  C   UNL     1       1.106   9.777  21.122  0.00  0.00    +0.000 C 
ATOM      6  O   UNL     1       1.407   9.838  22.316  0.00  0.00    +0.000 OA
ATOM      7  C   UNL     1      -0.136  11.873  21.431  0.00  0.00    +0.000 C 
ATOM      8  C   UNL     1      -1.653  12.083  21.312  0.00  0.00    +0.000 C 
ENDROOT
BRANCH   5   9
ATOM      9  C   UNL     1       1.494   8.574  20.393  0.00  0.00    +0.000 A 
ATOM     10  C   UNL     1       1.990   8.222  19.145  0.00  0.00    +0.000 A 
ATOM     11  C   UNL     1       2.094   6.792  19.075  0.00  0.00    +0.000 A 
ATOM     12  C   UNL     1       2.483   5.864  18.089  0.00  0.00    +0.000 A 
ATOM     13  C   UNL     1       2.405   4.485  18.373  0.00  0.00    +0.000 A 
ATOM     14  C   UNL     1       1.963   4.024  19.620  0.00  0.00    +0.000 A 
ATOM     15  C   UNL     1       1.811   2.560  19.913  0.00  0.00    +0.000 C 
ATOM     16  C   UNL     1       1.620   4.944  20.618  0.00  0.00    +0.000 A 
ATOM     17  C   UNL     1       1.695   6.304  20.313  0.00  0.00    +0.000 A 
ATOM     18  N   UNL     1       1.427   7.388  21.098  0.00  0.00    +0.000 N 
ATOM     19  H   UNL     1       1.161   7.351  22.071  0.00  0.00    +0.000 HD
ENDBRANCH   5   9
BRANCH   1  20
ATOM     20  O   UNL     1      -1.430  13.498  19.414  0.00  0.00    +0.000 OA
ATOM     21  H   UNL     1      -2.049  14.241  19.482  0.00  0.00    +0.000 HD
ENDBRANCH   1  20
BRANCH   1  22
ATOM     22  C   UNL     1      -3.632  12.425  19.740  0.00  0.00    +0.000 C 
BRANCH  22  28
ATOM     23  C   UNL     1      -6.507  12.755  23.891  0.00  0.00    +0.000 C 
ATOM     24  C   UNL     1      -5.703  13.424  22.814  0.00  0.00    +0.000 A 
ATOM     25  C   UNL     1      -5.616  14.818  22.755  0.00  0.00    +0.000 A 
ATOM     26  C   UNL     1      -4.845  15.432  21.768  0.00  0.00    +0.000 A 
ATOM     27  C   UNL     1      -4.170  14.659  20.823  0.00  0.00    +0.000 A 
ATOM     28  C   UNL     1      -4.277  13.261  20.835  0.00  0.00    +0.000 A 
ATOM     29  C   UNL     1      -5.028  12.654  21.854  0.00  0.00    +0.000 A 
ENDBRANCH  22  28
ENDBRANCH   1  22
TORSDOF 4
ENDMDL
