MODEL 1
REMARK VINA RESULT:      -9.1      0.000      0.000
REMARK  Name = 
REMARK  6 active torsions:
REMARK  status: ('A' for Active; 'I' for Inactive)
REMARK    1  A    between atoms: C_1  and  C_2
REMARK    2  A    between atoms: C_5  and  N_6
REMARK    3  A    between atoms: C_7  and  C_9
REMARK    4  A    between atoms: C_13  and  O_14
REMARK    5  A    between atoms: O_14  and  C_15
REMARK    6  A    between atoms: C_20  and  C_21
REMARK                            x       y       z     vdW  Elec       q    Type
REMARK                         _______ _______ _______ _____ _____    ______ ____
ROOT
ATOM      1  C   UNL     1       1.050   9.324  20.523  0.00  0.00    +0.000 A 
ATOM      2  C   UNL     1       1.053   9.901  19.245  0.00  0.00    +0.000 A 
ATOM      3  C   UNL     1       1.562   9.200  18.156  0.00  0.00    +0.000 A 
ATOM      4  C   UNL     1       2.106   7.934  18.346  0.00  0.00    +0.000 A 
ATOM      5  C   UNL     1       2.217   7.396  19.635  0.00  0.00    +0.000 A 
ATOM      6  C   UNL     1       1.650   8.072  20.723  0.00  0.00    +0.000 A 
ENDROOT
BRANCH   1   8
ATOM      7  N   UNL     1      -0.316  11.216  21.227  0.00  0.00    +0.000 N 
ATOM      8  C   UNL     1       0.422  10.114  21.621  0.00  0.00    +0.000 C 
ATOM      9  O   UNL     1       0.644   9.755  22.774  0.00  0.00    +0.000 OA
ATOM     10  H   UNL     1      -0.392  11.401  20.237  0.00  0.00    +0.000 HD
BRANCH   7  15
ATOM     11  C   UNL     1      -2.991  14.816  24.813  0.00  0.00    +0.000 C 
ATOM     12  C   UNL     1      -2.294  13.903  23.849  0.00  0.00    +0.000 A 
ATOM     13  C   UNL     1      -1.091  14.282  23.250  0.00  0.00    +0.000 A 
ATOM     14  C   UNL     1      -0.425  13.415  22.375  0.00  0.00    +0.000 A 
ATOM     15  C   UNL     1      -0.949  12.157  22.077  0.00  0.00    +0.000 A 
ATOM     16  C   UNL     1      -2.176  11.791  22.647  0.00  0.00    +0.000 A 
ATOM     17  C   UNL     1      -2.840  12.656  23.531  0.00  0.00    +0.000 A 
ENDBRANCH   7  15
ENDBRANCH   1   8
BRANCH   5  18
ATOM     18  O   UNL     1       2.834   6.185  19.894  0.00  0.00    +0.000 OA
BRANCH  18  19
ATOM     19  C   UNL     1       2.725   5.178  18.931  0.00  0.00    +0.000 A 
ATOM     20  N   UNL     1       1.526   4.551  18.827  0.00  0.00    +0.000 NA
ATOM     21  C   UNL     1       1.438   3.567  17.931  0.00  0.00    +0.000 A 
ATOM     22  N   UNL     1       2.414   3.180  17.111  0.00  0.00    +0.000 NA
ATOM     23  C   UNL     1       3.572   3.865  17.223  0.00  0.00    +0.000 A 
ATOM     24  C   UNL     1       3.824   4.901  18.118  0.00  0.00    +0.000 A 
BRANCH  24  25
ATOM     25  C   UNL     1       5.144   5.569  18.158  0.00  0.00    +0.000 A 
ATOM     26  C   UNL     1       5.463   6.599  17.246  0.00  0.00    +0.000 A 
ATOM     27  C   UNL     1       6.724   7.204  17.228  0.00  0.00    +0.000 A 
ATOM     28  C   UNL     1       7.697   6.809  18.138  0.00  0.00    +0.000 A 
ATOM     29  C   UNL     1       7.410   5.805  19.057  0.00  0.00    +0.000 A 
ATOM     30  C   UNL     1       6.153   5.187  19.060  0.00  0.00    +0.000 A 
ENDBRANCH  24  25
ENDBRANCH  18  19
ENDBRANCH   5  18
TORSDOF 5
ENDMDL
MODEL 2
REMARK VINA RESULT:      -8.9      0.623      1.089
REMARK  Name = 
REMARK  6 active torsions:
REMARK  status: ('A' for Active; 'I' for Inactive)
REMARK    1  A    between atoms: C_1  and  C_2
REMARK    2  A    between atoms: C_5  and  N_6
REMARK    3  A    between atoms: C_7  and  C_9
REMARK    4  A    between atoms: C_13  and  O_14
REMARK    5  A    between atoms: O_14  and  C_15
REMARK    6  A    between atoms: C_20  and  C_21
REMARK                            x       y       z     vdW  Elec       q    Type
REMARK                         _______ _______ _______ _____ _____    ______ ____
ROOT
ATOM      1  C   UNL     1       0.720   9.313  20.153  0.00  0.00    +0.000 A 
ATOM      2  C   UNL     1       0.835   9.939  18.903  0.00  0.00    +0.000 A 
ATOM      3  C   UNL     1       1.568   9.344  17.881  0.00  0.00    +0.000 A 
ATOM      4  C   UNL     1       2.222   8.138  18.114  0.00  0.00    +0.000 A 
ATOM      5  C   UNL     1       2.213   7.563  19.391  0.00  0.00    +0.000 A 
ATOM      6  C   UNL     1       1.425   8.126  20.403  0.00  0.00    +0.000 A 
ENDROOT
BRANCH   1   8
ATOM      7  N   UNL     1      -0.547  11.269  20.864  0.00  0.00    +0.000 N 
ATOM      8  C   UNL     1      -0.142   9.982  21.168  0.00  0.00    +0.000 C 
ATOM      9  O   UNL     1      -0.382   9.363  22.202  0.00  0.00    +0.000 OA
ATOM     10  H   UNL     1      -0.250  11.658  19.981  0.00  0.00    +0.000 HD
BRANCH   7  15
ATOM     11  C   UNL     1      -3.849  14.608  24.169  0.00  0.00    +0.000 C 
ATOM     12  C   UNL     1      -2.965  13.767  23.297  0.00  0.00    +0.000 A 
ATOM     13  C   UNL     1      -1.596  13.669  23.553  0.00  0.00    +0.000 A 
ATOM     14  C   UNL     1      -0.777  12.858  22.758  0.00  0.00    +0.000 A 
ATOM     15  C   UNL     1      -1.308  12.133  21.690  0.00  0.00    +0.000 A 
ATOM     16  C   UNL     1      -2.675  12.261  21.409  0.00  0.00    +0.000 A 
ATOM     17  C   UNL     1      -3.497  13.067  22.210  0.00  0.00    +0.000 A 
ENDBRANCH   7  15
ENDBRANCH   1   8
BRANCH   5  18
ATOM     18  O   UNL     1       2.922   6.417  19.705  0.00  0.00    +0.000 OA
BRANCH  18  19
ATOM     19  C   UNL     1       2.812   5.324  18.841  0.00  0.00    +0.000 A 
ATOM     20  N   UNL     1       1.603   4.713  18.771  0.00  0.00    +0.000 NA
ATOM     21  C   UNL     1       1.512   3.649  17.971  0.00  0.00    +0.000 A 
ATOM     22  N   UNL     1       2.497   3.166  17.215  0.00  0.00    +0.000 NA
ATOM     23  C   UNL     1       3.667   3.837  17.286  0.00  0.00    +0.000 A 
ATOM     24  C   UNL     1       3.921   4.950  18.083  0.00  0.00    +0.000 A 
BRANCH  24  25
ATOM     25  C   UNL     1       5.254   5.593  18.088  0.00  0.00    +0.000 A 
ATOM     26  C   UNL     1       6.262   5.164  18.979  0.00  0.00    +0.000 A 
ATOM     27  C   UNL     1       7.510   5.794  19.040  0.00  0.00    +0.000 A 
ATOM     28  C   UNL     1       7.791   6.860  18.196  0.00  0.00    +0.000 A 
ATOM     29  C   UNL     1       6.823   7.300  17.299  0.00  0.00    +0.000 A 
ATOM     30  C   UNL     1       5.568   6.680  17.253  0.00  0.00    +0.000 A 
ENDBRANCH  24  25
ENDBRANCH  18  19
ENDBRANCH   5  18
TORSDOF 5
ENDMDL
MODEL 3
REMARK VINA RESULT:      -8.8      0.901      1.106
REMARK  Name = 
REMARK  6 active torsions:
REMARK  status: ('A' for Active; 'I' for Inactive)
REMARK    1  A    between atoms: C_1  and  C_2
REMARK    2  A    between atoms: C_5  and  N_6
REMARK    3  A    between atoms: C_7  and  C_9
REMARK    4  A    between atoms: C_13  and  O_14
REMARK    5  A    between atoms: O_14  and  C_15
REMARK    6  A    between atoms: C_20  and  C_21
REMARK                            x       y       z     vdW  Elec       q    Type
REMARK                         _______ _______ _______ _____ _____    ______ ____
ROOT
ATOM      1  C   UNL     1       1.141   9.567  19.963  0.00  0.00    +0.000 A 
ATOM      2  C   UNL     1       1.258  10.000  18.634  0.00  0.00    +0.000 A 
ATOM      3  C   UNL     1       1.785   9.156  17.661  0.00  0.00    +0.000 A 
ATOM      4  C   UNL     1       2.233   7.888  18.019  0.00  0.00    +0.000 A 
ATOM      5  C   UNL     1       2.230   7.489  19.362  0.00  0.00    +0.000 A 
ATOM      6  C   UNL     1       1.643   8.311  20.332  0.00  0.00    +0.000 A 
ENDROOT
BRANCH   1   8
ATOM      7  N   UNL     1      -0.818  10.836  20.664  0.00  0.00    +0.000 N 
ATOM      8  C   UNL     1       0.500  10.507  20.927  0.00  0.00    +0.000 C 
ATOM      9  O   UNL     1       1.198  10.944  21.838  0.00  0.00    +0.000 OA
ATOM     10  H   UNL     1      -1.257  10.413  19.860  0.00  0.00    +0.000 HD
BRANCH   7  15
ATOM     11  C   UNL     1      -4.198  14.613  23.364  0.00  0.00    +0.000 C 
ATOM     12  C   UNL     1      -3.287  13.634  22.685  0.00  0.00    +0.000 A 
ATOM     13  C   UNL     1      -2.770  12.539  23.381  0.00  0.00    +0.000 A 
ATOM     14  C   UNL     1      -1.946  11.608  22.737  0.00  0.00    +0.000 A 
ATOM     15  C   UNL     1      -1.619  11.754  21.388  0.00  0.00    +0.000 A 
ATOM     16  C   UNL     1      -2.106  12.874  20.699  0.00  0.00    +0.000 A 
ATOM     17  C   UNL     1      -2.938  13.802  21.342  0.00  0.00    +0.000 A 
ENDBRANCH   7  15
ENDBRANCH   1   8
BRANCH   5  18
ATOM     18  O   UNL     1       2.749   6.279  19.787  0.00  0.00    +0.000 OA
BRANCH  18  19
ATOM     19  C   UNL     1       2.669   5.190  18.914  0.00  0.00    +0.000 A 
ATOM     20  N   UNL     1       1.468   4.566  18.816  0.00  0.00    +0.000 NA
ATOM     21  C   UNL     1       1.406   3.507  18.008  0.00  0.00    +0.000 A 
ATOM     22  N   UNL     1       2.411   3.041  17.267  0.00  0.00    +0.000 NA
ATOM     23  C   UNL     1       3.571   3.724  17.367  0.00  0.00    +0.000 A 
ATOM     24  C   UNL     1       3.797   4.834  18.176  0.00  0.00    +0.000 A 
BRANCH  24  25
ATOM     25  C   UNL     1       5.122   5.493  18.212  0.00  0.00    +0.000 A 
ATOM     26  C   UNL     1       5.472   6.468  17.253  0.00  0.00    +0.000 A 
ATOM     27  C   UNL     1       6.739   7.062  17.234  0.00  0.00    +0.000 A 
ATOM     28  C   UNL     1       7.686   6.710  18.187  0.00  0.00    +0.000 A 
ATOM     29  C   UNL     1       7.368   5.761  19.152  0.00  0.00    +0.000 A 
ATOM     30  C   UNL     1       6.106   5.154  19.158  0.00  0.00    +0.000 A 
ENDBRANCH  24  25
ENDBRANCH  18  19
ENDBRANCH   5  18
TORSDOF 5
ENDMDL
MODEL 4
REMARK VINA RESULT:      -8.8      4.338      7.998
REMARK  Name = 
REMARK  6 active torsions:
REMARK  status: ('A' for Active; 'I' for Inactive)
REMARK    1  A    between atoms: C_1  and  C_2
REMARK    2  A    between atoms: C_5  and  N_6
REMARK    3  A    between atoms: C_7  and  C_9
REMARK    4  A    between atoms: C_13  and  O_14
REMARK    5  A    between atoms: O_14  and  C_15
REMARK    6  A    between atoms: C_20  and  C_21
REMARK                            x       y       z     vdW  Elec       q    Type
REMARK                         _______ _______ _______ _____ _____    ______ ____
ROOT
ATOM      1  C   UNL     1       7.415   7.409  18.007  0.00  0.00    +0.000 A 
ATOM      2  C   UNL     1       8.135   6.462  18.751  0.00  0.00    +0.000 A 
ATOM      3  C   UNL     1       7.731   5.131  18.777  0.00  0.00    +0.000 A 
ATOM      4  C   UNL     1       6.582   4.746  18.091  0.00  0.00    +0.000 A 
ATOM      5  C   UNL     1       5.790   5.703  17.443  0.00  0.00    +0.000 A 
ATOM      6  C   UNL     1       6.228   7.031  17.362  0.00  0.00    +0.000 A 
ENDROOT
BRANCH   1   8
ATOM      7  N   UNL     1       8.886   9.107  18.952  0.00  0.00    +0.000 N 
ATOM      8  C   UNL     1       7.957   8.797  17.975  0.00  0.00    +0.000 C 
ATOM      9  O   UNL     1       7.507   9.560  17.124  0.00  0.00    +0.000 OA
ATOM     10  H   UNL     1       9.145   8.378  19.602  0.00  0.00    +0.000 HD
BRANCH   7  15
ATOM     11  C   UNL     1      11.406  14.138  20.099  0.00  0.00    +0.000 C 
ATOM     12  C   UNL     1      10.725  12.842  19.773  0.00  0.00    +0.000 A 
ATOM     13  C   UNL     1      10.701  12.356  18.465  0.00  0.00    +0.000 A 
ATOM     14  C   UNL     1      10.093  11.131  18.169  0.00  0.00    +0.000 A 
ATOM     15  C   UNL     1       9.492  10.369  19.172  0.00  0.00    +0.000 A 
ATOM     16  C   UNL     1       9.482  10.874  20.479  0.00  0.00    +0.000 A 
ATOM     17  C   UNL     1      10.099  12.098  20.778  0.00  0.00    +0.000 A 
ENDBRANCH   7  15
ENDBRANCH   1   8
BRANCH   5  18
ATOM     18  O   UNL     1       4.591   5.393  16.827  0.00  0.00    +0.000 OA
BRANCH  18  19
ATOM     19  C   UNL     1       3.767   4.446  17.440  0.00  0.00    +0.000 A 
ATOM     20  N   UNL     1       4.040   3.139  17.195  0.00  0.00    +0.000 NA
ATOM     21  C   UNL     1       3.230   2.240  17.755  0.00  0.00    +0.000 A 
ATOM     22  N   UNL     1       2.205   2.520  18.559  0.00  0.00    +0.000 NA
ATOM     23  C   UNL     1       2.003   3.832  18.808  0.00  0.00    +0.000 A 
ATOM     24  C   UNL     1       2.749   4.885  18.286  0.00  0.00    +0.000 A 
BRANCH  24  25
ATOM     25  C   UNL     1       2.421   6.289  18.621  0.00  0.00    +0.000 A 
ATOM     26  C   UNL     1       2.132   6.668  19.950  0.00  0.00    +0.000 A 
ATOM     27  C   UNL     1       1.764   7.977  20.280  0.00  0.00    +0.000 A 
ATOM     28  C   UNL     1       1.695   8.950  19.290  0.00  0.00    +0.000 A 
ATOM     29  C   UNL     1       1.985   8.610  17.973  0.00  0.00    +0.000 A 
ATOM     30  C   UNL     1       2.334   7.295  17.642  0.00  0.00    +0.000 A 
ENDBRANCH  24  25
ENDBRANCH  18  19
ENDBRANCH   5  18
TORSDOF 5
ENDMDL
MODEL 5
REMARK VINA RESULT:      -8.7      1.417      1.632
REMARK  Name = 
REMARK  6 active torsions:
REMARK  status: ('A' for Active; 'I' for Inactive)
REMARK    1  A    between atoms: C_1  and  C_2
REMARK    2  A    between atoms: C_5  and  N_6
REMARK    3  A    between atoms: C_7  and  C_9
REMARK    4  A    between atoms: C_13  and  O_14
REMARK    5  A    between atoms: O_14  and  C_15
REMARK    6  A    between atoms: C_20  and  C_21
REMARK                            x       y       z     vdW  Elec       q    Type
REMARK                         _______ _______ _______ _____ _____    ______ ____
ROOT
ATOM      1  C   UNL     1       1.116   8.694  19.928  0.00  0.00    +0.000 A 
ATOM      2  C   UNL     1       1.432   9.291  18.699  0.00  0.00    +0.000 A 
ATOM      3  C   UNL     1       2.262   8.639  17.791  0.00  0.00    +0.000 A 
ATOM      4  C   UNL     1       2.811   7.404  18.124  0.00  0.00    +0.000 A 
ATOM      5  C   UNL     1       2.598   6.854  19.394  0.00  0.00    +0.000 A 
ATOM      6  C   UNL     1       1.714   7.476  20.284  0.00  0.00    +0.000 A 
ENDROOT
BRANCH   1   8
ATOM      7  N   UNL     1      -0.118  10.731  20.446  0.00  0.00    +0.000 N 
ATOM      8  C   UNL     1       0.164   9.426  20.811  0.00  0.00    +0.000 C 
ATOM      9  O   UNL     1      -0.254   8.836  21.804  0.00  0.00    +0.000 OA
ATOM     10  H   UNL     1       0.320  11.090  19.610  0.00  0.00    +0.000 HD
BRANCH   7  15
ATOM     11  C   UNL     1      -3.633  14.371  23.160  0.00  0.00    +0.000 C 
ATOM     12  C   UNL     1      -2.685  13.444  22.459  0.00  0.00    +0.000 A 
ATOM     13  C   UNL     1      -1.591  12.898  23.133  0.00  0.00    +0.000 A 
ATOM     14  C   UNL     1      -0.725  12.008  22.487  0.00  0.00    +0.000 A 
ATOM     15  C   UNL     1      -0.933  11.649  21.154  0.00  0.00    +0.000 A 
ATOM     16  C   UNL     1      -2.008  12.226  20.465  0.00  0.00    +0.000 A 
ATOM     17  C   UNL     1      -2.881  13.112  21.115  0.00  0.00    +0.000 A 
ENDBRANCH   7  15
ENDBRANCH   1   8
BRANCH   5  18
ATOM     18  O   UNL     1       3.194   5.677  19.812  0.00  0.00    +0.000 OA
BRANCH  18  19
ATOM     19  C   UNL     1       2.650   4.472  19.361  0.00  0.00    +0.000 A 
ATOM     20  N   UNL     1       1.462   4.093  19.896  0.00  0.00    +0.000 NA
ATOM     21  C   UNL     1       0.964   2.926  19.487  0.00  0.00    +0.000 A 
ATOM     22  N   UNL     1       1.517   2.127  18.575  0.00  0.00    +0.000 NA
ATOM     23  C   UNL     1       2.675   2.571  18.040  0.00  0.00    +0.000 A 
ATOM     24  C   UNL     1       3.327   3.755  18.374  0.00  0.00    +0.000 A 
BRANCH  24  25
ATOM     25  C   UNL     1       4.604   4.129  17.727  0.00  0.00    +0.000 A 
ATOM     26  C   UNL     1       4.719   4.171  16.321  0.00  0.00    +0.000 A 
ATOM     27  C   UNL     1       5.931   4.466  15.688  0.00  0.00    +0.000 A 
ATOM     28  C   UNL     1       7.060   4.749  16.447  0.00  0.00    +0.000 A 
ATOM     29  C   UNL     1       6.977   4.728  17.835  0.00  0.00    +0.000 A 
ATOM     30  C   UNL     1       5.767   4.413  18.466  0.00  0.00    +0.000 A 
ENDBRANCH  24  25
ENDBRANCH  18  19
ENDBRANCH   5  18
TORSDOF 5
ENDMDL
MODEL 6
REMARK VINA RESULT:      -8.6      1.376      1.824
REMARK  Name = 
REMARK  6 active torsions:
REMARK  status: ('A' for Active; 'I' for Inactive)
REMARK    1  A    between atoms: C_1  and  C_2
REMARK    2  A    between atoms: C_5  and  N_6
REMARK    3  A    between atoms: C_7  and  C_9
REMARK    4  A    between atoms: C_13  and  O_14
REMARK    5  A    between atoms: O_14  and  C_15
REMARK    6  A    between atoms: C_20  and  C_21
REMARK                            x       y       z     vdW  Elec       q    Type
REMARK                         _______ _______ _______ _____ _____    ______ ____
ROOT
ATOM      1  C   UNL     1       1.089   8.766  19.875  0.00  0.00    +0.000 A 
ATOM      2  C   UNL     1       1.413   9.352  18.642  0.00  0.00    +0.000 A 
ATOM      3  C   UNL     1       2.253   8.695  17.748  0.00  0.00    +0.000 A 
ATOM      4  C   UNL     1       2.803   7.465  18.097  0.00  0.00    +0.000 A 
ATOM      5  C   UNL     1       2.582   6.926  19.371  0.00  0.00    +0.000 A 
ATOM      6  C   UNL     1       1.689   7.554  20.248  0.00  0.00    +0.000 A 
ENDROOT
BRANCH   1   8
ATOM      7  N   UNL     1      -0.162  10.801  20.358  0.00  0.00    +0.000 N 
ATOM      8  C   UNL     1       0.127   9.504  20.743  0.00  0.00    +0.000 C 
ATOM      9  O   UNL     1      -0.291   8.925  21.742  0.00  0.00    +0.000 OA
ATOM     10  H   UNL     1       0.278  11.151  19.520  0.00  0.00    +0.000 HD
BRANCH   7  15
ATOM     11  C   UNL     1      -3.283  14.624  23.295  0.00  0.00    +0.000 C 
ATOM     12  C   UNL     1      -2.500  13.603  22.525  0.00  0.00    +0.000 A 
ATOM     13  C   UNL     1      -2.888  13.227  21.237  0.00  0.00    +0.000 A 
ATOM     14  C   UNL     1      -2.137  12.298  20.507  0.00  0.00    +0.000 A 
ATOM     15  C   UNL     1      -0.987  11.723  21.049  0.00  0.00    +0.000 A 
ATOM     16  C   UNL     1      -0.618  12.070  22.356  0.00  0.00    +0.000 A 
ATOM     17  C   UNL     1      -1.365  13.007  23.085  0.00  0.00    +0.000 A 
ENDBRANCH   7  15
ENDBRANCH   1   8
BRANCH   5  18
ATOM     18  O   UNL     1       3.179   5.757  19.806  0.00  0.00    +0.000 OA
BRANCH  18  19
ATOM     19  C   UNL     1       2.631   4.544  19.378  0.00  0.00    +0.000 A 
ATOM     20  N   UNL     1       1.446   4.175  19.927  0.00  0.00    +0.000 NA
ATOM     21  C   UNL     1       0.945   3.002  19.540  0.00  0.00    +0.000 A 
ATOM     22  N   UNL     1       1.491   2.188  18.638  0.00  0.00    +0.000 NA
ATOM     23  C   UNL     1       2.646   2.622  18.088  0.00  0.00    +0.000 A 
ATOM     24  C   UNL     1       3.301   3.811  18.399  0.00  0.00    +0.000 A 
BRANCH  24  25
ATOM     25  C   UNL     1       4.574   4.173  17.738  0.00  0.00    +0.000 A 
ATOM     26  C   UNL     1       5.750   4.375  18.492  0.00  0.00    +0.000 A 
ATOM     27  C   UNL     1       6.951   4.773  17.895  0.00  0.00    +0.000 A 
ATOM     28  C   UNL     1       7.014   4.961  16.520  0.00  0.00    +0.000 A 
ATOM     29  C   UNL     1       5.875   4.758  15.747  0.00  0.00    +0.000 A 
ATOM     30  C   UNL     1       4.670   4.379  16.350  0.00  0.00    +0.000 A 
ENDBRANCH  24  25
ENDBRANCH  18  19
ENDBRANCH   5  18
TORSDOF 5
ENDMDL
MODEL 7
REMARK VINA RESULT:      -8.6      1.515      1.967
REMARK  Name = 
REMARK  6 active torsions:
REMARK  status: ('A' for Active; 'I' for Inactive)
REMARK    1  A    between atoms: C_1  and  C_2
REMARK    2  A    between atoms: C_5  and  N_6
REMARK    3  A    between atoms: C_7  and  C_9
REMARK    4  A    between atoms: C_13  and  O_14
REMARK    5  A    between atoms: O_14  and  C_15
REMARK    6  A    between atoms: C_20  and  C_21
REMARK                            x       y       z     vdW  Elec       q    Type
REMARK                         _______ _______ _______ _____ _____    ______ ____
ROOT
ATOM      1  C   UNL     1       1.301   8.969  19.267  0.00  0.00    +0.000 A 
ATOM      2  C   UNL     1       1.851   9.317  18.024  0.00  0.00    +0.000 A 
ATOM      3  C   UNL     1       2.740   8.461  17.381  0.00  0.00    +0.000 A 
ATOM      4  C   UNL     1       3.115   7.270  17.996  0.00  0.00    +0.000 A 
ATOM      5  C   UNL     1       2.665   6.967  19.288  0.00  0.00    +0.000 A 
ATOM      6  C   UNL     1       1.723   7.796  19.910  0.00  0.00    +0.000 A 
ENDROOT
BRANCH   1   8
ATOM      7  N   UNL     1       0.673  10.523  21.036  0.00  0.00    +0.000 N 
ATOM      8  C   UNL     1       0.303   9.909  19.852  0.00  0.00    +0.000 C 
ATOM      9  O   UNL     1      -0.772  10.026  19.271  0.00  0.00    +0.000 OA
ATOM     10  H   UNL     1       1.586  10.311  21.410  0.00  0.00    +0.000 HD
BRANCH   7  15
ATOM     11  C   UNL     1      -2.526  14.259  24.001  0.00  0.00    +0.000 C 
ATOM     12  C   UNL     1      -1.679  13.267  23.260  0.00  0.00    +0.000 A 
ATOM     13  C   UNL     1      -1.878  11.895  23.423  0.00  0.00    +0.000 A 
ATOM     14  C   UNL     1      -1.109  10.971  22.706  0.00  0.00    +0.000 A 
ATOM     15  C   UNL     1      -0.122  11.399  21.817  0.00  0.00    +0.000 A 
ATOM     16  C   UNL     1       0.106  12.775  21.682  0.00  0.00    +0.000 A 
ATOM     17  C   UNL     1      -0.671  13.701  22.394  0.00  0.00    +0.000 A 
ENDBRANCH   7  15
ENDBRANCH   1   8
BRANCH   5  18
ATOM     18  O   UNL     1       3.080   5.846  19.984  0.00  0.00    +0.000 OA
BRANCH  18  19
ATOM     19  C   UNL     1       2.513   4.616  19.638  0.00  0.00    +0.000 A 
ATOM     20  N   UNL     1       1.327   4.298  20.217  0.00  0.00    +0.000 NA
ATOM     21  C   UNL     1       0.808   3.110  19.910  0.00  0.00    +0.000 A 
ATOM     22  N   UNL     1       1.338   2.232  19.059  0.00  0.00    +0.000 NA
ATOM     23  C   UNL     1       2.494   2.614  18.476  0.00  0.00    +0.000 A 
ATOM     24  C   UNL     1       3.166   3.812  18.705  0.00  0.00    +0.000 A 
BRANCH  24  25
ATOM     25  C   UNL     1       4.440   4.113  18.014  0.00  0.00    +0.000 A 
ATOM     26  C   UNL     1       4.540   4.026  16.609  0.00  0.00    +0.000 A 
ATOM     27  C   UNL     1       5.748   4.252  15.940  0.00  0.00    +0.000 A 
ATOM     28  C   UNL     1       6.887   4.591  16.659  0.00  0.00    +0.000 A 
ATOM     29  C   UNL     1       6.819   4.696  18.044  0.00  0.00    +0.000 A 
ATOM     30  C   UNL     1       5.613   4.451  18.713  0.00  0.00    +0.000 A 
ENDBRANCH  24  25
ENDBRANCH  18  19
ENDBRANCH   5  18
TORSDOF 5
ENDMDL
MODEL 8
REMARK VINA RESULT:      -8.5      4.221      8.086
REMARK  Name = 
REMARK  6 active torsions:
REMARK  status: ('A' for Active; 'I' for Inactive)
REMARK    1  A    between atoms: C_1  and  C_2
REMARK    2  A    between atoms: C_5  and  N_6
REMARK    3  A    between atoms: C_7  and  C_9
REMARK    4  A    between atoms: C_13  and  O_14
REMARK    5  A    between atoms: O_14  and  C_15
REMARK    6  A    between atoms: C_20  and  C_21
REMARK                            x       y       z     vdW  Elec       q    Type
REMARK                         _______ _______ _______ _____ _____    ______ ____
ROOT
ATOM      1  C   UNL     1       6.834   6.813  17.574  0.00  0.00    +0.000 A 
ATOM      2  C   UNL     1       7.259   5.633  16.945  0.00  0.00    +0.000 A 
ATOM      3  C   UNL     1       6.354   4.843  16.243  0.00  0.00    +0.000 A 
ATOM      4  C   UNL     1       5.012   5.208  16.197  0.00  0.00    +0.000 A 
ATOM      5  C   UNL     1       4.555   6.319  16.919  0.00  0.00    +0.000 A 
ATOM      6  C   UNL     1       5.472   7.150  17.574  0.00  0.00    +0.000 A 
ENDROOT
BRANCH   1   8
ATOM      7  N   UNL     1       7.915   8.974  17.889  0.00  0.00    +0.000 N 
ATOM      8  C   UNL     1       7.880   7.637  18.244  0.00  0.00    +0.000 C 
ATOM      9  O   UNL     1       8.646   7.062  19.013  0.00  0.00    +0.000 OA
ATOM     10  H   UNL     1       7.232   9.301  17.222  0.00  0.00    +0.000 HD
BRANCH   7  15
ATOM     11  C   UNL     1      11.753  12.738  19.910  0.00  0.00    +0.000 C 
ATOM     12  C   UNL     1      10.733  11.785  19.363  0.00  0.00    +0.000 A 
ATOM     13  C   UNL     1      10.558  11.639  17.985  0.00  0.00    +0.000 A 
ATOM     14  C   UNL     1       9.628  10.724  17.476  0.00  0.00    +0.000 A 
ATOM     15  C   UNL     1       8.852   9.941  18.332  0.00  0.00    +0.000 A 
ATOM     16  C   UNL     1       8.999  10.115  19.715  0.00  0.00    +0.000 A 
ATOM     17  C   UNL     1       9.937  11.025  20.226  0.00  0.00    +0.000 A 
ENDBRANCH   7  15
ENDBRANCH   1   8
BRANCH   5  18
ATOM     18  O   UNL     1       3.219   6.672  16.986  0.00  0.00    +0.000 OA
BRANCH  18  19
ATOM     19  C   UNL     1       2.671   6.916  18.249  0.00  0.00    +0.000 A 
ATOM     20  N   UNL     1       2.335   8.199  18.538  0.00  0.00    +0.000 NA
ATOM     21  C   UNL     1       1.844   8.432  19.755  0.00  0.00    +0.000 A 
ATOM     22  N   UNL     1       1.624   7.507  20.689  0.00  0.00    +0.000 NA
ATOM     23  C   UNL     1       1.933   6.241  20.336  0.00  0.00    +0.000 A 
ATOM     24  C   UNL     1       2.467   5.842  19.114  0.00  0.00    +0.000 A 
BRANCH  24  25
ATOM     25  C   UNL     1       2.779   4.420  18.848  0.00  0.00    +0.000 A 
ATOM     26  C   UNL     1       3.868   3.786  19.484  0.00  0.00    +0.000 A 
ATOM     27  C   UNL     1       4.216   2.460  19.205  0.00  0.00    +0.000 A 
ATOM     28  C   UNL     1       3.470   1.723  18.295  0.00  0.00    +0.000 A 
ATOM     29  C   UNL     1       2.383   2.315  17.660  0.00  0.00    +0.000 A 
ATOM     30  C   UNL     1       2.049   3.649  17.926  0.00  0.00    +0.000 A 
ENDBRANCH  24  25
ENDBRANCH  18  19
ENDBRANCH   5  18
TORSDOF 5
ENDMDL
MODEL 9
REMARK VINA RESULT:      -8.5      4.353      7.976
REMARK  Name = 
REMARK  6 active torsions:
REMARK  status: ('A' for Active; 'I' for Inactive)
REMARK    1  A    between atoms: C_1  and  C_2
REMARK    2  A    between atoms: C_5  and  N_6
REMARK    3  A    between atoms: C_7  and  C_9
REMARK    4  A    between atoms: C_13  and  O_14
REMARK    5  A    between atoms: O_14  and  C_15
REMARK    6  A    between atoms: C_20  and  C_21
REMARK                            x       y       z     vdW  Elec       q    Type
REMARK                         _______ _______ _______ _____ _____    ______ ____
ROOT
ATOM      1  C   UNL     1       7.443   7.426  18.026  0.00  0.00    +0.000 A 
ATOM      2  C   UNL     1       8.152   6.457  18.751  0.00  0.00    +0.000 A 
ATOM      3  C   UNL     1       7.729   5.132  18.759  0.00  0.00    +0.000 A 
ATOM      4  C   UNL     1       6.572   4.774  18.073  0.00  0.00    +0.000 A 
ATOM      5  C   UNL     1       5.790   5.753  17.444  0.00  0.00    +0.000 A 
ATOM      6  C   UNL     1       6.247   7.075  17.382  0.00  0.00    +0.000 A 
ENDROOT
BRANCH   1   8
ATOM      7  N   UNL     1       8.883   9.112  19.037  0.00  0.00    +0.000 N 
ATOM      8  C   UNL     1       8.005   8.807  18.012  0.00  0.00    +0.000 C 
ATOM      9  O   UNL     1       7.613   9.568  17.132  0.00  0.00    +0.000 OA
ATOM     10  H   UNL     1       9.095   8.386  19.706  0.00  0.00    +0.000 HD
BRANCH   7  15
ATOM     11  C   UNL     1      11.291  14.274  19.765  0.00  0.00    +0.000 C 
ATOM     12  C   UNL     1      10.687  12.912  19.601  0.00  0.00    +0.000 A 
ATOM     13  C   UNL     1      10.135  12.239  20.694  0.00  0.00    +0.000 A 
ATOM     14  C   UNL     1       9.543  10.981  20.533  0.00  0.00    +0.000 A 
ATOM     15  C   UNL     1       9.493  10.368  19.280  0.00  0.00    +0.000 A 
ATOM     16  C   UNL     1      10.081  11.025  18.191  0.00  0.00    +0.000 A 
ATOM     17  C   UNL     1      10.668  12.289  18.349  0.00  0.00    +0.000 A 
ENDBRANCH   7  15
ENDBRANCH   1   8
BRANCH   5  18
ATOM     18  O   UNL     1       4.584   5.470  16.829  0.00  0.00    +0.000 OA
BRANCH  18  19
ATOM     19  C   UNL     1       3.762   4.504  17.416  0.00  0.00    +0.000 A 
ATOM     20  N   UNL     1       4.066   3.204  17.171  0.00  0.00    +0.000 NA
ATOM     21  C   UNL     1       3.259   2.287  17.705  0.00  0.00    +0.000 A 
ATOM     22  N   UNL     1       2.208   2.543  18.484  0.00  0.00    +0.000 NA
ATOM     23  C   UNL     1       1.975   3.850  18.734  0.00  0.00    +0.000 A 
ATOM     24  C   UNL     1       2.715   4.920  18.238  0.00  0.00    +0.000 A 
BRANCH  24  25
ATOM     25  C   UNL     1       2.352   6.315  18.572  0.00  0.00    +0.000 A 
ATOM     26  C   UNL     1       2.285   7.306  17.568  0.00  0.00    +0.000 A 
ATOM     27  C   UNL     1       1.999   8.642  17.868  0.00  0.00    +0.000 A 
ATOM     28  C   UNL     1       1.752   9.021  19.181  0.00  0.00    +0.000 A 
ATOM     29  C   UNL     1       1.799   8.066  20.192  0.00  0.00    +0.000 A 
ATOM     30  C   UNL     1       2.104   6.733  19.891  0.00  0.00    +0.000 A 
ENDBRANCH  24  25
ENDBRANCH  18  19
ENDBRANCH   5  18
TORSDOF 5
ENDMDL
