MODEL 1
REMARK VINA RESULT:      -9.3      0.000      0.000
REMARK  Name = 
REMARK  3 active torsions:
REMARK  status: ('A' for Active; 'I' for Inactive)
REMARK    1  A    between atoms: C_7  and  C_8
REMARK    2  A    between atoms: N_10  and  C_11
REMARK    3  A    between atoms: C_15  and  C_16
REMARK                            x       y       z     vdW  Elec       q    Type
REMARK                         _______ _______ _______ _____ _____    ______ ____
ROOT
ATOM      1  C   UNL     1       3.897   4.758  17.673  0.00  0.00    +0.000 A 
ATOM      2  C   UNL     1       3.960   3.772  18.658  0.00  0.00    +0.000 A 
ATOM      3  C   UNL     1       3.368   3.971  19.900  0.00  0.00    +0.000 A 
ATOM      4  C   UNL     1       2.728   5.176  20.180  0.00  0.00    +0.000 A 
ATOM      5  C   UNL     1       2.667   6.210  19.230  0.00  0.00    +0.000 A 
ATOM      6  C   UNL     1       3.260   5.974  17.969  0.00  0.00    +0.000 A 
ENDROOT
BRANCH   5   7
ATOM      7  C   UNL     1       2.064   7.515  19.588  0.00  0.00    +0.000 A 
ATOM      8  C   UNL     1       1.903   8.543  18.625  0.00  0.00    +0.000 A 
ATOM      9  C   UNL     1       1.209   9.724  18.911  0.00  0.00    +0.000 A 
ATOM     10  C   UNL     1       0.683   9.873  20.175  0.00  0.00    +0.000 A 
ATOM     11  C   UNL     1       0.851   8.907  21.144  0.00  0.00    +0.000 A 
ATOM     12  C   UNL     1       1.549   7.740  20.880  0.00  0.00    +0.000 A 
ATOM     13  C   UNL     1       0.161   9.312  22.385  0.00  0.00    +0.000 C 
ATOM     14  C   UNL     1      -0.494  10.613  21.915  0.00  0.00    +0.000 C 
ATOM     15  O   UNL     1      -0.051  10.950  20.580  0.00  0.00    +0.000 OA
ENDBRANCH   5   7
BRANCH   1  18
ATOM     16  C   UNL     1       5.541   5.342  15.907  0.00  0.00    +0.000 C 
ATOM     17  O   UNL     1       6.171   6.179  16.553  0.00  0.00    +0.000 OA
ATOM     18  N   UNL     1       4.474   4.601  16.391  0.00  0.00    +0.000 N 
ATOM     19  H   UNL     1       4.146   3.817  15.845  0.00  0.00    +0.000 HD
BRANCH  16  26
ATOM     20  O   UNL     1       9.253   6.016  13.316  0.00  0.00    +0.000 OA
ATOM     21  C   UNL     1       8.106   5.583  13.229  0.00  0.00    +0.000 C 
ATOM     22  C   UNL     1       7.509   5.171  11.909  0.00  0.00    +0.000 C 
ATOM     23  C   UNL     1       7.148   3.691  11.883  0.00  0.00    +0.000 C 
ATOM     24  C   UNL     1       5.797   3.374  12.522  0.00  0.00    +0.000 C 
ATOM     25  C   UNL     1       5.729   3.606  14.034  0.00  0.00    +0.000 C 
ATOM     26  C   UNL     1       5.926   5.070  14.431  0.00  0.00    +0.000 C 
ATOM     27  N   UNL     1       7.331   5.466  14.329  0.00  0.00    +0.000 N 
ATOM     28  H   UNL     1       7.771   5.777  15.196  0.00  0.00    +0.000 HD
ENDBRANCH  16  26
ENDBRANCH   1  18
TORSDOF 3
ENDMDL
MODEL 2
REMARK VINA RESULT:      -9.2      2.529      9.137
REMARK  Name = 
REMARK  3 active torsions:
REMARK  status: ('A' for Active; 'I' for Inactive)
REMARK    1  A    between atoms: C_7  and  C_8
REMARK    2  A    between atoms: N_10  and  C_11
REMARK    3  A    between atoms: C_15  and  C_16
REMARK                            x       y       z     vdW  Elec       q    Type
REMARK                         _______ _______ _______ _____ _____    ______ ____
ROOT
ATOM      1  C   UNL     1       2.139   5.943  20.415  0.00  0.00    +0.000 A 
ATOM      2  C   UNL     1       1.754   4.639  20.726  0.00  0.00    +0.000 A 
ATOM      3  C   UNL     1       2.386   3.553  20.133  0.00  0.00    +0.000 A 
ATOM      4  C   UNL     1       3.394   3.761  19.196  0.00  0.00    +0.000 A 
ATOM      5  C   UNL     1       3.794   5.057  18.827  0.00  0.00    +0.000 A 
ATOM      6  C   UNL     1       3.149   6.144  19.460  0.00  0.00    +0.000 A 
ENDROOT
BRANCH   5   7
ATOM      7  C   UNL     1       4.802   5.250  17.758  0.00  0.00    +0.000 A 
ATOM      8  C   UNL     1       6.035   5.901  18.014  0.00  0.00    +0.000 A 
ATOM      9  C   UNL     1       7.053   5.964  17.057  0.00  0.00    +0.000 A 
ATOM     10  C   UNL     1       6.824   5.377  15.833  0.00  0.00    +0.000 A 
ATOM     11  C   UNL     1       5.623   4.765  15.540  0.00  0.00    +0.000 A 
ATOM     12  C   UNL     1       4.601   4.708  16.473  0.00  0.00    +0.000 A 
ATOM     13  C   UNL     1       5.665   4.198  14.178  0.00  0.00    +0.000 C 
ATOM     14  C   UNL     1       7.114   4.512  13.801  0.00  0.00    +0.000 C 
ATOM     15  O   UNL     1       7.739   5.326  14.821  0.00  0.00    +0.000 OA
ENDBRANCH   5   7
BRANCH   1  18
ATOM     16  C   UNL     1       1.394   8.312  20.372  0.00  0.00    +0.000 C 
ATOM     17  O   UNL     1       1.707   8.550  19.205  0.00  0.00    +0.000 OA
ATOM     18  N   UNL     1       1.536   7.083  20.998  0.00  0.00    +0.000 N 
ATOM     19  H   UNL     1       1.084   6.943  21.890  0.00  0.00    +0.000 HD
BRANCH  16  26
ATOM     20  O   UNL     1      -0.872  12.212  19.596  0.00  0.00    +0.000 OA
ATOM     21  C   UNL     1      -0.414  11.555  20.529  0.00  0.00    +0.000 C 
ATOM     22  C   UNL     1      -0.422  12.067  21.944  0.00  0.00    +0.000 C 
ATOM     23  C   UNL     1      -1.255  11.185  22.866  0.00  0.00    +0.000 C 
ATOM     24  C   UNL     1      -0.509   9.956  23.383  0.00  0.00    +0.000 C 
ATOM     25  C   UNL     1      -0.161   8.917  22.313  0.00  0.00    +0.000 C 
ATOM     26  C   UNL     1       0.804   9.443  21.250  0.00  0.00    +0.000 C 
ATOM     27  N   UNL     1       0.126  10.335  20.309  0.00  0.00    +0.000 N 
ATOM     28  H   UNL     1       0.130  10.040  19.332  0.00  0.00    +0.000 HD
ENDBRANCH  16  26
ENDBRANCH   1  18
TORSDOF 3
ENDMDL
MODEL 3
REMARK VINA RESULT:      -8.9      0.579      1.424
REMARK  Name = 
REMARK  3 active torsions:
REMARK  status: ('A' for Active; 'I' for Inactive)
REMARK    1  A    between atoms: C_7  and  C_8
REMARK    2  A    between atoms: N_10  and  C_11
REMARK    3  A    between atoms: C_15  and  C_16
REMARK                            x       y       z     vdW  Elec       q    Type
REMARK                         _______ _______ _______ _____ _____    ______ ____
ROOT
ATOM      1  C   UNL     1       4.000   4.609  17.681  0.00  0.00    +0.000 A 
ATOM      2  C   UNL     1       4.152   3.631  18.664  0.00  0.00    +0.000 A 
ATOM      3  C   UNL     1       3.571   3.787  19.916  0.00  0.00    +0.000 A 
ATOM      4  C   UNL     1       2.851   4.942  20.209  0.00  0.00    +0.000 A 
ATOM      5  C   UNL     1       2.697   5.969  19.261  0.00  0.00    +0.000 A 
ATOM      6  C   UNL     1       3.282   5.776  17.989  0.00  0.00    +0.000 A 
ENDROOT
BRANCH   5   7
ATOM      7  C   UNL     1       2.008   7.227  19.632  0.00  0.00    +0.000 A 
ATOM      8  C   UNL     1       1.457   7.415  20.925  0.00  0.00    +0.000 A 
ATOM      9  C   UNL     1       0.931   8.644  21.336  0.00  0.00    +0.000 A 
ATOM     10  C   UNL     1       0.953   9.687  20.437  0.00  0.00    +0.000 A 
ATOM     11  C   UNL     1       1.451   9.529  19.160  0.00  0.00    +0.000 A 
ATOM     12  C   UNL     1       1.961   8.313  18.735  0.00  0.00    +0.000 A 
ATOM     13  C   UNL     1       1.380  10.809  18.429  0.00  0.00    +0.000 C 
ATOM     14  C   UNL     1       0.850  11.722  19.537  0.00  0.00    +0.000 C 
ATOM     15  O   UNL     1       0.514  10.950  20.713  0.00  0.00    +0.000 OA
ENDBRANCH   5   7
BRANCH   1  18
ATOM     16  C   UNL     1       5.595   5.282  15.900  0.00  0.00    +0.000 C 
ATOM     17  O   UNL     1       6.203   6.131  16.552  0.00  0.00    +0.000 OA
ATOM     18  N   UNL     1       4.563   4.494  16.388  0.00  0.00    +0.000 N 
ATOM     19  H   UNL     1       4.256   3.708  15.834  0.00  0.00    +0.000 HD
BRANCH  16  26
ATOM     20  O   UNL     1       9.292   6.005  13.302  0.00  0.00    +0.000 OA
ATOM     21  C   UNL     1       8.142   5.581  13.211  0.00  0.00    +0.000 C 
ATOM     22  C   UNL     1       7.532   5.208  11.886  0.00  0.00    +0.000 C 
ATOM     23  C   UNL     1       7.163   3.731  11.822  0.00  0.00    +0.000 C 
ATOM     24  C   UNL     1       5.815   3.405  12.462  0.00  0.00    +0.000 C 
ATOM     25  C   UNL     1       5.759   3.596  13.980  0.00  0.00    +0.000 C 
ATOM     26  C   UNL     1       5.968   5.048  14.415  0.00  0.00    +0.000 C 
ATOM     27  N   UNL     1       7.373   5.438  14.314  0.00  0.00    +0.000 N 
ATOM     28  H   UNL     1       7.822   5.724  15.185  0.00  0.00    +0.000 HD
ENDBRANCH  16  26
ENDBRANCH   1  18
TORSDOF 3
ENDMDL
MODEL 4
REMARK VINA RESULT:      -8.8      1.402      1.777
REMARK  Name = 
REMARK  3 active torsions:
REMARK  status: ('A' for Active; 'I' for Inactive)
REMARK    1  A    between atoms: C_7  and  C_8
REMARK    2  A    between atoms: N_10  and  C_11
REMARK    3  A    between atoms: C_15  and  C_16
REMARK                            x       y       z     vdW  Elec       q    Type
REMARK                         _______ _______ _______ _____ _____    ______ ____
ROOT
ATOM      1  C   UNL     1       4.039   4.362  17.472  0.00  0.00    +0.000 A 
ATOM      2  C   UNL     1       3.891   3.347  18.417  0.00  0.00    +0.000 A 
ATOM      3  C   UNL     1       3.165   3.563  19.582  0.00  0.00    +0.000 A 
ATOM      4  C   UNL     1       2.600   4.812  19.828  0.00  0.00    +0.000 A 
ATOM      5  C   UNL     1       2.749   5.874  18.920  0.00  0.00    +0.000 A 
ATOM      6  C   UNL     1       3.476   5.621  17.734  0.00  0.00    +0.000 A 
ENDROOT
BRANCH   5   7
ATOM      7  C   UNL     1       2.220   7.217  19.252  0.00  0.00    +0.000 A 
ATOM      8  C   UNL     1       2.112   8.232  18.268  0.00  0.00    +0.000 A 
ATOM      9  C   UNL     1       1.484   9.455  18.530  0.00  0.00    +0.000 A 
ATOM     10  C   UNL     1       0.972   9.659  19.791  0.00  0.00    +0.000 A 
ATOM     11  C   UNL     1       1.089   8.705  20.780  0.00  0.00    +0.000 A 
ATOM     12  C   UNL     1       1.721   7.496  20.540  0.00  0.00    +0.000 A 
ATOM     13  C   UNL     1       0.426   9.173  22.013  0.00  0.00    +0.000 C 
ATOM     14  C   UNL     1      -0.159  10.497  21.518  0.00  0.00    +0.000 C 
ATOM     15  O   UNL     1       0.298  10.783  20.175  0.00  0.00    +0.000 OA
ENDBRANCH   5   7
BRANCH   1  18
ATOM     16  C   UNL     1       6.137   4.290  16.146  0.00  0.00    +0.000 C 
ATOM     17  O   UNL     1       6.917   4.468  17.082  0.00  0.00    +0.000 OA
ATOM     18  N   UNL     1       4.759   4.190  16.266  0.00  0.00    +0.000 N 
ATOM     19  H   UNL     1       4.230   3.865  15.470  0.00  0.00    +0.000 HD
BRANCH  16  26
ATOM     20  O   UNL     1       4.397   3.232  12.047  0.00  0.00    +0.000 OA
ATOM     21  C   UNL     1       5.469   3.530  12.570  0.00  0.00    +0.000 C 
ATOM     22  C   UNL     1       6.763   3.514  11.800  0.00  0.00    +0.000 C 
ATOM     23  C   UNL     1       7.401   4.895  11.726  0.00  0.00    +0.000 C 
ATOM     24  C   UNL     1       8.216   5.265  12.964  0.00  0.00    +0.000 C 
ATOM     25  C   UNL     1       7.395   5.453  14.243  0.00  0.00    +0.000 C 
ATOM     26  C   UNL     1       6.691   4.176  14.703  0.00  0.00    +0.000 C 
ATOM     27  N   UNL     1       5.522   3.883  13.874  0.00  0.00    +0.000 N 
ATOM     28  H   UNL     1       4.625   3.858  14.359  0.00  0.00    +0.000 HD
ENDBRANCH  16  26
ENDBRANCH   1  18
TORSDOF 3
ENDMDL
MODEL 5
REMARK VINA RESULT:      -8.7      2.610      9.121
REMARK  Name = 
REMARK  3 active torsions:
REMARK  status: ('A' for Active; 'I' for Inactive)
REMARK    1  A    between atoms: C_7  and  C_8
REMARK    2  A    between atoms: N_10  and  C_11
REMARK    3  A    between atoms: C_15  and  C_16
REMARK                            x       y       z     vdW  Elec       q    Type
REMARK                         _______ _______ _______ _____ _____    ______ ____
ROOT
ATOM      1  C   UNL     1       2.177   5.458  20.548  0.00  0.00    +0.000 A 
ATOM      2  C   UNL     1       2.023   4.198  21.126  0.00  0.00    +0.000 A 
ATOM      3  C   UNL     1       2.863   3.148  20.775  0.00  0.00    +0.000 A 
ATOM      4  C   UNL     1       3.853   3.342  19.816  0.00  0.00    +0.000 A 
ATOM      5  C   UNL     1       4.027   4.585  19.183  0.00  0.00    +0.000 A 
ATOM      6  C   UNL     1       3.171   5.640  19.573  0.00  0.00    +0.000 A 
ENDROOT
BRANCH   5   7
ATOM      7  C   UNL     1       5.025   4.735  18.098  0.00  0.00    +0.000 A 
ATOM      8  C   UNL     1       6.407   4.880  18.381  0.00  0.00    +0.000 A 
ATOM      9  C   UNL     1       7.374   4.880  17.371  0.00  0.00    +0.000 A 
ATOM     10  C   UNL     1       6.947   4.743  16.069  0.00  0.00    +0.000 A 
ATOM     11  C   UNL     1       5.608   4.633  15.757  0.00  0.00    +0.000 A 
ATOM     12  C   UNL     1       4.638   4.647  16.747  0.00  0.00    +0.000 A 
ATOM     13  C   UNL     1       5.441   4.468  14.301  0.00  0.00    +0.000 C 
ATOM     14  C   UNL     1       6.907   4.407  13.867  0.00  0.00    +0.000 C 
ATOM     15  O   UNL     1       7.779   4.683  14.989  0.00  0.00    +0.000 OA
ENDBRANCH   5   7
BRANCH   1  18
ATOM     16  C   UNL     1       1.411   7.802  20.261  0.00  0.00    +0.000 C 
ATOM     17  O   UNL     1       2.129   8.083  19.301  0.00  0.00    +0.000 OA
ATOM     18  N   UNL     1       1.355   6.562  20.878  0.00  0.00    +0.000 N 
ATOM     19  H   UNL     1       0.608   6.384  21.533  0.00  0.00    +0.000 HD
BRANCH  16  26
ATOM     20  O   UNL     1       0.590   9.420  24.463  0.00  0.00    +0.000 OA
ATOM     21  C   UNL     1       0.219   9.576  23.302  0.00  0.00    +0.000 C 
ATOM     22  C   UNL     1      -0.927  10.485  22.947  0.00  0.00    +0.000 C 
ATOM     23  C   UNL     1      -0.487  11.636  22.050  0.00  0.00    +0.000 C 
ATOM     24  C   UNL     1      -0.405  11.267  20.570  0.00  0.00    +0.000 C 
ATOM     25  C   UNL     1       0.694  10.259  20.217  0.00  0.00    +0.000 C 
ATOM     26  C   UNL     1       0.491   8.891  20.869  0.00  0.00    +0.000 C 
ATOM     27  N   UNL     1       0.833   8.921  22.291  0.00  0.00    +0.000 N 
ATOM     28  H   UNL     1       1.589   8.301  22.582  0.00  0.00    +0.000 HD
ENDBRANCH  16  26
ENDBRANCH   1  18
TORSDOF 3
ENDMDL
MODEL 6
REMARK VINA RESULT:      -8.6      2.754      9.338
REMARK  Name = 
REMARK  3 active torsions:
REMARK  status: ('A' for Active; 'I' for Inactive)
REMARK    1  A    between atoms: C_7  and  C_8
REMARK    2  A    between atoms: N_10  and  C_11
REMARK    3  A    between atoms: C_15  and  C_16
REMARK                            x       y       z     vdW  Elec       q    Type
REMARK                         _______ _______ _______ _____ _____    ______ ____
ROOT
ATOM      1  C   UNL     1       1.822   7.158  20.208  0.00  0.00    +0.000 A 
ATOM      2  C   UNL     1       1.355   6.037  20.895  0.00  0.00    +0.000 A 
ATOM      3  C   UNL     1       2.016   4.819  20.795  0.00  0.00    +0.000 A 
ATOM      4  C   UNL     1       3.139   4.701  19.981  0.00  0.00    +0.000 A 
ATOM      5  C   UNL     1       3.628   5.795  19.246  0.00  0.00    +0.000 A 
ATOM      6  C   UNL     1       2.949   7.027  19.381  0.00  0.00    +0.000 A 
ENDROOT
BRANCH   5   7
ATOM      7  C   UNL     1       4.767   5.617  18.315  0.00  0.00    +0.000 A 
ATOM      8  C   UNL     1       6.090   5.438  18.791  0.00  0.00    +0.000 A 
ATOM      9  C   UNL     1       7.151   5.127  17.934  0.00  0.00    +0.000 A 
ATOM     10  C   UNL     1       6.879   5.006  16.590  0.00  0.00    +0.000 A 
ATOM     11  C   UNL     1       5.610   5.206  16.090  0.00  0.00    +0.000 A 
ATOM     12  C   UNL     1       4.552   5.530  16.925  0.00  0.00    +0.000 A 
ATOM     13  C   UNL     1       5.601   4.982  14.631  0.00  0.00    +0.000 C 
ATOM     14  C   UNL     1       7.048   4.533  14.420  0.00  0.00    +0.000 C 
ATOM     15  O   UNL     1       7.805   4.666  15.646  0.00  0.00    +0.000 OA
ENDBRANCH   5   7
BRANCH   1  18
ATOM     16  C   UNL     1       1.115   9.202  21.429  0.00  0.00    +0.000 C 
ATOM     17  O   UNL     1       1.646   8.929  22.506  0.00  0.00    +0.000 OA
ATOM     18  N   UNL     1       1.193   8.423  20.284  0.00  0.00    +0.000 N 
ATOM     19  H   UNL     1       0.880   8.821  19.411  0.00  0.00    +0.000 HD
BRANCH  16  26
ATOM     20  O   UNL     1      -1.919  10.848  18.424  0.00  0.00    +0.000 OA
ATOM     21  C   UNL     1      -1.350  11.170  19.465  0.00  0.00    +0.000 C 
ATOM     22  C   UNL     1      -1.499  12.545  20.062  0.00  0.00    +0.000 C 
ATOM     23  C   UNL     1      -2.142  12.501  21.442  0.00  0.00    +0.000 C 
ATOM     24  C   UNL     1      -1.161  12.187  22.570  0.00  0.00    +0.000 C 
ATOM     25  C   UNL     1      -0.574  10.772  22.539  0.00  0.00    +0.000 C 
ATOM     26  C   UNL     1       0.277  10.498  21.298  0.00  0.00    +0.000 C 
ATOM     27  N   UNL     1      -0.556  10.290  20.114  0.00  0.00    +0.000 N 
ATOM     28  H   UNL     1      -0.469   9.380  19.661  0.00  0.00    +0.000 HD
ENDBRANCH  16  26
ENDBRANCH   1  18
TORSDOF 3
ENDMDL
MODEL 7
REMARK VINA RESULT:      -8.4      1.475      2.344
REMARK  Name = 
REMARK  3 active torsions:
REMARK  status: ('A' for Active; 'I' for Inactive)
REMARK    1  A    between atoms: C_7  and  C_8
REMARK    2  A    between atoms: N_10  and  C_11
REMARK    3  A    between atoms: C_15  and  C_16
REMARK                            x       y       z     vdW  Elec       q    Type
REMARK                         _______ _______ _______ _____ _____    ______ ____
ROOT
ATOM      1  C   UNL     1       4.232   3.955  17.621  0.00  0.00    +0.000 A 
ATOM      2  C   UNL     1       4.196   2.945  18.583  0.00  0.00    +0.000 A 
ATOM      3  C   UNL     1       3.468   3.108  19.756  0.00  0.00    +0.000 A 
ATOM      4  C   UNL     1       2.789   4.300  19.993  0.00  0.00    +0.000 A 
ATOM      5  C   UNL     1       2.822   5.357  19.068  0.00  0.00    +0.000 A 
ATOM      6  C   UNL     1       3.554   5.158  17.875  0.00  0.00    +0.000 A 
ENDROOT
BRANCH   5   7
ATOM      7  C   UNL     1       2.170   6.649  19.389  0.00  0.00    +0.000 A 
ATOM      8  C   UNL     1       1.632   6.905  20.675  0.00  0.00    +0.000 A 
ATOM      9  C   UNL     1       1.143   8.164  21.037  0.00  0.00    +0.000 A 
ATOM     10  C   UNL     1       1.188   9.168  20.096  0.00  0.00    +0.000 A 
ATOM     11  C   UNL     1       1.675   8.944  18.825  0.00  0.00    +0.000 A 
ATOM     12  C   UNL     1       2.148   7.697  18.448  0.00  0.00    +0.000 A 
ATOM     13  C   UNL     1       1.635  10.194  18.042  0.00  0.00    +0.000 C 
ATOM     14  C   UNL     1       1.137  11.166  19.113  0.00  0.00    +0.000 C 
ATOM     15  O   UNL     1       0.787  10.453  20.322  0.00  0.00    +0.000 OA
ENDBRANCH   5   7
BRANCH   1  18
ATOM     16  C   UNL     1       6.186   4.409  16.159  0.00  0.00    +0.000 C 
ATOM     17  O   UNL     1       6.854   5.034  16.983  0.00  0.00    +0.000 OA
ATOM     18  N   UNL     1       4.949   3.835  16.407  0.00  0.00    +0.000 N 
ATOM     19  H   UNL     1       4.570   3.194  15.725  0.00  0.00    +0.000 HD
BRANCH  16  26
ATOM     20  O   UNL     1       4.396   3.208  12.121  0.00  0.00    +0.000 OA
ATOM     21  C   UNL     1       5.475   3.518  12.621  0.00  0.00    +0.000 C 
ATOM     22  C   UNL     1       6.761   3.462  11.840  0.00  0.00    +0.000 C 
ATOM     23  C   UNL     1       7.408   4.835  11.706  0.00  0.00    +0.000 C 
ATOM     24  C   UNL     1       8.238   5.246  12.921  0.00  0.00    +0.000 C 
ATOM     25  C   UNL     1       7.432   5.489  14.201  0.00  0.00    +0.000 C 
ATOM     26  C   UNL     1       6.724   4.235  14.716  0.00  0.00    +0.000 C 
ATOM     27  N   UNL     1       5.545   3.919  13.910  0.00  0.00    +0.000 N 
ATOM     28  H   UNL     1       4.652   3.920  14.405  0.00  0.00    +0.000 HD
ENDBRANCH  16  26
ENDBRANCH   1  18
TORSDOF 3
ENDMDL
MODEL 8
REMARK VINA RESULT:      -8.3      3.783      6.232
REMARK  Name = 
REMARK  3 active torsions:
REMARK  status: ('A' for Active; 'I' for Inactive)
REMARK    1  A    between atoms: C_7  and  C_8
REMARK    2  A    between atoms: N_10  and  C_11
REMARK    3  A    between atoms: C_15  and  C_16
REMARK                            x       y       z     vdW  Elec       q    Type
REMARK                         _______ _______ _______ _____ _____    ______ ____
ROOT
ATOM      1  C   UNL     1       1.351   9.662  18.084  0.00  0.00    +0.000 A 
ATOM      2  C   UNL     1       2.122  10.752  18.490  0.00  0.00    +0.000 A 
ATOM      3  C   UNL     1       1.526  11.972  18.782  0.00  0.00    +0.000 A 
ATOM      4  C   UNL     1       0.148  12.124  18.644  0.00  0.00    +0.000 A 
ATOM      5  C   UNL     1      -0.665  11.064  18.209  0.00  0.00    +0.000 A 
ATOM      6  C   UNL     1      -0.035   9.828  17.937  0.00  0.00    +0.000 A 
ENDROOT
BRANCH   5   7
ATOM      7  C   UNL     1      -2.112  11.281  17.979  0.00  0.00    +0.000 A 
ATOM      8  C   UNL     1      -2.741  10.863  16.779  0.00  0.00    +0.000 A 
ATOM      9  C   UNL     1      -4.127  10.931  16.606  0.00  0.00    +0.000 A 
ATOM     10  C   UNL     1      -4.883  11.431  17.642  0.00  0.00    +0.000 A 
ATOM     11  C   UNL     1      -4.300  11.877  18.810  0.00  0.00    +0.000 A 
ATOM     12  C   UNL     1      -2.927  11.830  18.989  0.00  0.00    +0.000 A 
ATOM     13  C   UNL     1      -5.341  12.328  19.754  0.00  0.00    +0.000 C 
ATOM     14  C   UNL     1      -6.598  11.970  18.958  0.00  0.00    +0.000 C 
ATOM     15  O   UNL     1      -6.245  11.517  17.630  0.00  0.00    +0.000 OA
ENDBRANCH   5   7
BRANCH   1  18
ATOM     16  C   UNL     1       2.299   7.459  18.730  0.00  0.00    +0.000 C 
ATOM     17  O   UNL     1       2.145   7.576  19.946  0.00  0.00    +0.000 OA
ATOM     18  N   UNL     1       1.908   8.396  17.785  0.00  0.00    +0.000 N 
ATOM     19  H   UNL     1       1.912   8.127  16.812  0.00  0.00    +0.000 HD
BRANCH  16  26
ATOM     20  O   UNL     1       6.104   5.103  19.685  0.00  0.00    +0.000 OA
ATOM     21  C   UNL     1       5.162   5.096  18.896  0.00  0.00    +0.000 C 
ATOM     22  C   UNL     1       5.098   4.134  17.740  0.00  0.00    +0.000 C 
ATOM     23  C   UNL     1       3.899   3.199  17.840  0.00  0.00    +0.000 C 
ATOM     24  C   UNL     1       2.597   3.810  17.322  0.00  0.00    +0.000 C 
ATOM     25  C   UNL     1       2.057   4.977  18.152  0.00  0.00    +0.000 C 
ATOM     26  C   UNL     1       2.987   6.191  18.166  0.00  0.00    +0.000 C 
ATOM     27  N   UNL     1       4.140   5.970  19.038  0.00  0.00    +0.000 N 
ATOM     28  H   UNL     1       4.239   6.616  19.822  0.00  0.00    +0.000 HD
ENDBRANCH  16  26
ENDBRANCH   1  18
TORSDOF 3
ENDMDL
MODEL 9
REMARK VINA RESULT:      -8.3      3.921      6.497
REMARK  Name = 
REMARK  3 active torsions:
REMARK  status: ('A' for Active; 'I' for Inactive)
REMARK    1  A    between atoms: C_7  and  C_8
REMARK    2  A    between atoms: N_10  and  C_11
REMARK    3  A    between atoms: C_15  and  C_16
REMARK                            x       y       z     vdW  Elec       q    Type
REMARK                         _______ _______ _______ _____ _____    ______ ____
ROOT
ATOM      1  C   UNL     1       1.368   9.992  18.214  0.00  0.00    +0.000 A 
ATOM      2  C   UNL     1       2.070  11.156  18.529  0.00  0.00    +0.000 A 
ATOM      3  C   UNL     1       1.399  12.354  18.743  0.00  0.00    +0.000 A 
ATOM      4  C   UNL     1       0.013  12.407  18.615  0.00  0.00    +0.000 A 
ATOM      5  C   UNL     1      -0.734  11.268  18.268  0.00  0.00    +0.000 A 
ATOM      6  C   UNL     1      -0.028  10.058  18.075  0.00  0.00    +0.000 A 
ENDROOT
BRANCH   5   7
ATOM      7  C   UNL     1      -2.195  11.375  18.045  0.00  0.00    +0.000 A 
ATOM      8  C   UNL     1      -2.802  10.866  16.869  0.00  0.00    +0.000 A 
ATOM      9  C   UNL     1      -4.191  10.831  16.707  0.00  0.00    +0.000 A 
ATOM     10  C   UNL     1      -4.971  11.319  17.731  0.00  0.00    +0.000 A 
ATOM     11  C   UNL     1      -4.412  11.851  18.874  0.00  0.00    +0.000 A 
ATOM     12  C   UNL     1      -3.038  11.907  19.041  0.00  0.00    +0.000 A 
ATOM     13  C   UNL     1      -5.475  12.266  19.810  0.00  0.00    +0.000 C 
ATOM     14  C   UNL     1      -6.710  11.790  19.042  0.00  0.00    +0.000 C 
ATOM     15  O   UNL     1      -6.336  11.309  17.729  0.00  0.00    +0.000 OA
ENDBRANCH   5   7
BRANCH   1  18
ATOM     16  C   UNL     1       2.258   7.806  18.984  0.00  0.00    +0.000 C 
ATOM     17  O   UNL     1       1.903   7.900  20.159  0.00  0.00    +0.000 OA
ATOM     18  N   UNL     1       2.002   8.746  17.997  0.00  0.00    +0.000 N 
ATOM     19  H   UNL     1       2.175   8.493  17.035  0.00  0.00    +0.000 HD
BRANCH  16  26
ATOM     20  O   UNL     1       1.236   3.598  17.503  0.00  0.00    +0.000 OA
ATOM     21  C   UNL     1       2.214   4.297  17.761  0.00  0.00    +0.000 C 
ATOM     22  C   UNL     1       3.616   3.751  17.724  0.00  0.00    +0.000 C 
ATOM     23  C   UNL     1       4.474   4.450  16.676  0.00  0.00    +0.000 C 
ATOM     24  C   UNL     1       5.070   5.774  17.152  0.00  0.00    +0.000 C 
ATOM     25  C   UNL     1       4.049   6.888  17.402  0.00  0.00    +0.000 C 
ATOM     26  C   UNL     1       3.066   6.565  18.528  0.00  0.00    +0.000 C 
ATOM     27  N   UNL     1       2.059   5.597  18.097  0.00  0.00    +0.000 N 
ATOM     28  H   UNL     1       1.090   5.916  18.130  0.00  0.00    +0.000 HD
ENDBRANCH  16  26
ENDBRANCH   1  18
TORSDOF 3
ENDMDL
