MODEL 1
REMARK VINA RESULT:      -8.2      0.000      0.000
REMARK  Name = 
REMARK  4 active torsions:
REMARK  status: ('A' for Active; 'I' for Inactive)
REMARK    1  A    between atoms: C_1  and  C_2
REMARK    2  A    between atoms: N_12  and  C_13
REMARK    3  A    between atoms: C_16  and  C_17
REMARK    4  A    between atoms: N_19  and  C_20
REMARK                            x       y       z     vdW  Elec       q    Type
REMARK                         _______ _______ _______ _____ _____    ______ ____
ROOT
ATOM      1  C   UNL     1       6.654   6.437  17.918  0.00  0.00    +0.000 A 
ATOM      2  C   UNL     1       7.734   6.354  18.803  0.00  0.00    +0.000 A 
ATOM      3  C   UNL     1       8.543   7.465  19.026  0.00  0.00    +0.000 A 
ATOM      4  C   UNL     1       8.266   8.682  18.390  0.00  0.00    +0.000 A 
ATOM      5  C   UNL     1       7.202   8.772  17.488  0.00  0.00    +0.000 A 
ATOM      6  C   UNL     1       6.400   7.646  17.252  0.00  0.00    +0.000 A 
ENDROOT
BRANCH   1  18
ATOM      7  C   UNL     1       6.952   4.662  15.649  0.00  0.00    +0.000 C 
ATOM      8  C   UNL     1       5.860   4.465  16.679  0.00  0.00    +0.000 A 
ATOM      9  N   UNL     1       5.065   3.457  16.499  0.00  0.00    +0.000 NA
ATOM     10  C   UNL     1       4.050   3.224  17.433  0.00  0.00    +0.000 A 
ATOM     11  C   UNL     1       3.158   2.173  17.210  0.00  0.00    +0.000 A 
ATOM     12  C   UNL     1       2.090   1.945  18.083  0.00  0.00    +0.000 A 
ATOM     13  C   UNL     1       1.913   2.766  19.197  0.00  0.00    +0.000 A 
ATOM     14  C   UNL     1       2.817   3.796  19.449  0.00  0.00    +0.000 A 
ATOM     15  C   UNL     1       3.883   4.014  18.565  0.00  0.00    +0.000 A 
ATOM     16  C   UNL     1       4.845   5.107  18.786  0.00  0.00    +0.000 A 
ATOM     17  O   UNL     1       4.743   5.773  19.816  0.00  0.00    +0.000 OA
ATOM     18  N   UNL     1       5.783   5.320  17.767  0.00  0.00    +0.000 N 
ENDBRANCH   1  18
BRANCH   4  19
ATOM     19  C   UNL     1       9.163   9.823  18.697  0.00  0.00    +0.000 C 
ATOM     20  O   UNL     1       9.464   9.983  19.878  0.00  0.00    +0.000 OA
ATOM     21  N   UNL     1       9.508  10.648  17.645  0.00  0.00    +0.000 N 
ATOM     22  H   UNL     1       9.031  10.519  16.757  0.00  0.00    +0.000 HD
BRANCH  21  23
ATOM     23  C   UNL     1      10.242  11.862  17.765  0.00  0.00    +0.000 A 
ATOM     24  C   UNL     1      11.627  11.874  17.957  0.00  0.00    +0.000 A 
ATOM     25  C   UNL     1      12.319  13.068  18.175  0.00  0.00    +0.000 A 
ATOM     26  C   UNL     1      11.637  14.279  18.179  0.00  0.00    +0.000 A 
ATOM     27  C   UNL     1      10.265  14.297  17.935  0.00  0.00    +0.000 A 
ATOM     28  C   UNL     1       9.573  13.096  17.719  0.00  0.00    +0.000 A 
ATOM     29 BR   UNL     1       7.699  13.202  17.407  0.00  0.00    +0.000 Br
ENDBRANCH  21  23
ENDBRANCH   4  19
TORSDOF 3
ENDMDL
MODEL 2
REMARK VINA RESULT:      -7.7      6.847      9.389
REMARK  Name = 
REMARK  4 active torsions:
REMARK  status: ('A' for Active; 'I' for Inactive)
REMARK    1  A    between atoms: C_1  and  C_2
REMARK    2  A    between atoms: N_12  and  C_13
REMARK    3  A    between atoms: C_16  and  C_17
REMARK    4  A    between atoms: N_19  and  C_20
REMARK                            x       y       z     vdW  Elec       q    Type
REMARK                         _______ _______ _______ _____ _____    ______ ____
ROOT
ATOM      1  C   UNL     1       0.906   9.882  19.487  0.00  0.00    +0.000 A 
ATOM      2  C   UNL     1       1.523   9.876  18.232  0.00  0.00    +0.000 A 
ATOM      3  C   UNL     1       2.308   8.793  17.843  0.00  0.00    +0.000 A 
ATOM      4  C   UNL     1       2.463   7.689  18.692  0.00  0.00    +0.000 A 
ATOM      5  C   UNL     1       1.868   7.693  19.957  0.00  0.00    +0.000 A 
ATOM      6  C   UNL     1       1.093   8.793  20.352  0.00  0.00    +0.000 A 
ENDROOT
BRANCH   1  18
ATOM      7  C   UNL     1      -1.733  10.051  18.305  0.00  0.00    +0.000 C 
ATOM      8  C   UNL     1      -1.221  11.100  19.270  0.00  0.00    +0.000 A 
ATOM      9  N   UNL     1      -2.026  12.078  19.547  0.00  0.00    +0.000 NA
ATOM     10  C   UNL     1      -1.604  13.064  20.446  0.00  0.00    +0.000 A 
ATOM     11  C   UNL     1      -2.447  14.147  20.701  0.00  0.00    +0.000 A 
ATOM     12  C   UNL     1      -2.038  15.187  21.541  0.00  0.00    +0.000 A 
ATOM     13  C   UNL     1      -0.781  15.143  22.143  0.00  0.00    +0.000 A 
ATOM     14  C   UNL     1       0.055  14.050  21.924  0.00  0.00    +0.000 A 
ATOM     15  C   UNL     1      -0.366  13.014  21.078  0.00  0.00    +0.000 A 
ATOM     16  C   UNL     1       0.499  11.855  20.804  0.00  0.00    +0.000 A 
ATOM     17  O   UNL     1       1.569  11.772  21.406  0.00  0.00    +0.000 OA
ATOM     18  N   UNL     1       0.035  10.954  19.836  0.00  0.00    +0.000 N 
ENDBRANCH   1  18
BRANCH   4  19
ATOM     19  C   UNL     1       3.297   6.568  18.195  0.00  0.00    +0.000 C 
ATOM     20  O   UNL     1       3.238   5.516  18.827  0.00  0.00    +0.000 OA
ATOM     21  N   UNL     1       4.124   6.833  17.121  0.00  0.00    +0.000 N 
ATOM     22  H   UNL     1       4.223   7.798  16.819  0.00  0.00    +0.000 HD
BRANCH  21  23
ATOM     23  C   UNL     1       5.092   5.932  16.593  0.00  0.00    +0.000 A 
ATOM     24  C   UNL     1       4.724   4.774  15.900  0.00  0.00    +0.000 A 
ATOM     25  C   UNL     1       5.680   3.848  15.476  0.00  0.00    +0.000 A 
ATOM     26  C   UNL     1       7.029   4.078  15.719  0.00  0.00    +0.000 A 
ATOM     27  C   UNL     1       7.424   5.251  16.359  0.00  0.00    +0.000 A 
ATOM     28  C   UNL     1       6.461   6.177  16.785  0.00  0.00    +0.000 A 
ATOM     29 BR   UNL     1       7.077   7.748  17.665  0.00  0.00    +0.000 Br
ENDBRANCH  21  23
ENDBRANCH   4  19
TORSDOF 3
ENDMDL
MODEL 3
REMARK VINA RESULT:      -7.7      6.635     10.663
REMARK  Name = 
REMARK  4 active torsions:
REMARK  status: ('A' for Active; 'I' for Inactive)
REMARK    1  A    between atoms: C_1  and  C_2
REMARK    2  A    between atoms: N_12  and  C_13
REMARK    3  A    between atoms: C_16  and  C_17
REMARK    4  A    between atoms: N_19  and  C_20
REMARK                            x       y       z     vdW  Elec       q    Type
REMARK                         _______ _______ _______ _____ _____    ______ ____
ROOT
ATOM      1  C   UNL     1       0.998  10.752  18.977  0.00  0.00    +0.000 A 
ATOM      2  C   UNL     1       0.982  10.041  20.182  0.00  0.00    +0.000 A 
ATOM      3  C   UNL     1       1.394   8.712  20.215  0.00  0.00    +0.000 A 
ATOM      4  C   UNL     1       1.855   8.083  19.051  0.00  0.00    +0.000 A 
ATOM      5  C   UNL     1       1.856   8.777  17.837  0.00  0.00    +0.000 A 
ATOM      6  C   UNL     1       1.423  10.110  17.804  0.00  0.00    +0.000 A 
ENDROOT
BRANCH   1  18
ATOM      7  C   UNL     1      -1.760  11.569  19.316  0.00  0.00    +0.000 C 
ATOM      8  C   UNL     1      -0.651  12.575  19.093  0.00  0.00    +0.000 A 
ATOM      9  N   UNL     1      -0.995  13.825  19.067  0.00  0.00    +0.000 NA
ATOM     10  C   UNL     1      -0.003  14.794  18.879  0.00  0.00    +0.000 A 
ATOM     11  C   UNL     1      -0.380  16.135  18.793  0.00  0.00    +0.000 A 
ATOM     12  C   UNL     1       0.571  17.128  18.541  0.00  0.00    +0.000 A 
ATOM     13  C   UNL     1       1.913  16.785  18.384  0.00  0.00    +0.000 A 
ATOM     14  C   UNL     1       2.306  15.453  18.502  0.00  0.00    +0.000 A 
ATOM     15  C   UNL     1       1.343  14.466  18.754  0.00  0.00    +0.000 A 
ATOM     16  C   UNL     1       1.717  13.046  18.862  0.00  0.00    +0.000 A 
ATOM     17  O   UNL     1       2.911  12.754  18.815  0.00  0.00    +0.000 OA
ATOM     18  N   UNL     1       0.658  12.135  18.973  0.00  0.00    +0.000 N 
ENDBRANCH   1  18
BRANCH   4  19
ATOM     19  C   UNL     1       2.296   6.672  19.175  0.00  0.00    +0.000 C 
ATOM     20  O   UNL     1       2.952   6.387  20.175  0.00  0.00    +0.000 OA
ATOM     21  N   UNL     1       2.004   5.831  18.120  0.00  0.00    +0.000 N 
ATOM     22  H   UNL     1       1.632   6.241  17.268  0.00  0.00    +0.000 HD
BRANCH  21  23
ATOM     23  C   UNL     1       2.460   4.488  17.995  0.00  0.00    +0.000 A 
ATOM     24  C   UNL     1       1.696   3.403  18.435  0.00  0.00    +0.000 A 
ATOM     25  C   UNL     1       2.198   2.100  18.400  0.00  0.00    +0.000 A 
ATOM     26  C   UNL     1       3.471   1.857  17.897  0.00  0.00    +0.000 A 
ATOM     27  C   UNL     1       4.230   2.916  17.403  0.00  0.00    +0.000 A 
ATOM     28  C   UNL     1       3.723   4.222  17.442  0.00  0.00    +0.000 A 
ATOM     29 BR   UNL     1       4.825   5.616  16.761  0.00  0.00    +0.000 Br
ENDBRANCH  21  23
ENDBRANCH   4  19
TORSDOF 3
ENDMDL
MODEL 4
REMARK VINA RESULT:      -7.6      6.757     10.704
REMARK  Name = 
REMARK  4 active torsions:
REMARK  status: ('A' for Active; 'I' for Inactive)
REMARK    1  A    between atoms: C_1  and  C_2
REMARK    2  A    between atoms: N_12  and  C_13
REMARK    3  A    between atoms: C_16  and  C_17
REMARK    4  A    between atoms: N_19  and  C_20
REMARK                            x       y       z     vdW  Elec       q    Type
REMARK                         _______ _______ _______ _____ _____    ______ ____
ROOT
ATOM      1  C   UNL     1       1.086  11.016  19.236  0.00  0.00    +0.000 A 
ATOM      2  C   UNL     1       1.567  10.347  18.106  0.00  0.00    +0.000 A 
ATOM      3  C   UNL     1       1.876   8.991  18.174  0.00  0.00    +0.000 A 
ATOM      4  C   UNL     1       1.680   8.279  19.365  0.00  0.00    +0.000 A 
ATOM      5  C   UNL     1       1.219   8.941  20.506  0.00  0.00    +0.000 A 
ATOM      6  C   UNL     1       0.926  10.311  20.439  0.00  0.00    +0.000 A 
ENDROOT
BRANCH   1  18
ATOM      7  C   UNL     1      -1.720  11.700  19.008  0.00  0.00    +0.000 C 
ATOM      8  C   UNL     1      -0.636  12.756  18.979  0.00  0.00    +0.000 A 
ATOM      9  N   UNL     1      -1.024  13.986  18.853  0.00  0.00    +0.000 NA
ATOM     10  C   UNL     1      -0.060  15.000  18.837  0.00  0.00    +0.000 A 
ATOM     11  C   UNL     1      -0.474  16.319  18.643  0.00  0.00    +0.000 A 
ATOM     12  C   UNL     1       0.461  17.355  18.555  0.00  0.00    +0.000 A 
ATOM     13  C   UNL     1       1.823  17.076  18.671  0.00  0.00    +0.000 A 
ATOM     14  C   UNL     1       2.245  15.768  18.899  0.00  0.00    +0.000 A 
ATOM     15  C   UNL     1       1.297  14.738  18.985  0.00  0.00    +0.000 A 
ATOM     16  C   UNL     1       1.708  13.341  19.202  0.00  0.00    +0.000 A 
ATOM     17  O   UNL     1       2.900  13.108  19.396  0.00  0.00    +0.000 OA
ATOM     18  N   UNL     1       0.690  12.380  19.129  0.00  0.00    +0.000 N 
ENDBRANCH   1  18
BRANCH   4  19
ATOM     19  C   UNL     1       2.013   6.833  19.349  0.00  0.00    +0.000 C 
ATOM     20  O   UNL     1       2.239   6.309  20.438  0.00  0.00    +0.000 OA
ATOM     21  N   UNL     1       2.122   6.231  18.111  0.00  0.00    +0.000 N 
ATOM     22  H   UNL     1       2.106   6.824  17.286  0.00  0.00    +0.000 HD
BRANCH  21  23
ATOM     23  C   UNL     1       2.563   4.896  17.888  0.00  0.00    +0.000 A 
ATOM     24  C   UNL     1       1.716   3.797  18.060  0.00  0.00    +0.000 A 
ATOM     25  C   UNL     1       2.190   2.489  17.936  0.00  0.00    +0.000 A 
ATOM     26  C   UNL     1       3.522   2.258  17.612  0.00  0.00    +0.000 A 
ATOM     27  C   UNL     1       4.373   3.337  17.383  0.00  0.00    +0.000 A 
ATOM     28  C   UNL     1       3.894   4.649  17.510  0.00  0.00    +0.000 A 
ATOM     29 BR   UNL     1       5.119   6.070  17.194  0.00  0.00    +0.000 Br
ENDBRANCH  21  23
ENDBRANCH   4  19
TORSDOF 3
ENDMDL
MODEL 5
REMARK VINA RESULT:      -7.5      7.360      9.699
REMARK  Name = 
REMARK  4 active torsions:
REMARK  status: ('A' for Active; 'I' for Inactive)
REMARK    1  A    between atoms: C_1  and  C_2
REMARK    2  A    between atoms: N_12  and  C_13
REMARK    3  A    between atoms: C_16  and  C_17
REMARK    4  A    between atoms: N_19  and  C_20
REMARK                            x       y       z     vdW  Elec       q    Type
REMARK                         _______ _______ _______ _____ _____    ______ ____
ROOT
ATOM      1  C   UNL     1       0.499   9.795  19.818  0.00  0.00    +0.000 A 
ATOM      2  C   UNL     1       1.179   9.778  18.596  0.00  0.00    +0.000 A 
ATOM      3  C   UNL     1       2.072   8.751  18.307  0.00  0.00    +0.000 A 
ATOM      4  C   UNL     1       2.277   7.710  19.223  0.00  0.00    +0.000 A 
ATOM      5  C   UNL     1       1.619   7.727  20.456  0.00  0.00    +0.000 A 
ATOM      6  C   UNL     1       0.733   8.773  20.751  0.00  0.00    +0.000 A 
ENDROOT
BRANCH   1  18
ATOM      7  C   UNL     1      -1.756  10.100  18.026  0.00  0.00    +0.000 C 
ATOM      8  C   UNL     1      -1.553  11.013  19.216  0.00  0.00    +0.000 A 
ATOM      9  N   UNL     1      -2.444  11.937  19.399  0.00  0.00    +0.000 NA
ATOM     10  C   UNL     1      -2.308  12.796  20.495  0.00  0.00    +0.000 A 
ATOM     11  C   UNL     1      -3.234  13.828  20.659  0.00  0.00    +0.000 A 
ATOM     12  C   UNL     1      -3.099  14.748  21.703  0.00  0.00    +0.000 A 
ATOM     13  C   UNL     1      -2.037  14.635  22.599  0.00  0.00    +0.000 A 
ATOM     14  C   UNL     1      -1.126  13.588  22.465  0.00  0.00    +0.000 A 
ATOM     15  C   UNL     1      -1.272  12.673  21.414  0.00  0.00    +0.000 A 
ATOM     16  C   UNL     1      -0.317  11.568  21.227  0.00  0.00    +0.000 A 
ATOM     17  O   UNL     1       0.567  11.414  22.069  0.00  0.00    +0.000 OA
ATOM     18  N   UNL     1      -0.478  10.802  20.065  0.00  0.00    +0.000 N 
ENDBRANCH   1  18
BRANCH   4  19
ATOM     19  C   UNL     1       3.230   6.643  18.830  0.00  0.00    +0.000 C 
ATOM     20  O   UNL     1       3.625   5.902  19.727  0.00  0.00    +0.000 OA
ATOM     21  N   UNL     1       3.647   6.633  17.514  0.00  0.00    +0.000 N 
ATOM     22  H   UNL     1       3.397   7.421  16.925  0.00  0.00    +0.000 HD
BRANCH  21  23
ATOM     23  C   UNL     1       4.655   5.778  16.983  0.00  0.00    +0.000 A 
ATOM     24  C   UNL     1       5.932   6.248  16.661  0.00  0.00    +0.000 A 
ATOM     25  C   UNL     1       6.876   5.423  16.047  0.00  0.00    +0.000 A 
ATOM     26  C   UNL     1       6.565   4.097  15.766  0.00  0.00    +0.000 A 
ATOM     27  C   UNL     1       5.319   3.590  16.127  0.00  0.00    +0.000 A 
ATOM     28  C   UNL     1       4.373   4.423  16.741  0.00  0.00    +0.000 A 
ATOM     29 BR   UNL     1       2.688   3.662  17.192  0.00  0.00    +0.000 Br
ENDBRANCH  21  23
ENDBRANCH   4  19
TORSDOF 3
ENDMDL
MODEL 6
REMARK VINA RESULT:      -7.5      2.804     10.314
REMARK  Name = 
REMARK  4 active torsions:
REMARK  status: ('A' for Active; 'I' for Inactive)
REMARK    1  A    between atoms: C_1  and  C_2
REMARK    2  A    between atoms: N_12  and  C_13
REMARK    3  A    between atoms: C_16  and  C_17
REMARK    4  A    between atoms: N_19  and  C_20
REMARK                            x       y       z     vdW  Elec       q    Type
REMARK                         _______ _______ _______ _____ _____    ______ ____
ROOT
ATOM      1  C   UNL     1       9.253  11.884  18.576  0.00  0.00    +0.000 A 
ATOM      2  C   UNL     1       8.269  11.560  17.637  0.00  0.00    +0.000 A 
ATOM      3  C   UNL     1       7.852  10.240  17.488  0.00  0.00    +0.000 A 
ATOM      4  C   UNL     1       8.393   9.230  18.295  0.00  0.00    +0.000 A 
ATOM      5  C   UNL     1       9.393   9.539  19.222  0.00  0.00    +0.000 A 
ATOM      6  C   UNL     1       9.823  10.867  19.357  0.00  0.00    +0.000 A 
ENDROOT
BRANCH   1  18
ATOM      7  C   UNL     1       8.372  13.270  20.961  0.00  0.00    +0.000 C 
ATOM      8  C   UNL     1       9.177  13.966  19.886  0.00  0.00    +0.000 A 
ATOM      9  N   UNL     1       9.460  15.216  20.087  0.00  0.00    +0.000 NA
ATOM     10  C   UNL     1      10.217  15.898  19.128  0.00  0.00    +0.000 A 
ATOM     11  C   UNL     1      10.472  17.258  19.316  0.00  0.00    +0.000 A 
ATOM     12  C   UNL     1      11.167  17.993  18.352  0.00  0.00    +0.000 A 
ATOM     13  C   UNL     1      11.623  17.367  17.192  0.00  0.00    +0.000 A 
ATOM     14  C   UNL     1      11.404  16.003  17.010  0.00  0.00    +0.000 A 
ATOM     15  C   UNL     1      10.704  15.277  17.984  0.00  0.00    +0.000 A 
ATOM     16  C   UNL     1      10.434  13.840  17.815  0.00  0.00    +0.000 A 
ATOM     17  O   UNL     1      10.914  13.268  16.837  0.00  0.00    +0.000 OA
ATOM     18  N   UNL     1       9.607  13.249  18.780  0.00  0.00    +0.000 N 
ENDBRANCH   1  18
BRANCH   4  19
ATOM     19  C   UNL     1       7.880   7.854  18.088  0.00  0.00    +0.000 C 
ATOM     20  O   UNL     1       8.342   6.980  18.819  0.00  0.00    +0.000 OA
ATOM     21  N   UNL     1       6.998   7.667  17.043  0.00  0.00    +0.000 N 
ATOM     22  H   UNL     1       6.853   8.435  16.394  0.00  0.00    +0.000 HD
BRANCH  21  23
ATOM     23  C   UNL     1       6.506   6.404  16.605  0.00  0.00    +0.000 A 
ATOM     24  C   UNL     1       7.328   5.471  15.965  0.00  0.00    +0.000 A 
ATOM     25  C   UNL     1       6.810   4.280  15.450  0.00  0.00    +0.000 A 
ATOM     26  C   UNL     1       5.457   3.991  15.589  0.00  0.00    +0.000 A 
ATOM     27  C   UNL     1       4.629   4.881  16.270  0.00  0.00    +0.000 A 
ATOM     28  C   UNL     1       5.152   6.076  16.783  0.00  0.00    +0.000 A 
ATOM     29 BR   UNL     1       3.955   7.246  17.689  0.00  0.00    +0.000 Br
ENDBRANCH  21  23
ENDBRANCH   4  19
TORSDOF 3
ENDMDL
MODEL 7
REMARK VINA RESULT:      -7.5      2.755     10.129
REMARK  Name = 
REMARK  4 active torsions:
REMARK  status: ('A' for Active; 'I' for Inactive)
REMARK    1  A    between atoms: C_1  and  C_2
REMARK    2  A    between atoms: N_12  and  C_13
REMARK    3  A    between atoms: C_16  and  C_17
REMARK    4  A    between atoms: N_19  and  C_20
REMARK                            x       y       z     vdW  Elec       q    Type
REMARK                         _______ _______ _______ _____ _____    ______ ____
ROOT
ATOM      1  C   UNL     1       9.302  11.938  18.648  0.00  0.00    +0.000 A 
ATOM      2  C   UNL     1       9.748  10.880  19.447  0.00  0.00    +0.000 A 
ATOM      3  C   UNL     1       9.255   9.594  19.243  0.00  0.00    +0.000 A 
ATOM      4  C   UNL     1       8.331   9.343  18.219  0.00  0.00    +0.000 A 
ATOM      5  C   UNL     1       7.863  10.396  17.428  0.00  0.00    +0.000 A 
ATOM      6  C   UNL     1       8.349  11.693  17.647  0.00  0.00    +0.000 A 
ENDROOT
BRANCH   1  18
ATOM      7  C   UNL     1      11.604  12.705  17.065  0.00  0.00    +0.000 C 
ATOM      8  C   UNL     1      11.004  13.630  18.102  0.00  0.00    +0.000 A 
ATOM      9  N   UNL     1      11.568  14.789  18.245  0.00  0.00    +0.000 NA
ATOM     10  C   UNL     1      11.039  15.686  19.180  0.00  0.00    +0.000 A 
ATOM     11  C   UNL     1      11.681  16.910  19.375  0.00  0.00    +0.000 A 
ATOM     12  C   UNL     1      11.225  17.808  20.345  0.00  0.00    +0.000 A 
ATOM     13  C   UNL     1      10.113  17.488  21.123  0.00  0.00    +0.000 A 
ATOM     14  C   UNL     1       9.444  16.284  20.913  0.00  0.00    +0.000 A 
ATOM     15  C   UNL     1       9.912  15.392  19.938  0.00  0.00    +0.000 A 
ATOM     16  C   UNL     1       9.244  14.100  19.705  0.00  0.00    +0.000 A 
ATOM     17  O   UNL     1       8.210  13.858  20.326  0.00  0.00    +0.000 OA
ATOM     18  N   UNL     1       9.880  13.231  18.808  0.00  0.00    +0.000 N 
ENDBRANCH   1  18
BRANCH   4  19
ATOM     19  C   UNL     1       7.872   7.942  18.054  0.00  0.00    +0.000 C 
ATOM     20  O   UNL     1       8.409   7.099  18.770  0.00  0.00    +0.000 OA
ATOM     21  N   UNL     1       6.947   7.701  17.058  0.00  0.00    +0.000 N 
ATOM     22  H   UNL     1       6.734   8.453  16.408  0.00  0.00    +0.000 HD
BRANCH  21  23
ATOM     23  C   UNL     1       6.491   6.412  16.659  0.00  0.00    +0.000 A 
ATOM     24  C   UNL     1       7.343   5.478  16.062  0.00  0.00    +0.000 A 
ATOM     25  C   UNL     1       6.860   4.257  15.584  0.00  0.00    +0.000 A 
ATOM     26  C   UNL     1       5.514   3.940  15.719  0.00  0.00    +0.000 A 
ATOM     27  C   UNL     1       4.656   4.831  16.359  0.00  0.00    +0.000 A 
ATOM     28  C   UNL     1       5.144   6.056  16.835  0.00  0.00    +0.000 A 
ATOM     29 BR   UNL     1       3.908   7.227  17.687  0.00  0.00    +0.000 Br
ENDBRANCH  21  23
ENDBRANCH   4  19
TORSDOF 3
ENDMDL
MODEL 8
REMARK VINA RESULT:      -7.5      6.740      9.237
REMARK  Name = 
REMARK  4 active torsions:
REMARK  status: ('A' for Active; 'I' for Inactive)
REMARK    1  A    between atoms: C_1  and  C_2
REMARK    2  A    between atoms: N_12  and  C_13
REMARK    3  A    between atoms: C_16  and  C_17
REMARK    4  A    between atoms: N_19  and  C_20
REMARK                            x       y       z     vdW  Elec       q    Type
REMARK                         _______ _______ _______ _____ _____    ______ ____
ROOT
ATOM      1  C   UNL     1       0.988   9.137  20.254  0.00  0.00    +0.000 A 
ATOM      2  C   UNL     1       1.477   9.475  18.989  0.00  0.00    +0.000 A 
ATOM      3  C   UNL     1       2.209   8.548  18.252  0.00  0.00    +0.000 A 
ATOM      4  C   UNL     1       2.436   7.260  18.757  0.00  0.00    +0.000 A 
ATOM      5  C   UNL     1       1.969   6.919  20.029  0.00  0.00    +0.000 A 
ATOM      6  C   UNL     1       1.248   7.860  20.777  0.00  0.00    +0.000 A 
ENDROOT
BRANCH   1  18
ATOM      7  C   UNL     1       1.217   9.380  23.131  0.00  0.00    +0.000 C 
ATOM      8  C   UNL     1       0.212  10.188  22.340  0.00  0.00    +0.000 A 
ATOM      9  N   UNL     1      -0.540  11.002  23.013  0.00  0.00    +0.000 NA
ATOM     10  C   UNL     1      -1.475  11.783  22.323  0.00  0.00    +0.000 A 
ATOM     11  C   UNL     1      -2.324  12.617  23.053  0.00  0.00    +0.000 A 
ATOM     12  C   UNL     1      -3.315  13.364  22.411  0.00  0.00    +0.000 A 
ATOM     13  C   UNL     1      -3.456  13.290  21.025  0.00  0.00    +0.000 A 
ATOM     14  C   UNL     1      -2.591  12.488  20.283  0.00  0.00    +0.000 A 
ATOM     15  C   UNL     1      -1.602  11.742  20.940  0.00  0.00    +0.000 A 
ATOM     16  C   UNL     1      -0.686  10.866  20.191  0.00  0.00    +0.000 A 
ATOM     17  O   UNL     1      -0.750  10.870  18.962  0.00  0.00    +0.000 OA
ATOM     18  N   UNL     1       0.166  10.063  20.960  0.00  0.00    +0.000 N 
ENDBRANCH   1  18
BRANCH   4  19
ATOM     19  C   UNL     1       3.206   6.326  17.900  0.00  0.00    +0.000 C 
ATOM     20  O   UNL     1       2.756   5.188  17.785  0.00  0.00    +0.000 OA
ATOM     21  N   UNL     1       4.396   6.792  17.379  0.00  0.00    +0.000 N 
ATOM     22  H   UNL     1       4.749   7.684  17.713  0.00  0.00    +0.000 HD
BRANCH  21  23
ATOM     23  C   UNL     1       5.334   6.005  16.652  0.00  0.00    +0.000 A 
ATOM     24  C   UNL     1       5.253   5.850  15.265  0.00  0.00    +0.000 A 
ATOM     25  C   UNL     1       6.117   4.995  14.578  0.00  0.00    +0.000 A 
ATOM     26  C   UNL     1       7.100   4.295  15.269  0.00  0.00    +0.000 A 
ATOM     27  C   UNL     1       7.236   4.475  16.644  0.00  0.00    +0.000 A 
ATOM     28  C   UNL     1       6.364   5.332  17.330  0.00  0.00    +0.000 A 
ATOM     29 BR   UNL     1       6.604   5.515  19.209  0.00  0.00    +0.000 Br
ENDBRANCH  21  23
ENDBRANCH   4  19
TORSDOF 3
ENDMDL
MODEL 9
REMARK VINA RESULT:      -7.4      6.735      9.386
REMARK  Name = 
REMARK  4 active torsions:
REMARK  status: ('A' for Active; 'I' for Inactive)
REMARK    1  A    between atoms: C_1  and  C_2
REMARK    2  A    between atoms: N_12  and  C_13
REMARK    3  A    between atoms: C_16  and  C_17
REMARK    4  A    between atoms: N_19  and  C_20
REMARK                            x       y       z     vdW  Elec       q    Type
REMARK                         _______ _______ _______ _____ _____    ______ ____
ROOT
ATOM      1  C   UNL     1       1.049   9.483  20.138  0.00  0.00    +0.000 A 
ATOM      2  C   UNL     1       1.626   8.350  20.721  0.00  0.00    +0.000 A 
ATOM      3  C   UNL     1       2.281   7.412  19.928  0.00  0.00    +0.000 A 
ATOM      4  C   UNL     1       2.392   7.607  18.545  0.00  0.00    +0.000 A 
ATOM      5  C   UNL     1       1.801   8.725  17.948  0.00  0.00    +0.000 A 
ATOM      6  C   UNL     1       1.128   9.659  18.748  0.00  0.00    +0.000 A 
ENDROOT
BRANCH   1  18
ATOM      7  C   UNL     1      -0.712   8.708  22.303  0.00  0.00    +0.000 C 
ATOM      8  C   UNL     1      -0.418  10.161  21.994  0.00  0.00    +0.000 A 
ATOM      9  N   UNL     1      -0.991  11.045  22.750  0.00  0.00    +0.000 NA
ATOM     10  C   UNL     1      -0.737  12.400  22.514  0.00  0.00    +0.000 A 
ATOM     11  C   UNL     1      -1.398  13.354  23.291  0.00  0.00    +0.000 A 
ATOM     12  C   UNL     1      -1.225  14.719  23.045  0.00  0.00    +0.000 A 
ATOM     13  C   UNL     1      -0.377  15.141  22.021  0.00  0.00    +0.000 A 
ATOM     14  C   UNL     1       0.315  14.199  21.262  0.00  0.00    +0.000 A 
ATOM     15  C   UNL     1       0.131  12.832  21.518  0.00  0.00    +0.000 A 
ATOM     16  C   UNL     1       0.827  11.808  20.721  0.00  0.00    +0.000 A 
ATOM     17  O   UNL     1       1.644  12.180  19.880  0.00  0.00    +0.000 OA
ATOM     18  N   UNL     1       0.461  10.479  20.970  0.00  0.00    +0.000 N 
ENDBRANCH   1  18
BRANCH   4  19
ATOM     19  C   UNL     1       3.123   6.572  17.774  0.00  0.00    +0.000 C 
ATOM     20  O   UNL     1       2.621   5.450  17.746  0.00  0.00    +0.000 OA
ATOM     21  N   UNL     1       4.339   6.939  17.231  0.00  0.00    +0.000 N 
ATOM     22  H   UNL     1       4.731   7.838  17.496  0.00  0.00    +0.000 HD
BRANCH  21  23
ATOM     23  C   UNL     1       5.244   6.054  16.579  0.00  0.00    +0.000 A 
ATOM     24  C   UNL     1       5.240   5.880  15.192  0.00  0.00    +0.000 A 
ATOM     25  C   UNL     1       6.063   4.934  14.577  0.00  0.00    +0.000 A 
ATOM     26  C   UNL     1       6.927   4.159  15.342  0.00  0.00    +0.000 A 
ATOM     27  C   UNL     1       6.988   4.352  16.721  0.00  0.00    +0.000 A 
ATOM     28  C   UNL     1       6.158   5.301  17.334  0.00  0.00    +0.000 A 
ATOM     29 BR   UNL     1       6.289   5.497  19.223  0.00  0.00    +0.000 Br
ENDBRANCH  21  23
ENDBRANCH   4  19
TORSDOF 3
ENDMDL
