MODEL 1
REMARK VINA RESULT:      -9.2      0.000      0.000
REMARK  Name = 
REMARK  3 active torsions:
REMARK  status: ('A' for Active; 'I' for Inactive)
REMARK    1  A    between atoms: C_2  and  C_19
REMARK    2  A    between atoms: N_3  and  C_4
REMARK    3  A    between atoms: C_23  and  C_24
REMARK                            x       y       z     vdW  Elec       q    Type
REMARK                         _______ _______ _______ _____ _____    ______ ____
ROOT
ATOM      1  O   UNL     1       1.882   5.109  18.182  0.00  0.00    +0.000 OA
ATOM      2  C   UNL     1       2.704   5.275  19.076  0.00  0.00    +0.000 C 
ATOM      3  N   UNL     1       2.865   6.427  19.830  0.00  0.00    +0.000 N 
ATOM      4  H   UNL     1       3.674   6.467  20.437  0.00  0.00    +0.000 HD
ENDROOT
BRANCH   3   5
ATOM      5  C   UNL     1       2.119   7.620  19.687  0.00  0.00    +0.000 A 
ATOM      6  C   UNL     1       2.112   8.355  18.494  0.00  0.00    +0.000 A 
ATOM      7  C   UNL     1       1.417   9.556  18.368  0.00  0.00    +0.000 A 
ATOM      8  C   UNL     1       0.725   9.983  19.489  0.00  0.00    +0.000 A 
ATOM      9  N   UNL     1      -0.021  11.099  19.713  0.00  0.00    +0.000 N 
ATOM     10  C   UNL     1      -0.479  11.085  21.003  0.00  0.00    +0.000 A 
ATOM     11  N   UNL     1      -1.172  12.146  21.474  0.00  0.00    +0.000 N 
ATOM     12  C   UNL     1      -2.010  13.011  20.639  0.00  0.00    +0.000 C 
ATOM     13  C   UNL     1      -1.781  14.466  21.063  0.00  0.00    +0.000 C 
ATOM     14  O   UNL     1      -2.076  14.650  22.458  0.00  0.00    +0.000 OA
ATOM     15  C   UNL     1      -1.247  13.794  23.270  0.00  0.00    +0.000 C 
ATOM     16  C   UNL     1      -1.420  12.303  22.910  0.00  0.00    +0.000 C 
ATOM     17  N   UNL     1      -0.055  10.005  21.624  0.00  0.00    +0.000 NA
ATOM     18  C   UNL     1       0.684   9.298  20.696  0.00  0.00    +0.000 A 
ATOM     19  C   UNL     1       1.376   8.075  20.796  0.00  0.00    +0.000 A 
ATOM     20  H   UNL     1      -0.144  11.852  19.059  0.00  0.00    +0.000 HD
ENDBRANCH   3   5
BRANCH   2  21
ATOM     21  C   UNL     1       3.675   4.237  19.375  0.00  0.00    +0.000 A 
ATOM     22  C   UNL     1       3.426   3.010  19.956  0.00  0.00    +0.000 A 
ATOM     23  N   UNL     1       4.609   2.340  19.938  0.00  0.00    +0.000 N 
ATOM     24  N   UNL     1       5.622   3.051  19.426  0.00  0.00    +0.000 NA
ATOM     25  C   UNL     1       5.077   4.229  19.077  0.00  0.00    +0.000 A 
ATOM     26  H   UNL     1       4.798   1.393  20.251  0.00  0.00    +0.000 HD
BRANCH  25  27
ATOM     27  C   UNL     1       5.898   5.294  18.495  0.00  0.00    +0.000 A 
ATOM     28  C   UNL     1       7.129   5.671  19.044  0.00  0.00    +0.000 A 
ATOM     29  C   UNL     1       7.852   6.726  18.491  0.00  0.00    +0.000 A 
ATOM     30  C   UNL     1       7.335   7.362  17.376  0.00  0.00    +0.000 A 
ATOM     31  N   UNL     1       6.173   7.009  16.787  0.00  0.00    +0.000 NA
ATOM     32  C   UNL     1       5.485   5.985  17.359  0.00  0.00    +0.000 A 
ENDBRANCH  25  27
ENDBRANCH   2  21
TORSDOF 3
ENDMDL
MODEL 2
REMARK VINA RESULT:      -9.2      1.147      1.477
REMARK  Name = 
REMARK  3 active torsions:
REMARK  status: ('A' for Active; 'I' for Inactive)
REMARK    1  A    between atoms: C_2  and  C_19
REMARK    2  A    between atoms: N_3  and  C_4
REMARK    3  A    between atoms: C_23  and  C_24
REMARK                            x       y       z     vdW  Elec       q    Type
REMARK                         _______ _______ _______ _____ _____    ______ ____
ROOT
ATOM      1  O   UNL     1       1.704   4.964  18.240  0.00  0.00    +0.000 OA
ATOM      2  C   UNL     1       2.514   5.116  19.147  0.00  0.00    +0.000 C 
ATOM      3  N   UNL     1       2.778   6.304  19.812  0.00  0.00    +0.000 N 
ATOM      4  H   UNL     1       3.570   6.309  20.443  0.00  0.00    +0.000 HD
ENDROOT
BRANCH   3   5
ATOM      5  C   UNL     1       2.169   7.553  19.547  0.00  0.00    +0.000 A 
ATOM      6  C   UNL     1       2.254   8.171  18.293  0.00  0.00    +0.000 A 
ATOM      7  C   UNL     1       1.697   9.423  18.045  0.00  0.00    +0.000 A 
ATOM      8  C   UNL     1       1.048  10.026  19.110  0.00  0.00    +0.000 A 
ATOM      9  N   UNL     1       0.427  11.232  19.218  0.00  0.00    +0.000 N 
ATOM     10  C   UNL     1      -0.039  11.388  20.495  0.00  0.00    +0.000 A 
ATOM     11  N   UNL     1      -0.615  12.557  20.856  0.00  0.00    +0.000 N 
ATOM     12  C   UNL     1      -1.345  13.428  19.930  0.00  0.00    +0.000 C 
ATOM     13  C   UNL     1      -0.960  14.883  20.224  0.00  0.00    +0.000 C 
ATOM     14  O   UNL     1      -1.244  15.226  21.590  0.00  0.00    +0.000 OA
ATOM     15  C   UNL     1      -0.522  14.362  22.492  0.00  0.00    +0.000 C 
ATOM     16  C   UNL     1      -0.856  12.873  22.266  0.00  0.00    +0.000 C 
ATOM     17  N   UNL     1       0.257  10.330  21.220  0.00  0.00    +0.000 NA
ATOM     18  C   UNL     1       0.921   9.464  20.373  0.00  0.00    +0.000 A 
ATOM     19  C   UNL     1       1.473   8.187  20.597  0.00  0.00    +0.000 A 
ATOM     20  H   UNL     1       0.394  11.930  18.496  0.00  0.00    +0.000 HD
ENDBRANCH   3   5
BRANCH   2  21
ATOM     21  C   UNL     1       3.359   4.010  19.563  0.00  0.00    +0.000 A 
ATOM     22  C   UNL     1       3.124   3.133  20.602  0.00  0.00    +0.000 A 
ATOM     23  N   UNL     1       4.120   2.210  20.545  0.00  0.00    +0.000 N 
ATOM     24  N   UNL     1       5.012   2.440  19.571  0.00  0.00    +0.000 NA
ATOM     25  C   UNL     1       4.571   3.550  18.953  0.00  0.00    +0.000 A 
ATOM     26  H   UNL     1       4.253   1.392  21.132  0.00  0.00    +0.000 HD
BRANCH  25  27
ATOM     27  C   UNL     1       5.315   4.132  17.834  0.00  0.00    +0.000 A 
ATOM     28  C   UNL     1       4.785   4.196  16.540  0.00  0.00    +0.000 A 
ATOM     29  C   UNL     1       5.547   4.711  15.493  0.00  0.00    +0.000 A 
ATOM     30  C   UNL     1       6.819   5.178  15.775  0.00  0.00    +0.000 A 
ATOM     31  N   UNL     1       7.358   5.174  17.012  0.00  0.00    +0.000 NA
ATOM     32  C   UNL     1       6.594   4.654  18.010  0.00  0.00    +0.000 A 
ENDBRANCH  25  27
ENDBRANCH   2  21
TORSDOF 3
ENDMDL
MODEL 3
REMARK VINA RESULT:      -8.9      1.428      3.156
REMARK  Name = 
REMARK  3 active torsions:
REMARK  status: ('A' for Active; 'I' for Inactive)
REMARK    1  A    between atoms: C_2  and  C_19
REMARK    2  A    between atoms: N_3  and  C_4
REMARK    3  A    between atoms: C_23  and  C_24
REMARK                            x       y       z     vdW  Elec       q    Type
REMARK                         _______ _______ _______ _____ _____    ______ ____
ROOT
ATOM      1  O   UNL     1       4.036   7.235  17.043  0.00  0.00    +0.000 OA
ATOM      2  C   UNL     1       3.889   6.593  18.077  0.00  0.00    +0.000 C 
ATOM      3  N   UNL     1       2.976   6.869  19.083  0.00  0.00    +0.000 N 
ATOM      4  H   UNL     1       3.063   6.335  19.938  0.00  0.00    +0.000 HD
ENDROOT
BRANCH   3   5
ATOM      5  C   UNL     1       2.066   7.952  19.100  0.00  0.00    +0.000 A 
ATOM      6  C   UNL     1       1.734   8.663  17.940  0.00  0.00    +0.000 A 
ATOM      7  C   UNL     1       0.876   9.761  17.964  0.00  0.00    +0.000 A 
ATOM      8  C   UNL     1       0.364  10.110  19.203  0.00  0.00    +0.000 A 
ATOM      9  N   UNL     1      -0.465  11.121  19.579  0.00  0.00    +0.000 N 
ATOM     10  C   UNL     1      -0.660  11.066  20.933  0.00  0.00    +0.000 A 
ATOM     11  N   UNL     1      -1.382  12.034  21.541  0.00  0.00    +0.000 N 
ATOM     12  C   UNL     1      -2.471  12.770  20.894  0.00  0.00    +0.000 C 
ATOM     13  C   UNL     1      -2.357  14.249  21.282  0.00  0.00    +0.000 C 
ATOM     14  O   UNL     1      -2.399  14.412  22.709  0.00  0.00    +0.000 OA
ATOM     15  C   UNL     1      -1.325  13.683  23.337  0.00  0.00    +0.000 C 
ATOM     16  C   UNL     1      -1.367  12.178  23.000  0.00  0.00    +0.000 C 
ATOM     17  N   UNL     1       0.013  10.059  21.448  0.00  0.00    +0.000 NA
ATOM     18  C   UNL     1       0.645   9.442  20.387  0.00  0.00    +0.000 A 
ATOM     19  C   UNL     1       1.498   8.322  20.338  0.00  0.00    +0.000 A 
ATOM     20  H   UNL     1      -0.809  11.843  18.969  0.00  0.00    +0.000 HD
ENDBRANCH   3   5
BRANCH   2  21
ATOM     21  C   UNL     1       4.765   5.473  18.370  0.00  0.00    +0.000 A 
ATOM     22  C   UNL     1       6.142   5.450  18.275  0.00  0.00    +0.000 A 
ATOM     23  N   UNL     1       6.530   4.237  18.751  0.00  0.00    +0.000 N 
ATOM     24  N   UNL     1       5.509   3.449  19.113  0.00  0.00    +0.000 NA
ATOM     25  C   UNL     1       4.406   4.183  18.882  0.00  0.00    +0.000 A 
ATOM     26  H   UNL     1       7.474   3.880  18.864  0.00  0.00    +0.000 HD
BRANCH  25  27
ATOM     27  C   UNL     1       3.072   3.636  19.138  0.00  0.00    +0.000 A 
ATOM     28  C   UNL     1       2.537   3.547  20.428  0.00  0.00    +0.000 A 
ATOM     29  C   UNL     1       1.285   2.971  20.632  0.00  0.00    +0.000 A 
ATOM     30  C   UNL     1       0.582   2.522  19.527  0.00  0.00    +0.000 A 
ATOM     31  N   UNL     1       1.037   2.623  18.261  0.00  0.00    +0.000 NA
ATOM     32  C   UNL     1       2.268   3.178  18.097  0.00  0.00    +0.000 A 
ENDBRANCH  25  27
ENDBRANCH   2  21
TORSDOF 3
ENDMDL
MODEL 4
REMARK VINA RESULT:      -8.9      3.203      3.864
REMARK  Name = 
REMARK  3 active torsions:
REMARK  status: ('A' for Active; 'I' for Inactive)
REMARK    1  A    between atoms: C_2  and  C_19
REMARK    2  A    between atoms: N_3  and  C_4
REMARK    3  A    between atoms: C_23  and  C_24
REMARK                            x       y       z     vdW  Elec       q    Type
REMARK                         _______ _______ _______ _____ _____    ______ ____
ROOT
ATOM      1  O   UNL     1       2.474   7.110  19.968  0.00  0.00    +0.000 OA
ATOM      2  C   UNL     1       2.365   6.944  18.759  0.00  0.00    +0.000 C 
ATOM      3  N   UNL     1       1.947   7.894  17.840  0.00  0.00    +0.000 N 
ATOM      4  H   UNL     1       1.774   7.573  16.896  0.00  0.00    +0.000 HD
ENDROOT
BRANCH   3   5
ATOM      5  C   UNL     1       1.557   9.220  18.142  0.00  0.00    +0.000 A 
ATOM      6  C   UNL     1       0.255   9.538  18.549  0.00  0.00    +0.000 A 
ATOM      7  C   UNL     1      -0.144  10.849  18.799  0.00  0.00    +0.000 A 
ATOM      8  C   UNL     1       0.823  11.826  18.627  0.00  0.00    +0.000 A 
ATOM      9  N   UNL     1       0.767  13.179  18.760  0.00  0.00    +0.000 N 
ATOM     10  C   UNL     1       1.987  13.715  18.448  0.00  0.00    +0.000 A 
ATOM     11  N   UNL     1       2.138  15.058  18.425  0.00  0.00    +0.000 N 
ATOM     12  C   UNL     1       1.368  15.981  19.263  0.00  0.00    +0.000 C 
ATOM     13  C   UNL     1       0.965  17.192  18.413  0.00  0.00    +0.000 C 
ATOM     14  O   UNL     1       2.122  17.840  17.857  0.00  0.00    +0.000 OA
ATOM     15  C   UNL     1       2.872  16.923  17.035  0.00  0.00    +0.000 C 
ATOM     16  C   UNL     1       3.323  15.672  17.819  0.00  0.00    +0.000 C 
ATOM     17  N   UNL     1       2.832  12.761  18.117  0.00  0.00    +0.000 NA
ATOM     18  C   UNL     1       2.132  11.577  18.236  0.00  0.00    +0.000 A 
ATOM     19  C   UNL     1       2.520  10.242  18.008  0.00  0.00    +0.000 A 
ATOM     20  H   UNL     1      -0.064  13.704  18.970  0.00  0.00    +0.000 HD
ENDBRANCH   3   5
BRANCH   2  21
ATOM     21  C   UNL     1       2.610   5.635  18.178  0.00  0.00    +0.000 A 
ATOM     22  C   UNL     1       1.663   4.733  17.738  0.00  0.00    +0.000 A 
ATOM     23  N   UNL     1       2.356   3.705  17.179  0.00  0.00    +0.000 N 
ATOM     24  N   UNL     1       3.686   3.847  17.257  0.00  0.00    +0.000 NA
ATOM     25  C   UNL     1       3.872   5.027  17.876  0.00  0.00    +0.000 A 
ATOM     26  H   UNL     1       1.989   2.877  16.720  0.00  0.00    +0.000 HD
BRANCH  25  27
ATOM     27  C   UNL     1       5.221   5.518  18.167  0.00  0.00    +0.000 A 
ATOM     28  C   UNL     1       5.891   6.404  17.317  0.00  0.00    +0.000 A 
ATOM     29  C   UNL     1       7.194   6.804  17.605  0.00  0.00    +0.000 A 
ATOM     30  C   UNL     1       7.786   6.328  18.761  0.00  0.00    +0.000 A 
ATOM     31  N   UNL     1       7.166   5.506  19.633  0.00  0.00    +0.000 NA
ATOM     32  C   UNL     1       5.901   5.122  19.316  0.00  0.00    +0.000 A 
ENDBRANCH  25  27
ENDBRANCH   2  21
TORSDOF 3
ENDMDL
MODEL 5
REMARK VINA RESULT:      -8.5      3.183      4.829
REMARK  Name = 
REMARK  3 active torsions:
REMARK  status: ('A' for Active; 'I' for Inactive)
REMARK    1  A    between atoms: C_2  and  C_19
REMARK    2  A    between atoms: N_3  and  C_4
REMARK    3  A    between atoms: C_23  and  C_24
REMARK                            x       y       z     vdW  Elec       q    Type
REMARK                         _______ _______ _______ _____ _____    ______ ____
ROOT
ATOM      1  O   UNL     1       1.906   7.937  19.794  0.00  0.00    +0.000 OA
ATOM      2  C   UNL     1       2.174   8.116  18.612  0.00  0.00    +0.000 C 
ATOM      3  N   UNL     1       1.578   9.045  17.773  0.00  0.00    +0.000 N 
ATOM      4  H   UNL     1       1.804   8.984  16.789  0.00  0.00    +0.000 HD
ENDROOT
BRANCH   3   5
ATOM      5  C   UNL     1       0.542   9.939  18.133  0.00  0.00    +0.000 A 
ATOM      6  C   UNL     1       0.783  11.091  18.892  0.00  0.00    +0.000 A 
ATOM      7  C   UNL     1      -0.243  11.945  19.288  0.00  0.00    +0.000 A 
ATOM      8  C   UNL     1      -1.522  11.594  18.885  0.00  0.00    +0.000 A 
ATOM      9  N   UNL     1      -2.728  12.180  19.114  0.00  0.00    +0.000 N 
ATOM     10  C   UNL     1      -3.712  11.433  18.526  0.00  0.00    +0.000 A 
ATOM     11  N   UNL     1      -5.007  11.780  18.702  0.00  0.00    +0.000 N 
ATOM     12  C   UNL     1      -5.461  13.158  18.912  0.00  0.00    +0.000 C 
ATOM     13  C   UNL     1      -6.539  13.154  20.003  0.00  0.00    +0.000 C 
ATOM     14  O   UNL     1      -7.635  12.296  19.642  0.00  0.00    +0.000 OA
ATOM     15  C   UNL     1      -7.176  10.944  19.437  0.00  0.00    +0.000 C 
ATOM     16  C   UNL     1      -6.088  10.857  18.346  0.00  0.00    +0.000 C 
ATOM     17  N   UNL     1      -3.190  10.383  17.927  0.00  0.00    +0.000 NA
ATOM     18  C   UNL     1      -1.826  10.473  18.125  0.00  0.00    +0.000 A 
ATOM     19  C   UNL     1      -0.771   9.633  17.717  0.00  0.00    +0.000 A 
ATOM     20  H   UNL     1      -2.877  12.987  19.695  0.00  0.00    +0.000 HD
ENDBRANCH   3   5
BRANCH   2  21
ATOM     21  C   UNL     1       3.144   7.262  17.947  0.00  0.00    +0.000 A 
ATOM     22  C   UNL     1       4.214   7.668  17.176  0.00  0.00    +0.000 A 
ATOM     23  N   UNL     1       4.896   6.536  16.858  0.00  0.00    +0.000 N 
ATOM     24  N   UNL     1       4.331   5.416  17.329  0.00  0.00    +0.000 NA
ATOM     25  C   UNL     1       3.243   5.833  18.000  0.00  0.00    +0.000 A 
ATOM     26  H   UNL     1       5.759   6.450  16.329  0.00  0.00    +0.000 HD
BRANCH  25  27
ATOM     27  C   UNL     1       2.342   4.874  18.642  0.00  0.00    +0.000 A 
ATOM     28  C   UNL     1       2.221   4.781  20.033  0.00  0.00    +0.000 A 
ATOM     29  C   UNL     1       1.392   3.818  20.604  0.00  0.00    +0.000 A 
ATOM     30  C   UNL     1       0.677   2.985  19.761  0.00  0.00    +0.000 A 
ATOM     31  N   UNL     1       0.728   3.063  18.415  0.00  0.00    +0.000 NA
ATOM     32  C   UNL     1       1.557   4.004  17.889  0.00  0.00    +0.000 A 
ENDBRANCH  25  27
ENDBRANCH   2  21
TORSDOF 3
ENDMDL
MODEL 6
REMARK VINA RESULT:      -8.4      2.901      4.653
REMARK  Name = 
REMARK  3 active torsions:
REMARK  status: ('A' for Active; 'I' for Inactive)
REMARK    1  A    between atoms: C_2  and  C_19
REMARK    2  A    between atoms: N_3  and  C_4
REMARK    3  A    between atoms: C_23  and  C_24
REMARK                            x       y       z     vdW  Elec       q    Type
REMARK                         _______ _______ _______ _____ _____    ______ ____
ROOT
ATOM      1  O   UNL     1       2.127   7.224  19.702  0.00  0.00    +0.000 OA
ATOM      2  C   UNL     1       2.456   7.604  18.585  0.00  0.00    +0.000 C 
ATOM      3  N   UNL     1       1.924   8.689  17.904  0.00  0.00    +0.000 N 
ATOM      4  H   UNL     1       2.195   8.800  16.936  0.00  0.00    +0.000 HD
ENDROOT
BRANCH   3   5
ATOM      5  C   UNL     1       0.893   9.536  18.376  0.00  0.00    +0.000 A 
ATOM      6  C   UNL     1       1.041  10.316  19.530  0.00  0.00    +0.000 A 
ATOM      7  C   UNL     1       0.010  11.112  20.023  0.00  0.00    +0.000 A 
ATOM      8  C   UNL     1      -1.175  11.094  19.304  0.00  0.00    +0.000 A 
ATOM      9  N   UNL     1      -2.363  11.722  19.515  0.00  0.00    +0.000 N 
ATOM     10  C   UNL     1      -3.246  11.358  18.535  0.00  0.00    +0.000 A 
ATOM     11  N   UNL     1      -4.525  11.794  18.596  0.00  0.00    +0.000 N 
ATOM     12  C   UNL     1      -4.926  13.064  19.207  0.00  0.00    +0.000 C 
ATOM     13  C   UNL     1      -6.207  12.832  20.017  0.00  0.00    +0.000 C 
ATOM     14  O   UNL     1      -7.254  12.303  19.186  0.00  0.00    +0.000 OA
ATOM     15  C   UNL     1      -6.848  11.055  18.589  0.00  0.00    +0.000 C 
ATOM     16  C   UNL     1      -5.563  11.201  17.749  0.00  0.00    +0.000 C 
ATOM     17  N   UNL     1      -2.677  10.517  17.698  0.00  0.00    +0.000 NA
ATOM     18  C   UNL     1      -1.382  10.351  18.150  0.00  0.00    +0.000 A 
ATOM     19  C   UNL     1      -0.320   9.568  17.656  0.00  0.00    +0.000 A 
ATOM     20  H   UNL     1      -2.580  12.293  20.313  0.00  0.00    +0.000 HD
ENDBRANCH   3   5
BRANCH   2  21
ATOM     21  C   UNL     1       3.436   6.855  17.818  0.00  0.00    +0.000 A 
ATOM     22  C   UNL     1       4.409   7.371  16.987  0.00  0.00    +0.000 A 
ATOM     23  N   UNL     1       5.152   6.309  16.575  0.00  0.00    +0.000 N 
ATOM     24  N   UNL     1       4.713   5.132  17.042  0.00  0.00    +0.000 NA
ATOM     25  C   UNL     1       3.650   5.437  17.807  0.00  0.00    +0.000 A 
ATOM     26  H   UNL     1       5.976   6.311  15.981  0.00  0.00    +0.000 HD
BRANCH  25  27
ATOM     27  C   UNL     1       2.879   4.388  18.476  0.00  0.00    +0.000 A 
ATOM     28  C   UNL     1       1.644   3.943  17.989  0.00  0.00    +0.000 A 
ATOM     29  C   UNL     1       0.919   2.980  18.686  0.00  0.00    +0.000 A 
ATOM     30  C   UNL     1       1.465   2.461  19.847  0.00  0.00    +0.000 A 
ATOM     31  N   UNL     1       2.669   2.827  20.335  0.00  0.00    +0.000 NA
ATOM     32  C   UNL     1       3.345   3.779  19.638  0.00  0.00    +0.000 A 
ENDBRANCH  25  27
ENDBRANCH   2  21
TORSDOF 3
ENDMDL
MODEL 7
REMARK VINA RESULT:      -8.4      1.891      3.701
REMARK  Name = 
REMARK  3 active torsions:
REMARK  status: ('A' for Active; 'I' for Inactive)
REMARK    1  A    between atoms: C_2  and  C_19
REMARK    2  A    between atoms: N_3  and  C_4
REMARK    3  A    between atoms: C_23  and  C_24
REMARK                            x       y       z     vdW  Elec       q    Type
REMARK                         _______ _______ _______ _____ _____    ______ ____
ROOT
ATOM      1  O   UNL     1       5.136   7.572  17.825  0.00  0.00    +0.000 OA
ATOM      2  C   UNL     1       4.367   6.705  17.427  0.00  0.00    +0.000 C 
ATOM      3  N   UNL     1       3.049   6.541  17.826  0.00  0.00    +0.000 N 
ATOM      4  H   UNL     1       2.579   5.700  17.518  0.00  0.00    +0.000 HD
ENDROOT
BRANCH   3   5
ATOM      5  C   UNL     1       2.368   7.338  18.777  0.00  0.00    +0.000 A 
ATOM      6  C   UNL     1       2.208   6.933  20.109  0.00  0.00    +0.000 A 
ATOM      7  C   UNL     1       1.496   7.693  21.033  0.00  0.00    +0.000 A 
ATOM      8  C   UNL     1       0.954   8.879  20.563  0.00  0.00    +0.000 A 
ATOM      9  N   UNL     1       0.197   9.827  21.179  0.00  0.00    +0.000 N 
ATOM     10  C   UNL     1      -0.121  10.807  20.278  0.00  0.00    +0.000 A 
ATOM     11  N   UNL     1      -0.947  11.810  20.650  0.00  0.00    +0.000 N 
ATOM     12  C   UNL     1      -1.050  12.317  22.020  0.00  0.00    +0.000 C 
ATOM     13  C   UNL     1      -2.530  12.561  22.340  0.00  0.00    +0.000 C 
ATOM     14  O   UNL     1      -3.116  13.479  21.403  0.00  0.00    +0.000 OA
ATOM     15  C   UNL     1      -3.008  12.971  20.057  0.00  0.00    +0.000 C 
ATOM     16  C   UNL     1      -1.544  12.702  19.651  0.00  0.00    +0.000 C 
ATOM     17  N   UNL     1       0.398  10.528  19.101  0.00  0.00    +0.000 NA
ATOM     18  C   UNL     1       1.084   9.340  19.260  0.00  0.00    +0.000 A 
ATOM     19  C   UNL     1       1.827   8.567  18.346  0.00  0.00    +0.000 A 
ATOM     20  H   UNL     1      -0.143   9.770  22.123  0.00  0.00    +0.000 HD
ENDBRANCH   3   5
BRANCH   2  21
ATOM     21  C   UNL     1       4.833   5.681  16.509  0.00  0.00    +0.000 A 
ATOM     22  C   UNL     1       5.583   5.872  15.366  0.00  0.00    +0.000 A 
ATOM     23  N   UNL     1       5.871   4.629  14.896  0.00  0.00    +0.000 N 
ATOM     24  N   UNL     1       5.332   3.640  15.622  0.00  0.00    +0.000 NA
ATOM     25  C   UNL     1       4.679   4.260  16.621  0.00  0.00    +0.000 A 
ATOM     26  H   UNL     1       6.434   4.378  14.089  0.00  0.00    +0.000 HD
BRANCH  25  27
ATOM     27  C   UNL     1       3.932   3.494  17.621  0.00  0.00    +0.000 A 
ATOM     28  C   UNL     1       2.663   2.966  17.360  0.00  0.00    +0.000 A 
ATOM     29  C   UNL     1       1.965   2.289  18.357  0.00  0.00    +0.000 A 
ATOM     30  C   UNL     1       2.571   2.131  19.591  0.00  0.00    +0.000 A 
ATOM     31  N   UNL     1       3.809   2.586  19.878  0.00  0.00    +0.000 NA
ATOM     32  C   UNL     1       4.458   3.254  18.888  0.00  0.00    +0.000 A 
ENDBRANCH  25  27
ENDBRANCH   2  21
TORSDOF 3
ENDMDL
MODEL 8
REMARK VINA RESULT:      -8.4      1.725      2.111
REMARK  Name = 
REMARK  3 active torsions:
REMARK  status: ('A' for Active; 'I' for Inactive)
REMARK    1  A    between atoms: C_2  and  C_19
REMARK    2  A    between atoms: N_3  and  C_4
REMARK    3  A    between atoms: C_23  and  C_24
REMARK                            x       y       z     vdW  Elec       q    Type
REMARK                         _______ _______ _______ _____ _____    ______ ____
ROOT
ATOM      1  O   UNL     1       0.545   5.159  20.361  0.00  0.00    +0.000 OA
ATOM      2  C   UNL     1       1.771   5.164  20.392  0.00  0.00    +0.000 C 
ATOM      3  N   UNL     1       2.590   6.220  20.024  0.00  0.00    +0.000 N 
ATOM      4  H   UNL     1       3.583   6.032  19.971  0.00  0.00    +0.000 HD
ENDROOT
BRANCH   3   5
ATOM      5  C   UNL     1       2.153   7.473  19.531  0.00  0.00    +0.000 A 
ATOM      6  C   UNL     1       2.360   7.862  18.202  0.00  0.00    +0.000 A 
ATOM      7  C   UNL     1       1.974   9.114  17.728  0.00  0.00    +0.000 A 
ATOM      8  C   UNL     1       1.369   9.956  18.647  0.00  0.00    +0.000 A 
ATOM      9  N   UNL     1       0.902  11.229  18.528  0.00  0.00    +0.000 N 
ATOM     10  C   UNL     1       0.413  11.646  19.737  0.00  0.00    +0.000 A 
ATOM     11  N   UNL     1      -0.022  12.918  19.875  0.00  0.00    +0.000 N 
ATOM     12  C   UNL     1      -0.603  13.706  18.785  0.00  0.00    +0.000 C 
ATOM     13  C   UNL     1      -0.048  15.133  18.866  0.00  0.00    +0.000 C 
ATOM     14  O   UNL     1      -0.335  15.727  20.143  0.00  0.00    +0.000 OA
ATOM     15  C   UNL     1       0.240  14.943  21.208  0.00  0.00    +0.000 C 
ATOM     16  C   UNL     1      -0.271  13.488  21.203  0.00  0.00    +0.000 C 
ATOM     17  N   UNL     1       0.548  10.693  20.635  0.00  0.00    +0.000 NA
ATOM     18  C   UNL     1       1.127   9.627  19.974  0.00  0.00    +0.000 A 
ATOM     19  C   UNL     1       1.505   8.348  20.428  0.00  0.00    +0.000 A 
ATOM     20  H   UNL     1       0.982  11.798  17.704  0.00  0.00    +0.000 HD
ENDBRANCH   3   5
BRANCH   2  21
ATOM     21  C   UNL     1       2.495   3.963  20.769  0.00  0.00    +0.000 A 
ATOM     22  C   UNL     1       2.218   3.127  21.831  0.00  0.00    +0.000 A 
ATOM     23  N   UNL     1       3.086   2.086  21.724  0.00  0.00    +0.000 N 
ATOM     24  N   UNL     1       3.938   2.199  20.697  0.00  0.00    +0.000 NA
ATOM     25  C   UNL     1       3.602   3.352  20.093  0.00  0.00    +0.000 A 
ATOM     26  H   UNL     1       3.152   1.261  22.312  0.00  0.00    +0.000 HD
BRANCH  25  27
ATOM     27  C   UNL     1       4.341   3.833  18.924  0.00  0.00    +0.000 A 
ATOM     28  C   UNL     1       5.534   4.555  19.041  0.00  0.00    +0.000 A 
ATOM     29  C   UNL     1       6.178   5.039  17.904  0.00  0.00    +0.000 A 
ATOM     30  C   UNL     1       5.622   4.761  16.667  0.00  0.00    +0.000 A 
ATOM     31  N   UNL     1       4.497   4.035  16.501  0.00  0.00    +0.000 NA
ATOM     32  C   UNL     1       3.885   3.589  17.631  0.00  0.00    +0.000 A 
ENDBRANCH  25  27
ENDBRANCH   2  21
TORSDOF 3
ENDMDL
MODEL 9
REMARK VINA RESULT:      -8.3      2.382      4.124
REMARK  Name = 
REMARK  3 active torsions:
REMARK  status: ('A' for Active; 'I' for Inactive)
REMARK    1  A    between atoms: C_2  and  C_19
REMARK    2  A    between atoms: N_3  and  C_4
REMARK    3  A    between atoms: C_23  and  C_24
REMARK                            x       y       z     vdW  Elec       q    Type
REMARK                         _______ _______ _______ _____ _____    ______ ____
ROOT
ATOM      1  O   UNL     1       2.217   5.905  18.229  0.00  0.00    +0.000 OA
ATOM      2  C   UNL     1       3.046   6.731  17.865  0.00  0.00    +0.000 C 
ATOM      3  N   UNL     1       2.941   8.106  18.004  0.00  0.00    +0.000 N 
ATOM      4  H   UNL     1       3.638   8.668  17.533  0.00  0.00    +0.000 HD
ENDROOT
BRANCH   3   5
ATOM      5  C   UNL     1       1.847   8.798  18.576  0.00  0.00    +0.000 A 
ATOM      6  C   UNL     1       1.678   8.905  19.963  0.00  0.00    +0.000 A 
ATOM      7  C   UNL     1       0.576   9.543  20.527  0.00  0.00    +0.000 A 
ATOM      8  C   UNL     1      -0.346  10.073  19.639  0.00  0.00    +0.000 A 
ATOM      9  N   UNL     1      -1.521  10.725  19.848  0.00  0.00    +0.000 N 
ATOM     10  C   UNL     1      -2.091  11.027  18.640  0.00  0.00    +0.000 A 
ATOM     11  N   UNL     1      -3.315  11.600  18.606  0.00  0.00    +0.000 N 
ATOM     12  C   UNL     1      -3.833  12.482  19.656  0.00  0.00    +0.000 C 
ATOM     13  C   UNL     1      -5.303  12.125  19.910  0.00  0.00    +0.000 C 
ATOM     14  O   UNL     1      -6.078  12.242  18.706  0.00  0.00    +0.000 OA
ATOM     15  C   UNL     1      -5.559  11.371  17.680  0.00  0.00    +0.000 C 
ATOM     16  C   UNL     1      -4.080  11.667  17.358  0.00  0.00    +0.000 C 
ATOM     17  N   UNL     1      -1.331  10.592  17.657  0.00  0.00    +0.000 NA
ATOM     18  C   UNL     1      -0.232  10.009  18.257  0.00  0.00    +0.000 A 
ATOM     19  C   UNL     1       0.900   9.377  17.706  0.00  0.00    +0.000 A 
ATOM     20  H   UNL     1      -1.942  10.883  20.747  0.00  0.00    +0.000 HD
ENDBRANCH   3   5
BRANCH   2  21
ATOM     21  C   UNL     1       4.237   6.303  17.151  0.00  0.00    +0.000 A 
ATOM     22  C   UNL     1       5.001   7.059  16.286  0.00  0.00    +0.000 A 
ATOM     23  N   UNL     1       6.064   6.282  15.948  0.00  0.00    +0.000 N 
ATOM     24  N   UNL     1       6.032   5.059  16.495  0.00  0.00    +0.000 NA
ATOM     25  C   UNL     1       4.911   5.041  17.237  0.00  0.00    +0.000 A 
ATOM     26  H   UNL     1       6.853   6.520  15.355  0.00  0.00    +0.000 HD
BRANCH  25  27
ATOM     27  C   UNL     1       4.518   3.839  17.977  0.00  0.00    +0.000 A 
ATOM     28  C   UNL     1       3.671   2.870  17.429  0.00  0.00    +0.000 A 
ATOM     29  C   UNL     1       3.281   1.768  18.187  0.00  0.00    +0.000 A 
ATOM     30  C   UNL     1       3.774   1.650  19.474  0.00  0.00    +0.000 A 
ATOM     31  N   UNL     1       4.625   2.536  20.032  0.00  0.00    +0.000 NA
ATOM     32  C   UNL     1       4.976   3.607  19.271  0.00  0.00    +0.000 A 
ENDBRANCH  25  27
ENDBRANCH   2  21
TORSDOF 3
ENDMDL
