MODEL 1
REMARK VINA RESULT:      -8.9      0.000      0.000
REMARK  Name = 
REMARK  6 active torsions:
REMARK  status: ('A' for Active; 'I' for Inactive)
REMARK    1  A    between atoms: C_1  and  O_2
REMARK    2  A    between atoms: O_2  and  C_3
REMARK    3  A    between atoms: C_6  and  C_7
REMARK    4  A    between atoms: N_9  and  C_10
REMARK    5  A    between atoms: C_21  and  S_22
REMARK    6  A    between atoms: S_22  and  N_25
REMARK                            x       y       z     vdW  Elec       q    Type
REMARK                         _______ _______ _______ _____ _____    ______ ____
ROOT
ATOM      1  C   UNL     1       4.108   4.901  18.694  0.00  0.00    +0.000 A 
ATOM      2  C   UNL     1       3.089   5.310  19.577  0.00  0.00    +0.000 A 
ATOM      3  C   UNL     1       2.434   6.532  19.423  0.00  0.00    +0.000 A 
ATOM      4  C   UNL     1       2.808   7.398  18.402  0.00  0.00    +0.000 A 
ATOM      5  C   UNL     1       3.797   7.008  17.509  0.00  0.00    +0.000 A 
ATOM      6  C   UNL     1       4.447   5.761  17.644  0.00  0.00    +0.000 A 
ENDROOT
BRANCH   4   7
ATOM      7  C   UNL     1       2.079   8.677  18.273  0.00  0.00    +0.000 C 
ATOM      8  O   UNL     1       2.281   9.325  17.252  0.00  0.00    +0.000 OA
ATOM      9  N   UNL     1       1.233   9.006  19.319  0.00  0.00    +0.000 N 
ATOM     10  H   UNL     1       1.208   8.399  20.129  0.00  0.00    +0.000 HD
BRANCH   9  11
ATOM     11  C   UNL     1       0.441  10.171  19.390  0.00  0.00    +0.000 A 
ATOM     12  C   UNL     1      -0.749  10.318  18.636  0.00  0.00    +0.000 A 
ATOM     13  C   UNL     1      -1.448  11.525  18.589  0.00  0.00    +0.000 A 
ATOM     14  C   UNL     1      -0.957  12.535  19.362  0.00  0.00    +0.000 A 
ATOM     15  N   UNL     1      -1.403  13.842  19.491  0.00  0.00    +0.000 N 
ATOM     16  C   UNL     1      -0.668  14.471  20.501  0.00  0.00    +0.000 A 
ATOM     17  O   UNL     1      -0.829  15.604  20.918  0.00  0.00    +0.000 OA
ATOM     18  N   UNL     1       0.293  13.545  20.937  0.00  0.00    +0.000 N 
ATOM     19  C   UNL     1       0.134  12.368  20.216  0.00  0.00    +0.000 A 
ATOM     20  C   UNL     1       0.876  11.206  20.232  0.00  0.00    +0.000 A 
ATOM     21  H   UNL     1      -2.096  14.301  18.923  0.00  0.00    +0.000 HD
ATOM     22  H   UNL     1       0.962  13.738  21.664  0.00  0.00    +0.000 HD
ENDBRANCH   9  11
ENDBRANCH   4   7
BRANCH   6  23
ATOM     23  S   UNL     1       5.546   5.454  16.298  0.00  0.00    +0.000 S 
ATOM     24  O   UNL     1       5.363   4.042  15.997  0.00  0.00    +0.000 OA
ATOM     25  O   UNL     1       5.222   6.442  15.282  0.00  0.00    +0.000 OA
BRANCH  23  26
ATOM     26  N   UNL     1       7.186   5.651  16.700  0.00  0.00    +0.000 NA
ATOM     27  C   UNL     1       7.717   4.749  17.756  0.00  0.00    +0.000 C 
ATOM     28  C   UNL     1       7.608   5.560  19.037  0.00  0.00    +0.000 C 
ATOM     29  C   UNL     1       7.967   6.963  18.594  0.00  0.00    +0.000 C 
ATOM     30  C   UNL     1       7.515   7.049  17.142  0.00  0.00    +0.000 C 
ENDBRANCH  23  26
ENDBRANCH   6  23
BRANCH   1  32
ATOM     31  C   UNL     1       4.153   2.751  19.705  0.00  0.00    +0.000 C 
ATOM     32  O   UNL     1       4.767   3.714  18.847  0.00  0.00    +0.000 OA
ENDBRANCH   1  32
TORSDOF 5
ENDMDL
MODEL 2
REMARK VINA RESULT:      -8.6      1.174      1.605
REMARK  Name = 
REMARK  6 active torsions:
REMARK  status: ('A' for Active; 'I' for Inactive)
REMARK    1  A    between atoms: C_1  and  O_2
REMARK    2  A    between atoms: O_2  and  C_3
REMARK    3  A    between atoms: C_6  and  C_7
REMARK    4  A    between atoms: N_9  and  C_10
REMARK    5  A    between atoms: C_21  and  S_22
REMARK    6  A    between atoms: S_22  and  N_25
REMARK                            x       y       z     vdW  Elec       q    Type
REMARK                         _______ _______ _______ _____ _____    ______ ____
ROOT
ATOM      1  C   UNL     1       3.924   4.841  18.179  0.00  0.00    +0.000 A 
ATOM      2  C   UNL     1       2.898   5.124  19.102  0.00  0.00    +0.000 A 
ATOM      3  C   UNL     1       2.292   6.379  19.162  0.00  0.00    +0.000 A 
ATOM      4  C   UNL     1       2.724   7.400  18.325  0.00  0.00    +0.000 A 
ATOM      5  C   UNL     1       3.722   7.140  17.395  0.00  0.00    +0.000 A 
ATOM      6  C   UNL     1       4.321   5.863  17.311  0.00  0.00    +0.000 A 
ENDROOT
BRANCH   4   7
ATOM      7  C   UNL     1       2.047   8.710  18.418  0.00  0.00    +0.000 C 
ATOM      8  O   UNL     1       2.139   9.449  17.444  0.00  0.00    +0.000 OA
ATOM      9  N   UNL     1       1.366   8.963  19.597  0.00  0.00    +0.000 N 
ATOM     10  H   UNL     1       1.423   8.280  20.343  0.00  0.00    +0.000 HD
BRANCH   9  11
ATOM     11  C   UNL     1       0.648  10.142  19.887  0.00  0.00    +0.000 A 
ATOM     12  C   UNL     1       1.224  11.212  20.616  0.00  0.00    +0.000 A 
ATOM     13  C   UNL     1       0.470  12.310  21.034  0.00  0.00    +0.000 A 
ATOM     14  C   UNL     1      -0.836  12.326  20.644  0.00  0.00    +0.000 A 
ATOM     15  N   UNL     1      -1.831  13.247  20.935  0.00  0.00    +0.000 N 
ATOM     16  C   UNL     1      -2.977  12.918  20.204  0.00  0.00    +0.000 A 
ATOM     17  O   UNL     1      -4.023  13.543  20.173  0.00  0.00    +0.000 OA
ATOM     18  N   UNL     1      -2.690  11.729  19.516  0.00  0.00    +0.000 N 
ATOM     19  C   UNL     1      -1.386  11.349  19.811  0.00  0.00    +0.000 A 
ATOM     20  C   UNL     1      -0.679  10.227  19.439  0.00  0.00    +0.000 A 
ATOM     21  H   UNL     1      -1.779  13.999  21.603  0.00  0.00    +0.000 HD
ATOM     22  H   UNL     1      -3.345  11.265  18.910  0.00  0.00    +0.000 HD
ENDBRANCH   9  11
ENDBRANCH   4   7
BRANCH   6  23
ATOM     23  S   UNL     1       5.443   5.762  15.952  0.00  0.00    +0.000 S 
ATOM     24  O   UNL     1       5.237   4.426  15.413  0.00  0.00    +0.000 OA
ATOM     25  O   UNL     1       5.163   6.916  15.113  0.00  0.00    +0.000 OA
BRANCH  23  26
ATOM     26  N   UNL     1       7.078   5.848  16.412  0.00  0.00    +0.000 NA
ATOM     27  C   UNL     1       7.574   4.750  17.283  0.00  0.00    +0.000 C 
ATOM     28  C   UNL     1       7.453   5.301  18.695  0.00  0.00    +0.000 C 
ATOM     29  C   UNL     1       7.841   6.757  18.537  0.00  0.00    +0.000 C 
ATOM     30  C   UNL     1       7.419   7.129  17.120  0.00  0.00    +0.000 C 
ENDBRANCH  23  26
ENDBRANCH   6  23
BRANCH   1  32
ATOM     31  C   UNL     1       3.679   2.487  17.964  0.00  0.00    +0.000 C 
ATOM     32  O   UNL     1       4.535   3.620  18.125  0.00  0.00    +0.000 OA
ENDBRANCH   1  32
TORSDOF 5
ENDMDL
MODEL 3
REMARK VINA RESULT:      -8.6      1.341      1.349
REMARK  Name = 
REMARK  6 active torsions:
REMARK  status: ('A' for Active; 'I' for Inactive)
REMARK    1  A    between atoms: C_1  and  O_2
REMARK    2  A    between atoms: O_2  and  C_3
REMARK    3  A    between atoms: C_6  and  C_7
REMARK    4  A    between atoms: N_9  and  C_10
REMARK    5  A    between atoms: C_21  and  S_22
REMARK    6  A    between atoms: S_22  and  N_25
REMARK                            x       y       z     vdW  Elec       q    Type
REMARK                         _______ _______ _______ _____ _____    ______ ____
ROOT
ATOM      1  C   UNL     1       3.848   4.316  18.355  0.00  0.00    +0.000 A 
ATOM      2  C   UNL     1       2.865   4.408  19.360  0.00  0.00    +0.000 A 
ATOM      3  C   UNL     1       2.254   5.621  19.677  0.00  0.00    +0.000 A 
ATOM      4  C   UNL     1       2.639   6.786  19.023  0.00  0.00    +0.000 A 
ATOM      5  C   UNL     1       3.594   6.716  18.017  0.00  0.00    +0.000 A 
ATOM      6  C   UNL     1       4.197   5.485  17.673  0.00  0.00    +0.000 A 
ENDROOT
BRANCH   4   7
ATOM      7  C   UNL     1       1.958   8.046  19.386  0.00  0.00    +0.000 C 
ATOM      8  O   UNL     1       1.800   8.261  20.583  0.00  0.00    +0.000 OA
ATOM      9  N   UNL     1       1.578   8.860  18.333  0.00  0.00    +0.000 N 
ATOM     10  H   UNL     1       1.723   8.527  17.388  0.00  0.00    +0.000 HD
BRANCH   9  11
ATOM     11  C   UNL     1       0.926  10.105  18.460  0.00  0.00    +0.000 A 
ATOM     12  C   UNL     1      -0.483  10.227  18.375  0.00  0.00    +0.000 A 
ATOM     13  C   UNL     1      -1.115  11.470  18.347  0.00  0.00    +0.000 A 
ATOM     14  C   UNL     1      -0.305  12.560  18.472  0.00  0.00    +0.000 A 
ATOM     15  N   UNL     1      -0.630  13.908  18.438  0.00  0.00    +0.000 N 
ATOM     16  C   UNL     1       0.512  14.655  18.744  0.00  0.00    +0.000 A 
ATOM     17  O   UNL     1       0.579  15.865  18.858  0.00  0.00    +0.000 OA
ATOM     18  N   UNL     1       1.566  13.739  18.891  0.00  0.00    +0.000 N 
ATOM     19  C   UNL     1       1.069  12.455  18.692  0.00  0.00    +0.000 A 
ATOM     20  C   UNL     1       1.722  11.243  18.662  0.00  0.00    +0.000 A 
ATOM     21  H   UNL     1      -1.518  14.307  18.180  0.00  0.00    +0.000 HD
ATOM     22  H   UNL     1       2.510  14.007  19.113  0.00  0.00    +0.000 HD
ENDBRANCH   9  11
ENDBRANCH   4   7
BRANCH   6  23
ATOM     23  S   UNL     1       5.255   5.652  16.269  0.00  0.00    +0.000 S 
ATOM     24  O   UNL     1       5.017   4.445  15.492  0.00  0.00    +0.000 OA
ATOM     25  O   UNL     1       4.941   6.945  15.682  0.00  0.00    +0.000 OA
BRANCH  23  26
ATOM     26  N   UNL     1       6.910   5.655  16.660  0.00  0.00    +0.000 NA
ATOM     27  C   UNL     1       7.334   4.710  17.727  0.00  0.00    +0.000 C 
ATOM     28  C   UNL     1       7.333   5.545  18.997  0.00  0.00    +0.000 C 
ATOM     29  C   UNL     1       7.856   6.889  18.532  0.00  0.00    +0.000 C 
ATOM     30  C   UNL     1       7.408   7.009  17.081  0.00  0.00    +0.000 C 
ENDBRANCH  23  26
ENDBRANCH   6  23
BRANCH   1  32
ATOM     31  C   UNL     1       3.623   1.983  17.959  0.00  0.00    +0.000 C 
ATOM     32  O   UNL     1       4.464   3.135  18.049  0.00  0.00    +0.000 OA
ENDBRANCH   1  32
TORSDOF 5
ENDMDL
MODEL 4
REMARK VINA RESULT:      -8.5      1.439      1.645
REMARK  Name = 
REMARK  6 active torsions:
REMARK  status: ('A' for Active; 'I' for Inactive)
REMARK    1  A    between atoms: C_1  and  O_2
REMARK    2  A    between atoms: O_2  and  C_3
REMARK    3  A    between atoms: C_6  and  C_7
REMARK    4  A    between atoms: N_9  and  C_10
REMARK    5  A    between atoms: C_21  and  S_22
REMARK    6  A    between atoms: S_22  and  N_25
REMARK                            x       y       z     vdW  Elec       q    Type
REMARK                         _______ _______ _______ _____ _____    ______ ____
ROOT
ATOM      1  C   UNL     1       3.802   4.576  17.758  0.00  0.00    +0.000 A 
ATOM      2  C   UNL     1       2.728   4.782  18.646  0.00  0.00    +0.000 A 
ATOM      3  C   UNL     1       2.178   6.047  18.849  0.00  0.00    +0.000 A 
ATOM      4  C   UNL     1       2.714   7.151  18.197  0.00  0.00    +0.000 A 
ATOM      5  C   UNL     1       3.761   6.970  17.303  0.00  0.00    +0.000 A 
ATOM      6  C   UNL     1       4.305   5.687  17.073  0.00  0.00    +0.000 A 
ENDROOT
BRANCH   4   7
ATOM      7  C   UNL     1       2.093   8.471  18.437  0.00  0.00    +0.000 C 
ATOM      8  O   UNL     1       2.080   9.253  17.493  0.00  0.00    +0.000 OA
ATOM      9  N   UNL     1       1.578   8.682  19.705  0.00  0.00    +0.000 N 
ATOM     10  H   UNL     1       1.710   7.963  20.405  0.00  0.00    +0.000 HD
BRANCH   9  11
ATOM     11  C   UNL     1       0.938   9.862  20.138  0.00  0.00    +0.000 A 
ATOM     12  C   UNL     1       1.065  11.087  19.437  0.00  0.00    +0.000 A 
ATOM     13  C   UNL     1       0.561  12.284  19.946  0.00  0.00    +0.000 A 
ATOM     14  C   UNL     1      -0.119  12.197  21.124  0.00  0.00    +0.000 A 
ATOM     15  N   UNL     1      -0.692  13.204  21.887  0.00  0.00    +0.000 N 
ATOM     16  C   UNL     1      -1.398  12.622  22.944  0.00  0.00    +0.000 A 
ATOM     17  O   UNL     1      -2.068  13.205  23.778  0.00  0.00    +0.000 OA
ATOM     18  N   UNL     1      -1.184  11.237  22.859  0.00  0.00    +0.000 N 
ATOM     19  C   UNL     1      -0.373  10.981  21.760  0.00  0.00    +0.000 A 
ATOM     20  C   UNL     1       0.168   9.796  21.309  0.00  0.00    +0.000 A 
ATOM     21  H   UNL     1      -0.580  14.196  21.756  0.00  0.00    +0.000 HD
ATOM     22  H   UNL     1      -1.579  10.573  23.503  0.00  0.00    +0.000 HD
ENDBRANCH   9  11
ENDBRANCH   4   7
BRANCH   6  23
ATOM     23  S   UNL     1       5.513   5.717  15.787  0.00  0.00    +0.000 S 
ATOM     24  O   UNL     1       5.357   4.435  15.115  0.00  0.00    +0.000 OA
ATOM     25  O   UNL     1       5.275   6.941  15.040  0.00  0.00    +0.000 OA
BRANCH  23  26
ATOM     26  N   UNL     1       7.115   5.768  16.358  0.00  0.00    +0.000 NA
ATOM     27  C   UNL     1       7.563   4.601  17.161  0.00  0.00    +0.000 C 
ATOM     28  C   UNL     1       7.345   5.026  18.604  0.00  0.00    +0.000 C 
ATOM     29  C   UNL     1       7.730   6.491  18.598  0.00  0.00    +0.000 C 
ATOM     30  C   UNL     1       7.397   6.984  17.195  0.00  0.00    +0.000 C 
ENDBRANCH  23  26
ENDBRANCH   6  23
BRANCH   1  32
ATOM     31  C   UNL     1       3.803   2.268  18.326  0.00  0.00    +0.000 C 
ATOM     32  O   UNL     1       4.358   3.343  17.565  0.00  0.00    +0.000 OA
ENDBRANCH   1  32
TORSDOF 5
ENDMDL
MODEL 5
REMARK VINA RESULT:      -8.5      1.419      1.640
REMARK  Name = 
REMARK  6 active torsions:
REMARK  status: ('A' for Active; 'I' for Inactive)
REMARK    1  A    between atoms: C_1  and  O_2
REMARK    2  A    between atoms: O_2  and  C_3
REMARK    3  A    between atoms: C_6  and  C_7
REMARK    4  A    between atoms: N_9  and  C_10
REMARK    5  A    between atoms: C_21  and  S_22
REMARK    6  A    between atoms: S_22  and  N_25
REMARK                            x       y       z     vdW  Elec       q    Type
REMARK                         _______ _______ _______ _____ _____    ______ ____
ROOT
ATOM      1  C   UNL     1       3.724   4.120  17.731  0.00  0.00    +0.000 A 
ATOM      2  C   UNL     1       2.675   4.199  18.668  0.00  0.00    +0.000 A 
ATOM      3  C   UNL     1       2.170   5.425  19.100  0.00  0.00    +0.000 A 
ATOM      4  C   UNL     1       2.728   6.610  18.633  0.00  0.00    +0.000 A 
ATOM      5  C   UNL     1       3.750   6.556  17.695  0.00  0.00    +0.000 A 
ATOM      6  C   UNL     1       4.248   5.317  17.234  0.00  0.00    +0.000 A 
ENDROOT
BRANCH   4   7
ATOM      7  C   UNL     1       2.154   7.885  19.112  0.00  0.00    +0.000 C 
ATOM      8  O   UNL     1       1.907   7.962  20.310  0.00  0.00    +0.000 OA
ATOM      9  N   UNL     1       1.963   8.866  18.154  0.00  0.00    +0.000 N 
ATOM     10  H   UNL     1       2.161   8.642  17.187  0.00  0.00    +0.000 HD
BRANCH   9  11
ATOM     11  C   UNL     1       1.439  10.153  18.399  0.00  0.00    +0.000 A 
ATOM     12  C   UNL     1       2.198  11.329  18.174  0.00  0.00    +0.000 A 
ATOM     13  C   UNL     1       1.738  12.588  18.559  0.00  0.00    +0.000 A 
ATOM     14  C   UNL     1       0.488  12.631  19.103  0.00  0.00    +0.000 A 
ATOM     15  N   UNL     1      -0.214  13.714  19.613  0.00  0.00    +0.000 N 
ATOM     16  C   UNL     1      -1.509  13.298  19.938  0.00  0.00    +0.000 A 
ATOM     17  O   UNL     1      -2.412  13.999  20.358  0.00  0.00    +0.000 OA
ATOM     18  N   UNL     1      -1.564  11.918  19.691  0.00  0.00    +0.000 N 
ATOM     19  C   UNL     1      -0.327  11.504  19.207  0.00  0.00    +0.000 A 
ATOM     20  C   UNL     1       0.129  10.242  18.892  0.00  0.00    +0.000 A 
ATOM     21  H   UNL     1       0.147  14.639  19.785  0.00  0.00    +0.000 HD
ATOM     22  H   UNL     1      -2.386  11.358  19.841  0.00  0.00    +0.000 HD
ENDBRANCH   9  11
ENDBRANCH   4   7
BRANCH   6  23
ATOM     23  S   UNL     1       5.430   5.535  15.941  0.00  0.00    +0.000 S 
ATOM     24  O   UNL     1       5.287   4.344  15.117  0.00  0.00    +0.000 OA
ATOM     25  O   UNL     1       5.152   6.837  15.358  0.00  0.00    +0.000 OA
BRANCH  23  26
ATOM     26  N   UNL     1       7.041   5.551  16.487  0.00  0.00    +0.000 NA
ATOM     27  C   UNL     1       7.371   4.607  17.587  0.00  0.00    +0.000 C 
ATOM     28  C   UNL     1       7.242   5.440  18.853  0.00  0.00    +0.000 C 
ATOM     29  C   UNL     1       7.795   6.789  18.442  0.00  0.00    +0.000 C 
ATOM     30  C   UNL     1       7.485   6.909  16.954  0.00  0.00    +0.000 C 
ENDBRANCH  23  26
ENDBRANCH   6  23
BRANCH   1  32
ATOM     31  C   UNL     1       3.720   1.753  17.953  0.00  0.00    +0.000 C 
ATOM     32  O   UNL     1       4.237   2.923  17.315  0.00  0.00    +0.000 OA
ENDBRANCH   1  32
TORSDOF 5
ENDMDL
MODEL 6
REMARK VINA RESULT:      -8.5      1.529      1.862
REMARK  Name = 
REMARK  6 active torsions:
REMARK  status: ('A' for Active; 'I' for Inactive)
REMARK    1  A    between atoms: C_1  and  O_2
REMARK    2  A    between atoms: O_2  and  C_3
REMARK    3  A    between atoms: C_6  and  C_7
REMARK    4  A    between atoms: N_9  and  C_10
REMARK    5  A    between atoms: C_21  and  S_22
REMARK    6  A    between atoms: S_22  and  N_25
REMARK                            x       y       z     vdW  Elec       q    Type
REMARK                         _______ _______ _______ _____ _____    ______ ____
ROOT
ATOM      1  C   UNL     1       3.864   4.293  17.794  0.00  0.00    +0.000 A 
ATOM      2  C   UNL     1       2.833   4.366  18.751  0.00  0.00    +0.000 A 
ATOM      3  C   UNL     1       2.272   5.585  19.132  0.00  0.00    +0.000 A 
ATOM      4  C   UNL     1       2.756   6.771  18.592  0.00  0.00    +0.000 A 
ATOM      5  C   UNL     1       3.759   6.722  17.634  0.00  0.00    +0.000 A 
ATOM      6  C   UNL     1       4.313   5.488  17.225  0.00  0.00    +0.000 A 
ENDROOT
BRANCH   4   7
ATOM      7  C   UNL     1       2.125   8.038  19.018  0.00  0.00    +0.000 C 
ATOM      8  O   UNL     1       2.293   9.010  18.290  0.00  0.00    +0.000 OA
ATOM      9  N   UNL     1       1.398   7.992  20.196  0.00  0.00    +0.000 N 
ATOM     10  H   UNL     1       1.391   7.129  20.725  0.00  0.00    +0.000 HD
BRANCH   9  11
ATOM     11  C   UNL     1       0.712   9.081  20.773  0.00  0.00    +0.000 A 
ATOM     12  C   UNL     1       0.675   9.288  22.174  0.00  0.00    +0.000 A 
ATOM     13  C   UNL     1      -0.127  10.272  22.754  0.00  0.00    +0.000 A 
ATOM     14  C   UNL     1      -0.822  11.067  21.890  0.00  0.00    +0.000 A 
ATOM     15  N   UNL     1      -1.721  12.088  22.162  0.00  0.00    +0.000 N 
ATOM     16  C   UNL     1      -2.078  12.705  20.960  0.00  0.00    +0.000 A 
ATOM     17  O   UNL     1      -2.805  13.674  20.829  0.00  0.00    +0.000 OA
ATOM     18  N   UNL     1      -1.439  11.991  19.934  0.00  0.00    +0.000 N 
ATOM     19  C   UNL     1      -0.693  10.966  20.504  0.00  0.00    +0.000 A 
ATOM     20  C   UNL     1       0.043   9.964  19.911  0.00  0.00    +0.000 A 
ATOM     21  H   UNL     1      -2.111  12.323  23.060  0.00  0.00    +0.000 HD
ATOM     22  H   UNL     1      -1.524  12.223  18.958  0.00  0.00    +0.000 HD
ENDBRANCH   9  11
ENDBRANCH   4   7
BRANCH   6  23
ATOM     23  S   UNL     1       5.454   5.699  15.895  0.00  0.00    +0.000 S 
ATOM     24  O   UNL     1       5.308   4.490  15.099  0.00  0.00    +0.000 OA
ATOM     25  O   UNL     1       5.137   6.985  15.294  0.00  0.00    +0.000 OA
BRANCH  23  26
ATOM     26  N   UNL     1       7.079   5.753  16.394  0.00  0.00    +0.000 NA
ATOM     27  C   UNL     1       7.516   4.681  17.326  0.00  0.00    +0.000 C 
ATOM     28  C   UNL     1       7.377   5.300  18.708  0.00  0.00    +0.000 C 
ATOM     29  C   UNL     1       7.818   6.733  18.496  0.00  0.00    +0.000 C 
ATOM     30  C   UNL     1       7.444   7.054  17.053  0.00  0.00    +0.000 C 
ENDBRANCH  23  26
ENDBRANCH   6  23
BRANCH   1  32
ATOM     31  C   UNL     1       3.741   1.919  17.829  0.00  0.00    +0.000 C 
ATOM     32  O   UNL     1       4.431   3.105  17.428  0.00  0.00    +0.000 OA
ENDBRANCH   1  32
TORSDOF 5
ENDMDL
MODEL 7
REMARK VINA RESULT:      -8.4      1.694      2.128
REMARK  Name = 
REMARK  6 active torsions:
REMARK  status: ('A' for Active; 'I' for Inactive)
REMARK    1  A    between atoms: C_1  and  O_2
REMARK    2  A    between atoms: O_2  and  C_3
REMARK    3  A    between atoms: C_6  and  C_7
REMARK    4  A    between atoms: N_9  and  C_10
REMARK    5  A    between atoms: C_21  and  S_22
REMARK    6  A    between atoms: S_22  and  N_25
REMARK                            x       y       z     vdW  Elec       q    Type
REMARK                         _______ _______ _______ _____ _____    ______ ____
ROOT
ATOM      1  C   UNL     1       2.901   4.534  20.230  0.00  0.00    +0.000 A 
ATOM      2  C   UNL     1       1.911   5.318  20.856  0.00  0.00    +0.000 A 
ATOM      3  C   UNL     1       1.590   6.596  20.397  0.00  0.00    +0.000 A 
ATOM      4  C   UNL     1       2.280   7.141  19.320  0.00  0.00    +0.000 A 
ATOM      5  C   UNL     1       3.246   6.379  18.676  0.00  0.00    +0.000 A 
ATOM      6  C   UNL     1       3.557   5.075  19.120  0.00  0.00    +0.000 A 
ENDROOT
BRANCH   4   7
ATOM      7  C   UNL     1       1.899   8.494  18.863  0.00  0.00    +0.000 C 
ATOM      8  O   UNL     1       2.436   8.901  17.839  0.00  0.00    +0.000 OA
ATOM      9  N   UNL     1       0.963   9.159  19.637  0.00  0.00    +0.000 N 
ATOM     10  H   UNL     1       0.645   8.720  20.492  0.00  0.00    +0.000 HD
BRANCH   9  11
ATOM     11  C   UNL     1       0.458  10.449  19.375  0.00  0.00    +0.000 A 
ATOM     12  C   UNL     1      -0.742  10.653  18.649  0.00  0.00    +0.000 A 
ATOM     13  C   UNL     1      -1.161  11.925  18.258  0.00  0.00    +0.000 A 
ATOM     14  C   UNL     1      -0.384  12.967  18.671  0.00  0.00    +0.000 A 
ATOM     15  N   UNL     1      -0.517  14.323  18.409  0.00  0.00    +0.000 N 
ATOM     16  C   UNL     1       0.437  15.021  19.155  0.00  0.00    +0.000 A 
ATOM     17  O   UNL     1       0.572  16.231  19.211  0.00  0.00    +0.000 OA
ATOM     18  N   UNL     1       1.211  14.059  19.823  0.00  0.00    +0.000 N 
ATOM     19  C   UNL     1       0.725  12.797  19.500  0.00  0.00    +0.000 A 
ATOM     20  C   UNL     1       1.192  11.548  19.846  0.00  0.00    +0.000 A 
ATOM     21  H   UNL     1      -1.147  14.750  17.749  0.00  0.00    +0.000 HD
ATOM     22  H   UNL     1       1.977  14.288  20.434  0.00  0.00    +0.000 HD
ENDBRANCH   9  11
ENDBRANCH   4   7
BRANCH   6  23
ATOM     23  S   UNL     1       4.703   4.278  18.039  0.00  0.00    +0.000 S 
ATOM     24  O   UNL     1       5.908   4.124  18.840  0.00  0.00    +0.000 OA
ATOM     25  O   UNL     1       4.026   3.092  17.541  0.00  0.00    +0.000 OA
BRANCH  23  26
ATOM     26  N   UNL     1       5.138   5.223  16.694  0.00  0.00    +0.000 NA
ATOM     27  C   UNL     1       4.941   4.597  15.360  0.00  0.00    +0.000 C 
ATOM     28  C   UNL     1       6.297   4.005  15.014  0.00  0.00    +0.000 C 
ATOM     29  C   UNL     1       7.274   5.035  15.542  0.00  0.00    +0.000 C 
ATOM     30  C   UNL     1       6.572   5.672  16.735  0.00  0.00    +0.000 C 
ENDBRANCH  23  26
ENDBRANCH   6  23
BRANCH   1  32
ATOM     31  C   UNL     1       2.317   2.676  21.593  0.00  0.00    +0.000 C 
ATOM     32  O   UNL     1       3.233   3.289  20.683  0.00  0.00    +0.000 OA
ENDBRANCH   1  32
TORSDOF 5
ENDMDL
MODEL 8
REMARK VINA RESULT:      -8.2      1.894      2.339
REMARK  Name = 
REMARK  6 active torsions:
REMARK  status: ('A' for Active; 'I' for Inactive)
REMARK    1  A    between atoms: C_1  and  O_2
REMARK    2  A    between atoms: O_2  and  C_3
REMARK    3  A    between atoms: C_6  and  C_7
REMARK    4  A    between atoms: N_9  and  C_10
REMARK    5  A    between atoms: C_21  and  S_22
REMARK    6  A    between atoms: S_22  and  N_25
REMARK                            x       y       z     vdW  Elec       q    Type
REMARK                         _______ _______ _______ _____ _____    ______ ____
ROOT
ATOM      1  C   UNL     1       3.639   4.280  19.608  0.00  0.00    +0.000 A 
ATOM      2  C   UNL     1       2.419   4.339  20.311  0.00  0.00    +0.000 A 
ATOM      3  C   UNL     1       1.746   5.544  20.512  0.00  0.00    +0.000 A 
ATOM      4  C   UNL     1       2.296   6.733  20.047  0.00  0.00    +0.000 A 
ATOM      5  C   UNL     1       3.488   6.698  19.336  0.00  0.00    +0.000 A 
ATOM      6  C   UNL     1       4.161   5.476  19.107  0.00  0.00    +0.000 A 
ENDROOT
BRANCH   4   7
ATOM      7  C   UNL     1       1.543   7.984  20.275  0.00  0.00    +0.000 C 
ATOM      8  O   UNL     1       1.165   8.197  21.422  0.00  0.00    +0.000 OA
ATOM      9  N   UNL     1       1.353   8.793  19.168  0.00  0.00    +0.000 N 
ATOM     10  H   UNL     1       1.674   8.461  18.267  0.00  0.00    +0.000 HD
BRANCH   9  11
ATOM     11  C   UNL     1       0.672  10.029  19.169  0.00  0.00    +0.000 A 
ATOM     12  C   UNL     1      -0.739  10.109  19.268  0.00  0.00    +0.000 A 
ATOM     13  C   UNL     1      -1.422  11.316  19.115  0.00  0.00    +0.000 A 
ATOM     14  C   UNL     1      -0.649  12.425  18.932  0.00  0.00    +0.000 A 
ATOM     15  N   UNL     1      -1.032  13.739  18.711  0.00  0.00    +0.000 N 
ATOM     16  C   UNL     1       0.108  14.548  18.716  0.00  0.00    +0.000 A 
ATOM     17  O   UNL     1       0.139  15.761  18.607  0.00  0.00    +0.000 OA
ATOM     18  N   UNL     1       1.210  13.692  18.866  0.00  0.00    +0.000 N 
ATOM     19  C   UNL     1       0.746  12.385  18.967  0.00  0.00    +0.000 A 
ATOM     20  C   UNL     1       1.439  11.198  19.054  0.00  0.00    +0.000 A 
ATOM     21  H   UNL     1      -1.963  14.071  18.518  0.00  0.00    +0.000 HD
ATOM     22  H   UNL     1       2.164  14.012  18.901  0.00  0.00    +0.000 HD
ENDBRANCH   9  11
ENDBRANCH   4   7
BRANCH   6  23
ATOM     23  S   UNL     1       5.560   5.696  18.053  0.00  0.00    +0.000 S 
ATOM     24  O   UNL     1       5.191   6.808  17.190  0.00  0.00    +0.000 OA
ATOM     25  O   UNL     1       6.709   5.834  18.935  0.00  0.00    +0.000 OA
BRANCH  23  26
ATOM     26  N   UNL     1       5.856   4.370  17.030  0.00  0.00    +0.000 NA
ATOM     27  C   UNL     1       7.192   4.329  16.378  0.00  0.00    +0.000 C 
ATOM     28  C   UNL     1       6.967   4.958  15.012  0.00  0.00    +0.000 C 
ATOM     29  C   UNL     1       5.600   4.444  14.611  0.00  0.00    +0.000 C 
ATOM     30  C   UNL     1       4.847   4.251  15.922  0.00  0.00    +0.000 C 
ENDBRANCH  23  26
ENDBRANCH   6  23
BRANCH   1  32
ATOM     31  C   UNL     1       3.578   2.038  18.822  0.00  0.00    +0.000 C 
ATOM     32  O   UNL     1       4.313   3.107  19.422  0.00  0.00    +0.000 OA
ENDBRANCH   1  32
TORSDOF 5
ENDMDL
MODEL 9
REMARK VINA RESULT:      -8.1      2.205      3.575
REMARK  Name = 
REMARK  6 active torsions:
REMARK  status: ('A' for Active; 'I' for Inactive)
REMARK    1  A    between atoms: C_1  and  O_2
REMARK    2  A    between atoms: O_2  and  C_3
REMARK    3  A    between atoms: C_6  and  C_7
REMARK    4  A    between atoms: N_9  and  C_10
REMARK    5  A    between atoms: C_21  and  S_22
REMARK    6  A    between atoms: S_22  and  N_25
REMARK                            x       y       z     vdW  Elec       q    Type
REMARK                         _______ _______ _______ _____ _____    ______ ____
ROOT
ATOM      1  C   UNL     1       4.691   4.991  16.958  0.00  0.00    +0.000 A 
ATOM      2  C   UNL     1       5.035   6.357  16.927  0.00  0.00    +0.000 A 
ATOM      3  C   UNL     1       4.208   7.334  17.481  0.00  0.00    +0.000 A 
ATOM      4  C   UNL     1       2.992   6.974  18.050  0.00  0.00    +0.000 A 
ATOM      5  C   UNL     1       2.640   5.632  18.108  0.00  0.00    +0.000 A 
ATOM      6  C   UNL     1       3.486   4.636  17.571  0.00  0.00    +0.000 A 
ENDROOT
BRANCH   4   7
ATOM      7  C   UNL     1       2.153   8.042  18.633  0.00  0.00    +0.000 C 
ATOM      8  O   UNL     1       1.850   7.922  19.814  0.00  0.00    +0.000 OA
ATOM      9  N   UNL     1       1.806   9.078  17.782  0.00  0.00    +0.000 N 
ATOM     10  H   UNL     1       2.082   9.018  16.810  0.00  0.00    +0.000 HD
BRANCH   9  11
ATOM     11  C   UNL     1       1.022  10.196  18.138  0.00  0.00    +0.000 A 
ATOM     12  C   UNL     1      -0.392  10.133  18.202  0.00  0.00    +0.000 A 
ATOM     13  C   UNL     1      -1.173  11.272  18.402  0.00  0.00    +0.000 A 
ATOM     14  C   UNL     1      -0.495  12.438  18.600  0.00  0.00    +0.000 A 
ATOM     15  N   UNL     1      -0.986  13.723  18.780  0.00  0.00    +0.000 N 
ATOM     16  C   UNL     1       0.081  14.576  19.078  0.00  0.00    +0.000 A 
ATOM     17  O   UNL     1       0.009  15.761  19.350  0.00  0.00    +0.000 OA
ATOM     18  N   UNL     1       1.250  13.802  19.000  0.00  0.00    +0.000 N 
ATOM     19  C   UNL     1       0.897  12.497  18.675  0.00  0.00    +0.000 A 
ATOM     20  C   UNL     1       1.689  11.399  18.418  0.00  0.00    +0.000 A 
ATOM     21  H   UNL     1      -1.940  14.025  18.663  0.00  0.00    +0.000 HD
ATOM     22  H   UNL     1       2.172  14.169  19.169  0.00  0.00    +0.000 HD
ENDBRANCH   9  11
ENDBRANCH   4   7
BRANCH   6  23
ATOM     23  S   UNL     1       2.875   3.015  17.913  0.00  0.00    +0.000 S 
ATOM     24  O   UNL     1       1.497   3.043  17.447  0.00  0.00    +0.000 OA
ATOM     25  O   UNL     1       3.814   2.094  17.294  0.00  0.00    +0.000 OA
BRANCH  23  26
ATOM     26  N   UNL     1       2.814   2.647  19.572  0.00  0.00    +0.000 NA
ATOM     27  C   UNL     1       1.463   2.403  20.142  0.00  0.00    +0.000 C 
ATOM     28  C   UNL     1       1.049   3.745  20.724  0.00  0.00    +0.000 C 
ATOM     29  C   UNL     1       2.338   4.286  21.306  0.00  0.00    +0.000 C 
ATOM     30  C   UNL     1       3.443   3.709  20.430  0.00  0.00    +0.000 C 
ENDBRANCH  23  26
ENDBRANCH   6  23
BRANCH   1  32
ATOM     31  C   UNL     1       6.850   4.388  16.168  0.00  0.00    +0.000 C 
ATOM     32  O   UNL     1       5.487   4.030  16.403  0.00  0.00    +0.000 OA
ENDBRANCH   1  32
TORSDOF 5
ENDMDL
